# generated using pymatgen
data_ZnH12C16(NO2)2
_symmetry_space_group_name_H-M   'P 1'
_cell_length_a   8.69567763
_cell_length_b   10.07736282
_cell_length_c   10.46354599
_cell_angle_alpha   83.80131421
_cell_angle_beta   66.84659414
_cell_angle_gamma   68.41928291
_symmetry_Int_Tables_number   1
_chemical_formula_structural   ZnH12C16(NO2)2
_chemical_formula_sum   'Zn2 H24 C32 N4 O8'
_cell_volume   783.24391293
_cell_formula_units_Z   2
loop_
 _symmetry_equiv_pos_site_id
 _symmetry_equiv_pos_as_xyz
  1  'x, y, z'
loop_
 _atom_site_type_symbol
 _atom_site_label
 _atom_site_symmetry_multiplicity
 _atom_site_fract_x
 _atom_site_fract_y
 _atom_site_fract_z
 _atom_site_occupancy
 _atom_site_hle17_bader_spin_density
 _atom_site_hle17_ddec_charge
 _atom_site_hle17_ddec_spin_density
 _atom_site_hle17_ddec_sum_bond_order
 _atom_site_hle17_magmom
 _atom_site_hse06_10hf_bader_spin_density
 _atom_site_hse06_10hf_ddec_charge
 _atom_site_hse06_10hf_ddec_spin_density
 _atom_site_hse06_10hf_ddec_sum_bond_order
 _atom_site_hse06_10hf_magmom
 _atom_site_hse06_bader_spin_density
 _atom_site_hse06_ddec_charge
 _atom_site_hse06_ddec_spin_density
 _atom_site_hse06_ddec_sum_bond_order
 _atom_site_hse06_magmom
 _atom_site_pbe_bader_spin_density
 _atom_site_pbe_cm5_charge
 _atom_site_pbe_ddec_charge
 _atom_site_pbe_ddec_spin_density
 _atom_site_pbe_ddec_sum_bond_order
 _atom_site_pbe_magmom
Zn  Zn0  1  0.64839103  0.84232176  0.88393507  1  0  1.042883  0  1.817702  0  0  0.849601  0  2.29891  0  0  0.902021  0  2.236682  0  0  0.682001  0.812424  0  2.341986  0
Zn  Zn1  1  0.35160870  0.15767928  0.11606495  1  0  1.042879  0  1.817694  0  0  0.84961  0  2.298902  0  0  0.902027  0  2.236676  0  0  0.682003  0.812435  0  2.341972  0
H  H2  1  0.87627259  0.65982003  0.03864943  1  0  0.082296  0  0.940733  0  0  0.092612  0  1.000644  0  0  0.094862  0  0.999024  0  0  0.116237  0.090943  0  1.001881  0
H  H3  1  0.12372886  0.34017994  0.96135015  1  0  0.082312  0  0.94074  0  0  0.092623  0  1.00065  0  0  0.094876  0  0.999028  0  0  0.116234  0.090956  0  1.001885  0
H  H4  1  0.89066062  0.46232266  0.20253747  1  0  0.11607  0  0.979709  0  0  0.122841  0  1.044729  0  0  0.126773  0  1.042681  0  0  0.105914  0.119852  0  1.046443  0
H  H5  1  0.10933833  0.53767732  0.79746292  1  0  0.116094  0  0.979667  0  0  0.122859  0  1.044699  0  0  0.126791  0  1.042651  0  0  0.105907  0.11987  0  1.046414  0
H  H6  1  0.36291754  0.50135803  0.23608995  1  0  0.110405  0  0.950355  0  0  0.122375  0  1.006837  0  0  0.124791  0  1.007209  0  0  0.108357  0.120519  0  1.006933  0
H  H7  1  0.63708189  0.49864088  0.76390944  1  0  0.11042  0  0.950393  0  0  0.122382  0  1.006868  0  0  0.124799  0  1.007239  0  0  0.108356  0.120524  0  1.006961  0
H  H8  1  0.37686608  0.69319206  0.06465216  1  0  0.079503  0  0.951883  0  0  0.089613  0  1.011572  0  0  0.091581  0  1.010378  0  0  0.114292  0.088079  0  1.012605  0
H  H9  1  0.62313538  0.30680792  0.93534741  1  0  0.079508  0  0.951875  0  0  0.089626  0  1.011559  0  0  0.091595  0  1.010362  0  0  0.114287  0.088089  0  1.012598  0
H  H10  1  0.48672894  0.33489946  0.37588847  1  0  0.108983  0  0.984214  0  0  0.118829  0  1.046359  0  0  0.122104  0  1.044655  0  0  0.105635  0.116364  0  1.047728  0
H  H11  1  0.51327001  0.66510052  0.62411193  1  0  0.108982  0  0.984242  0  0  0.118819  0  1.046391  0  0  0.122094  0  1.044686  0  0  0.105628  0.116355  0  1.047759  0
H  H12  1  0.85036174  0.31982739  0.37109597  1  0  0.097203  0  0.983276  0  0  0.107424  0  1.047108  0  0  0.109979  0  1.046569  0  0  0.101286  0.10537  0  1.047877  0
H  H13  1  0.14963847  0.68017259  0.62890305  1  0  0.097207  0  0.983267  0  0  0.10743  0  1.047096  0  0  0.109984  0  1.046557  0  0  0.101283  0.105373  0  1.047865  0
H  H14  1  0.89550246  0.01495214  0.74214244  1  0  0.074419  0  0.945465  0  0  0.086604  0  1.003859  0  0  0.088068  0  1.003295  0  0  0.114655  0.085492  0  1.004311  0
H  H15  1  0.10449727  0.98504891  0.25785854  1  0  0.074411  0  0.945486  0  0  0.086597  0  1.003875  0  0  0.08806  0  1.003312  0  0  0.114656  0.085486  0  1.00433  0
H  H16  1  0.94112391  0.18190001  0.54911043  1  0  0.113188  0  0.946738  0  0  0.12427  0  1.003402  0  0  0.126993  0  1.003674  0  0  0.108458  0.122394  0  1.003127  0
H  H17  1  0.05887677  0.81809890  0.45088856  1  0  0.113186  0  0.946725  0  0  0.124265  0  1.003395  0  0  0.126989  0  1.003665  0  0  0.108457  0.122391  0  1.003123  0
H  H18  1  0.45902618  0.17892496  0.51841749  1  0  0.12856  0  0.970003  0  0  0.137762  0  1.030345  0  0  0.141665  0  1.028077  0  0  0.111203  0.134871  0  1.032128  0
H  H19  1  0.54097402  0.82107502  0.48158250  1  0  0.128538  0  0.970034  0  0  0.137744  0  1.030375  0  0  0.141647  0  1.028107  0  0  0.111185  0.134853  0  1.032162  0
H  H20  1  0.44008341  0.00928578  0.70791671  1  0  0.077556  0  0.947968  0  0  0.090191  0  1.004728  0  0  0.091813  0  1.003559  0  0  0.116945  0.089058  0  1.005464  0
H  H21  1  0.55991679  0.99071420  0.29208327  1  0  0.077595  0  0.947933  0  0  0.090212  0  1.004712  0  0  0.091833  0  1.003544  0  0  0.116964  0.08908  0  1.005449  0
H  H22  1  0.88981491  0.13630344  0.09612136  1  0  0.126365  0  0.941269  0  0  0.133066  0  1.002394  0  0  0.137127  0  1.000824  0  0  0.108836  0.130064  0  1.003847  0
H  H23  1  0.11018452  0.86369547  0.90387994  1  0  0.126353  0  0.941273  0  0  0.133052  0  1.002396  0  0  0.137112  0  1.000826  0  0  0.108831  0.13005  0  1.003847  0
H  H24  1  0.08232171  0.45635575  0.61071645  1  0  0.115042  0  0.94983  0  0  0.12309  0  1.011133  0  0  0.127779  0  1.00801  0  0  0.103626  0.119679  0  1.013534  0
H  H25  1  0.91767678  0.54364530  0.38928494  1  0  0.115048  0  0.949834  0  0  0.123091  0  1.011146  0  0  0.127783  0  1.008018  0  0  0.103634  0.119682  0  1.013552  0
C  C26  1  0.76562339  0.62065692  0.08500938  1  0  0.129503  0  3.711791  0  0  0.098661  0  3.961451  0  0  0.10545  0  3.980933  0  0  0.042326  0.094261  0  3.948058  0
C  C27  1  0.23437681  0.37934306  0.91498965  1  0  0.129468  0  3.711899  0  0  0.098647  0  3.961551  0  0  0.105433  0  3.981031  0  0  0.042325  0.094242  0  3.94816  0
C  C28  1  0.77138374  0.51163685  0.17799916  1  0  -0.174884  0  3.686906  0  0  -0.188013  0  3.927096  0  0  -0.196895  0  3.94868  0  0  -0.084647  -0.181716  0  3.912331  0
C  C29  1  0.22861569  0.48836206  0.82200215  1  0  -0.174933  0  3.686973  0  0  -0.188068  0  3.927151  0  0  -0.196951  0  3.948734  0  0  -0.084652  -0.181776  0  3.912387  0
C  C30  1  0.62356798  0.46632902  0.23813799  1  0  0.141502  0  3.794145  0  0  0.155956  0  4.0243  0  0  0.161501  0  4.046854  0  0  0.008896  0.152207  0  4.009082  0
C  C31  1  0.37643520  0.53366989  0.76186018  1  0  0.141516  0  3.794175  0  0  0.15598  0  4.024288  0  0  0.161526  0  4.046841  0  0  0.008868  0.152238  0  4.00906  0
C  C32  1  0.47990353  0.53302899  0.19495080  1  0  -0.156666  0  3.686303  0  0  -0.17291  0  3.931414  0  0  -0.181206  0  3.953127  0  0  -0.079678  -0.168304  0  3.918088  0
C  C33  1  0.52009495  0.46697206  0.80504963  1  0  -0.156747  0  3.686387  0  0  -0.172965  0  3.931461  0  0  -0.181262  0  3.953173  0  0  -0.079699  -0.168361  0  3.91813  0
C  C34  1  0.48605156  0.64044793  0.10017265  1  0  0.122076  0  3.735607  0  0  0.090652  0  3.989654  0  0  0.097612  0  4.009374  0  0  0.040611  0.085828  0  3.976967  0
C  C35  1  0.51394787  0.35955098  0.89982770  1  0  0.12214  0  3.735569  0  0  0.090709  0  3.989611  0  0  0.097667  0  4.009329  0  0  0.040684  0.085888  0  3.976927  0
C  C36  1  0.60876530  0.35963983  0.34322026  1  0  -0.09189  0  3.687339  0  0  -0.111684  0  3.933861  0  0  -0.114319  0  3.953803  0  0  -0.076455  -0.109742  0  3.920383  0
C  C37  1  0.39123491  0.64036015  0.65677876  1  0  -0.091864  0  3.687348  0  0  -0.111648  0  3.933849  0  0  -0.114284  0  3.953791  0  0  -0.076432  -0.109712  0  3.920371  0
C  C38  1  0.72796138  0.29594896  0.40393119  1  0  -0.106445  0  3.695941  0  0  -0.125215  0  3.942887  0  0  -0.12969  0  3.96423  0  0  -0.08362  -0.122437  0  3.928806  0
C  C39  1  0.27203930  0.70404995  0.59606875  1  0  -0.10645  0  3.695846  0  0  -0.125221  0  3.942796  0  0  -0.129696  0  3.96414  0  0  -0.083624  -0.122442  0  3.928711  0
C  C40  1  0.80147065  0.05489643  0.69005197  1  0  0.127823  0  3.734991  0  0  0.096551  0  3.987578  0  0  0.103968  0  4.006993  0  0  0.041559  0.091761  0  3.974142  0
C  C41  1  0.19853033  0.94510461  0.30994670  1  0  0.127789  0  3.734971  0  0  0.09652  0  3.98756  0  0  0.103937  0  4.006974  0  0  0.04152  0.091728  0  3.974128  0
C  C42  1  0.82630949  0.14779905  0.58192694  1  0  -0.173544  0  3.708314  0  0  -0.189858  0  3.955831  0  0  -0.198646  0  3.977738  0  0  -0.084109  -0.184076  0  3.941005  0
C  C43  1  0.17369071  0.85220093  0.41807209  1  0  -0.173456  0  3.708277  0  0  -0.189763  0  3.955789  0  0  -0.198552  0  3.977696  0  0  -0.084064  -0.183984  0  3.940966  0
C  C44  1  0.70357631  0.19691100  0.51581675  1  0  0.140262  0  3.796351  0  0  0.154208  0  4.0279  0  0  0.160225  0  4.050628  0  0  0.007974  0.15048  0  4.012391  0
C  C45  1  0.29642390  0.80308898  0.48418227  1  0  0.140182  0  3.796357  0  0  0.154115  0  4.027933  0  0  0.160133  0  4.050662  0  0  0.007957  0.150393  0  4.012417  0
C  C46  1  0.55989164  0.14648616  0.56408858  1  0  -0.163448  0  3.654309  0  0  -0.177162  0  3.892195  0  0  -0.185778  0  3.913193  0  0  -0.079706  -0.171605  0  3.878196  0
C  C47  1  0.44010904  0.85351275  0.43591136  1  0  -0.163397  0  3.654351  0  0  -0.177112  0  3.892234  0  0  -0.185727  0  3.913232  0  0  -0.079679  -0.171558  0  3.87824  0
C  C48  1  0.54674155  0.05283779  0.67141626  1  0  0.146948  0  3.714374  0  0  0.111821  0  3.970385  0  0  0.119577  0  3.989038  0  0  0.045251  0.106789  0  3.957643  0
C  C49  1  0.45325990  0.94716219  0.32858236  1  0  0.146899  0  3.714371  0  0  0.111786  0  3.97039  0  0  0.119543  0  3.989042  0  0  0.045214  0.106754  0  3.957652  0
C  C50  1  0.75745546  0.02276860  0.03042881  1  0  0.688935  0  3.906221  0  0  0.637283  0  4.204459  0  0  0.673326  0  4.193842  0  0  0.214551  0.612904  0  4.210773  0
C  C51  1  0.24254475  0.97723138  0.96957117  1  0  0.688971  0  3.90618  0  0  0.637307  0  4.204432  0  0  0.673348  0  4.193816  0  0  0.214563  0.612927  0  4.21074  0
C  C52  1  0.91599787  0.04375305  0.03491930  1  0  -0.16418  0  3.649719  0  0  -0.181325  0  3.899792  0  0  -0.186971  0  3.91345  0  0  -0.08317  -0.177657  0  3.89071  0
C  C53  1  0.08400156  0.95624585  0.96508200  1  0  -0.164158  0  3.649706  0  0  -0.181266  0  3.899756  0  0  -0.186911  0  3.913414  0  0  -0.083155  -0.177594  0  3.890668  0
C  C54  1  0.84611800  0.65576016  0.63718973  1  0  0.650563  0  3.96689  0  0  0.606846  0  4.263975  0  0  0.640741  0  4.255254  0  0  0.187819  0.583894  0  4.268506  0
C  C55  1  0.15388298  0.34424089  0.36280988  1  0  0.650527  0  3.966965  0  0  0.606816  0  4.264041  0  0  0.640711  0  4.255321  0  0  0.187813  0.58386  0  4.268578  0
C  C56  1  0.99080211  0.52167681  0.56171116  1  0  -0.177705  0  3.694302  0  0  -0.194755  0  3.94726  0  0  -0.200179  0  3.961518  0  0  -0.091562  -0.190832  0  3.937172  0
C  C57  1  0.00919809  0.47832317  0.43828787  1  0  -0.177704  0  3.694351  0  0  -0.194762  0  3.947323  0  0  -0.200186  0  3.961576  0  0  -0.091577  -0.190845  0  3.937246  0
N  N58  1  0.62515798  0.68597454  0.04653761  1  0  -0.327405  0  3.248598  0  0  -0.250499  0  3.515715  0  0  -0.269621  0  3.533377  0  0  -0.322178  -0.237419  0  3.503745  0
N  N59  1  0.37484098  0.31402544  0.95346279  1  0  -0.327402  0  3.248581  0  0  -0.250537  0  3.515741  0  0  -0.269651  0  3.533398  0  0  -0.322227  -0.237458  0  3.503773  0
N  N60  1  0.66376621  0.00764486  0.73551246  1  0  -0.343923  0  3.286994  0  0  -0.265458  0  3.561907  0  0  -0.28559  0  3.578603  0  0  -0.324757  -0.251718  0  3.550346  0
N  N61  1  0.33623525  0.99235512  0.26448712  1  0  -0.343891  0  3.286991  0  0  -0.265428  0  3.561898  0  0  -0.28556  0  3.578593  0  0  -0.324717  -0.251688  0  3.550334  0
O  O62  1  0.78255597  0.90897249  0.97110173  1  0  -0.637988  0  2.10588  0  0  -0.572327  0  2.385621  0  0  -0.599711  0  2.369249  0  0  -0.311367  -0.553211  0  2.396264  0
O  O63  1  0.21744299  0.09102748  0.02889962  1  0  -0.638015  0  2.105858  0  0  -0.572355  0  2.385595  0  0  -0.59974  0  2.369223  0  0  -0.311381  -0.553239  0  2.396236  0
O  O64  1  0.60862899  0.12434108  0.08735013  1  0  -0.627499  0  2.081415  0  0  -0.559905  0  2.359807  0  0  -0.586778  0  2.341589  0  0  -0.306784  -0.541156  0  2.371631  0
O  O65  1  0.39137074  0.87565997  0.91264989  1  0  -0.627493  0  2.081409  0  0  -0.559895  0  2.359795  0  0  -0.586766  0  2.341574  0  0  -0.306778  -0.54115  0  2.371628  0
O  O66  1  0.84743708  0.67888657  0.75667073  1  0  -0.661286  0  2.038898  0  0  -0.589485  0  2.308969  0  0  -0.619228  0  2.294071  0  0  -0.334643  -0.567568  0  2.317779  0
O  O67  1  0.15256265  0.32111448  0.24332930  1  0  -0.661269  0  2.038902  0  0  -0.589471  0  2.308968  0  0  -0.619214  0  2.294067  0  0  -0.334646  -0.567556  0  2.317783  0
O  O68  1  0.73658369  0.73365735  0.58633900  1  0  -0.613244  0  1.93424  0  0  -0.571688  0  2.15839  0  0  -0.593375  0  2.149074  0  0  -0.323749  -0.555814  0  2.163841  0
O  O69  1  0.26341651  0.26634263  0.41366098  1  0  -0.613227  0  1.934254  0  0  -0.571673  0  2.158401  0  0  -0.59336  0  2.149086  0  0  -0.323746  -0.555795  0  2.163847  0
