# generated using pymatgen
data_Na3Dy2H54C42N6Cl2O10F3
_symmetry_space_group_name_H-M   'P 1'
_cell_length_a   13.69828698
_cell_length_b   15.06989960
_cell_length_c   15.44846497
_cell_angle_alpha   112.20670013
_cell_angle_beta   95.74816357
_cell_angle_gamma   103.55572898
_symmetry_Int_Tables_number   1
_chemical_formula_structural   Na3Dy2H54C42N6Cl2O10F3
_chemical_formula_sum   'Na6 Dy4 H108 C84 N12 Cl4 O20 F6'
_cell_volume   2806.43842872
_cell_formula_units_Z   2
loop_
 _symmetry_equiv_pos_site_id
 _symmetry_equiv_pos_as_xyz
  1  'x, y, z'
loop_
 _atom_site_type_symbol
 _atom_site_label
 _atom_site_symmetry_multiplicity
 _atom_site_fract_x
 _atom_site_fract_y
 _atom_site_fract_z
 _atom_site_occupancy
 _atom_site_pbe_bader_charge
 _atom_site_pbe_bader_spin_density
 _atom_site_pbe_cm5_charge
 _atom_site_pbe_ddec_charge
 _atom_site_pbe_ddec_spin_density
 _atom_site_pbe_ddec_sum_bond_order
 _atom_site_pbe_magmom
Na  Na0  1  0.72598226  0.05471340  0.27865065  1  0.873713  0  0.676312  0.823178  0  0.635286  0
Na  Na1  1  0.27401845  0.94528746  0.72134840  1  0.873701  0  0.676297  0.823134  0  0.635336  0
Na  Na2  1  0.88450050  0.36419845  0.15637906  1  0.87836  0  0.652158  0.823809  0  0.608813  0
Na  Na3  1  0.11550393  0.63580760  0.84362558  1  0.878365  0  0.652152  0.823806  0  0.608792  0
Na  Na4  1  0.91817259  0.14356495  0.17744621  1  0.889542  0  0.679841  0.859103  0  0.539206  0
Na  Na5  1  0.08182134  0.85642618  0.82255039  1  0.889531  0  0.679862  0.859088  0  0.539283  0
Dy  Dy6  1  0.65452719  0.10531976  0.07262345  1  2.126079  0  1.489058  1.915542  0  2.413487  0
Dy  Dy7  1  0.34547604  0.89468088  0.92738746  1  2.126044  0  1.488994  1.915393  0  2.413599  0
Dy  Dy8  1  0.91602978  0.34772313  0.38999657  1  2.123401  0  1.488889  1.91317  0  2.42266  0
Dy  Dy9  1  0.08397494  0.65227914  0.61000669  1  2.123468  0  1.488923  1.913162  0  2.42263  0
H  H10  1  0.70492055  0.21890171  0.95653497  1  0.450184  0  0.257868  0.241217  0  1.04197  0
H  H11  1  0.29507431  0.78109695  0.04346325  1  0.450108  0  0.257904  0.241192  0  1.041943  0
H  H12  1  0.88119910  0.21388360  0.48872170  1  0.425293  0  0.266597  0.241256  0  1.023314  0
H  H13  1  0.11879320  0.78610682  0.51127251  1  0.424984  0  0.266664  0.241378  0  1.0232  0
H  H14  1  0.44687712  0.14657239  0.45815077  1  0.061862  0  0.099429  0.10863  0  1.01843  0
H  H15  1  0.55310864  0.85340904  0.54184130  1  0.062031  0  0.099415  0.108519  0  1.018471  0
H  H16  1  0.36291482  0.26535998  0.43036230  1  0.033492  0  0.08872  0.088938  0  1.043537  0
H  H17  1  0.63708047  0.73463563  0.56963742  1  0.033407  0  0.088728  0.088889  0  1.043555  0
H  H18  1  0.40009073  0.32063721  0.30067707  1  0.063555  0  0.090012  0.084739  0  1.080726  0
H  H19  1  0.59993020  0.67937466  0.69933159  1  0.06354  0  0.089984  0.084682  0  1.080693  0
H  H20  1  0.61807684  0.99404794  0.43052882  1  0.080803  0  0.108864  0.113389  0  1.006343  0
H  H21  1  0.38189567  0.00593069  0.56945748  1  0.081607  0  0.108872  0.113352  0  1.006306  0
H  H22  1  0.48465988  0.99203502  0.41458226  1  0.053147  0  0.097871  0.095802  0  1.005062  0
H  H23  1  0.51532047  0.00794959  0.58540391  1  0.053225  0  0.097856  0.095693  0  1.005081  0
H  H24  1  0.58262646  0.10238243  0.49947099  1  0.035024  0  0.098537  0.092942  0  1.005243  0
H  H25  1  0.41734914  0.89759461  0.50051765  1  0.034654  0  0.098511  0.092894  0  1.005204  0
H  H26  1  0.48199691  0.32903533  0.18611142  1  0.074793  0  0.106749  0.062936  0  1.00259  0
H  H27  1  0.51802317  0.67097651  0.81390037  1  0.074683  0  0.106774  0.062982  0  1.002699  0
H  H28  1  0.65375714  0.34776012  0.06946340  1  0.076626  0  0.10755  0.085596  0  0.999984  0
H  H29  1  0.34625822  0.65224514  0.93053634  1  0.076293  0  0.107463  0.085407  0  0.999971  0
H  H30  1  0.52016490  0.33867632  0.06117802  1  0.029015  0  0.097355  0.072961  0  0.994083  0
H  H31  1  0.47984348  0.66133337  0.93883296  1  0.028813  0  0.097323  0.072825  0  0.993979  0
H  H32  1  0.47994578  0.16251044  0.93185125  1  0.053389  0  0.10968  0.079338  0  1.009702  0
H  H33  1  0.52005378  0.83749479  0.06815967  1  0.053253  0  0.109685  0.079332  0  1.00982  0
H  H34  1  0.55752784  0.25454801  0.90108224  1  0.016073  0  0.093437  0.066823  0  0.970055  0
H  H35  1  0.44246536  0.74545349  0.09892851  1  0.015863  0  0.093433  0.066871  0  0.969996  0
H  H36  1  0.62336149  0.11365143  0.79282605  1  0.033478  0  0.095418  0.071046  0  0.964385  0
H  H37  1  0.37662240  0.88634572  0.20717816  1  0.033603  0  0.095434  0.071069  0  0.964382  0
H  H38  1  0.54568016  0.02929436  0.83186931  1  0.069379  0  0.111995  0.083703  0  1.017341  0
H  H39  1  0.45431773  0.97070788  0.16814031  1  0.069694  0  0.111993  0.083708  0  1.017344  0
H  H40  1  0.70038371  0.97686002  0.77933873  1  0.04435  0  0.098912  0.073647  0  0.999591  0
H  H41  1  0.29960729  0.02314087  0.22066507  1  0.044355  0  0.098914  0.073673  0  0.999577  0
H  H42  1  0.78083882  0.09517705  0.86799118  1  0.057535  0  0.111277  0.091543  0  0.97886  0
H  H43  1  0.21914815  0.90482469  0.13200925  1  0.057511  0  0.11122  0.091461  0  0.978781  0
H  H44  1  0.73690691  0.87375371  0.83149110  1  0.054065  0  0.10446  0.054144  0  1.022885  0
H  H45  1  0.26309822  0.12624811  0.16849326  1  0.054043  0  0.104476  0.054221  0  1.023032  0
H  H46  1  0.73449004  0.72918834  0.84379606  1  0.077663  0  0.094313  0.092437  0  1.046714  0
H  H47  1  0.26551964  0.27081607  0.15621245  1  0.077586  0  0.094305  0.092472  0  1.046632  0
H  H48  1  0.72053469  0.62050552  0.93157229  1  0.088883  0  0.089515  0.08817  0  1.050778  0
H  H49  1  0.27948258  0.37950348  0.06842907  1  0.088709  0  0.08952  0.088194  0  1.050742  0
H  H50  1  0.70305769  0.68779112  0.10097694  1  0.016504  0  0.095343  0.093988  0  1.063016  0
H  H51  1  0.29695595  0.31220821  0.89901586  1  0.016124  0  0.095382  0.094063  0  1.06301  0
H  H52  1  0.70088419  0.86864584  0.33036635  1  0.082888  0  0.100859  0.113018  0  1.018534  0
H  H53  1  0.29910877  0.13134844  0.66962290  1  0.082729  0  0.100788  0.112904  0  1.018537  0
H  H54  1  0.76571323  0.79074241  0.25631367  1  0.042036  0  0.099374  0.09846  0  1.002418  0
H  H55  1  0.23429043  0.20925616  0.74368486  1  0.042129  0  0.099332  0.098426  0  1.002424  0
H  H56  1  0.62720209  0.75479854  0.22760776  1  0.017441  0  0.092447  0.087193  0  1.000635  0
H  H57  1  0.37280069  0.24519642  0.77238090  1  0.017337  0  0.09241  0.087147  0  1.000648  0
H  H58  1  0.67737588  0.61379082  0.22764411  1  0.030744  0  0.095017  0.094883  0  1.062945  0
H  H59  1  0.32262815  0.38621765  0.77235103  1  0.030849  0  0.094959  0.094811  0  1.063156  0
H  H60  1  0.55901866  0.61183676  0.33901354  1  0.026257  0  0.092413  0.094795  0  1.017826  0
H  H61  1  0.44098427  0.38816637  0.66098466  1  0.026419  0  0.092465  0.094865  0  1.017785  0
H  H62  1  0.56436132  0.50929893  0.43254633  1  0.027325  0  0.092973  0.090872  0  1.024885  0
H  H63  1  0.43564224  0.49071160  0.56746248  1  0.027367  0  0.093003  0.090984  0  1.024787  0
H  H64  1  0.87958895  0.55708762  0.10486267  1  0.097165  0  0.110732  0.12398  0  1.000772  0
H  H65  1  0.12040052  0.44291423  0.89512901  1  0.097004  0  0.110664  0.123996  0  1.000743  0
H  H66  1  0.83932552  0.65147836  0.19360091  1  0.044973  0  0.095723  0.090637  0  1.008615  0
H  H67  1  0.16066964  0.34852207  0.80638182  1  0.044911  0  0.095726  0.090599  0  1.0087  0
H  H68  1  0.74608230  0.54496061  0.09792939  1  0.048143  0  0.097149  0.096076  0  0.998438  0
H  H69  1  0.25391013  0.45503570  0.90207545  1  0.048167  0  0.097108  0.096075  0  0.998469  0
H  H70  1  0.62373641  0.39948167  0.47356557  1  0.067949  0  0.104459  0.0563  0  1.014488  0
H  H71  1  0.37627348  0.60053484  0.52644424  1  0.06794  0  0.104457  0.056287  0  1.014631  0
H  H72  1  0.70796521  0.22900043  0.47387676  1  0.049497  0  0.111216  0.083436  0  1.007064  0
H  H73  1  0.29202245  0.77100582  0.52612479  1  0.049355  0  0.111246  0.08351  0  1.00698  0
H  H74  1  0.68206278  0.33453764  0.56017517  1  0.041031  0  0.096235  0.070068  0  1.005885  0
H  H75  1  0.31794434  0.66547734  0.43983699  1  0.041009  0  0.096233  0.07011  0  1.005856  0
H  H76  1  0.82574428  0.29558184  0.63386770  1  0.020837  0  0.099205  0.075978  0  0.958408  0
H  H77  1  0.17425845  0.70442574  0.36613668  1  0.020762  0  0.099208  0.075961  0  0.958362  0
H  H78  1  0.87424610  0.41152004  0.62510800  1  0.05347  0  0.109803  0.080718  0  1.004878  0
H  H79  1  0.12576332  0.58848233  0.37488675  1  0.053092  0  0.109801  0.080739  0  1.004918  0
H  H80  1  0.01139040  0.28132054  0.63199877  1  0.029864  0  0.100294  0.079655  0  0.95581  0
H  H81  1  0.98859720  0.71864579  0.36798916  1  0.030271  0  0.100368  0.079805  0  0.955655  0
H  H82  1  0.04599075  0.39614517  0.61790128  1  0.0722  0  0.112312  0.083179  0  1.009024  0
H  H83  1  0.95400576  0.60383895  0.38210530  1  0.07191  0  0.112334  0.08315  0  1.008999  0
H  H84  1  0.15725776  0.28591039  0.54801356  1  0.049772  0  0.097618  0.072058  0  0.996742  0
H  H85  1  0.84273417  0.71407630  0.45197727  1  0.049913  0  0.09758  0.072028  0  0.996774  0
H  H86  1  0.04271848  0.18918422  0.47311670  1  0.096246  0  0.106106  0.096636  0  0.995715  0
H  H87  1  0.95727974  0.81081007  0.52686925  1  0.096303  0  0.106061  0.096553  0  0.995761  0
H  H88  1  0.23517057  0.33296093  0.45366749  1  0.051389  0  0.10314  0.053506  0  1.028067  0
H  H89  1  0.76482741  0.66703389  0.54633223  1  0.05156  0  0.103085  0.053386  0  1.028081  0
H  H90  1  0.34880345  0.42656252  0.40382965  1  0.038383  0  0.094886  0.088402  0  1.045464  0
H  H91  1  0.65120799  0.57344493  0.59617759  1  0.038568  0  0.094924  0.088409  0  1.04548  0
H  H92  1  0.39856303  0.51374662  0.29931138  1  0.061951  0  0.090516  0.08941  0  1.044004  0
H  H93  1  0.60144308  0.48625043  0.70068685  1  0.061975  0  0.090515  0.089419  0  1.044132  0
H  H94  1  0.26197208  0.52471156  0.18779193  1  0.070177  0  0.104924  0.113606  0  1.015364  0
H  H95  1  0.73803359  0.47528172  0.81220485  1  0.070096  0  0.104956  0.113636  0  1.015485  0
H  H96  1  0.01190163  0.47298976  0.05575692  1  0.085297  0  0.095643  0.110848  0  1.049072  0
H  H97  1  0.98810036  0.52700356  0.94424010  1  0.085179  0  0.095621  0.110876  0  1.04903  0
H  H98  1  0.13847733  0.45983509  0.05932578  1  0.033919  0  0.093727  0.09493  0  1.013992  0
H  H99  1  0.86152613  0.54015593  0.94067120  1  0.034001  0  0.093755  0.094975  0  1.013885  0
H  H100  1  0.11887946  0.56911311  0.14639111  1  0.091283  0  0.088477  0.103158  0  1.018956  0
H  H101  1  0.88112908  0.43088465  0.85360766  1  0.057084  0  0.088446  0.103143  0  1.019019  0
H  H102  1  0.94124333  0.04808695  0.30939526  1  0.61673  0  0.272868  0.328601  0  1.003226  0
H  H103  1  0.05875508  0.95190482  0.69060597  1  0.616785  0  0.272868  0.328605  0  1.003104  0
H  H104  1  0.12183692  0.09528653  0.23736430  1  0.040765  0  0.092117  0.075736  0  1.020272  0
H  H105  1  0.87815176  0.90470331  0.76262152  1  0.040873  0  0.092111  0.075729  0  1.020196  0
H  H106  1  0.08821249  0.98053841  0.25183388  1  0.034562  0  0.088393  0.078214  0  1.000764  0
H  H107  1  0.91178355  0.01946174  0.74816568  1  0.034571  0  0.088386  0.078204  0  1.000761  0
H  H108  1  0.11488480  0.09810440  0.35282522  1  0.02055  0  0.09283  0.085714  0  1.008455  0
H  H109  1  0.88511968  0.90190103  0.64717078  1  0.020484  0  0.092807  0.085684  0  1.008506  0
H  H110  1  0.05539039  0.07610019  0.03602394  1  0.603975  0  0.316661  0.340834  0  0.937558  0
H  H111  1  0.94456968  0.92386139  0.96394683  1  0.60424  0  0.316688  0.340853  0  0.937637  0
H  H112  1  0.92968470  0.18903939  0.99656887  1  0.085215  0  0.102233  0.102141  0  1.03962  0
H  H113  1  0.07032396  0.81097496  0.00343417  1  0.085074  0  0.102218  0.102056  0  1.039626  0
H  H114  1  0.00586648  0.12742515  0.91983375  1  0.063143  0  0.095371  0.092018  0  1.000386  0
H  H115  1  0.99412354  0.87256980  0.08016319  1  0.063154  0  0.09534  0.091901  0  1.000383  0
H  H116  1  0.06673874  0.23564162  0.02929604  1  0.073449  0  0.090756  0.088386  0  1.027149  0
H  H117  1  0.93326690  0.76435100  0.97069465  1  0.073303  0  0.090777  0.088351  0  1.027046  0
C  C118  1  0.55066325  0.16290902  0.26756622  1  0.743515  0  0.100222  0.270463  0  4.102679  0
C  C119  1  0.44934447  0.83709780  0.73243519  1  0.743311  0  0.10028  0.270491  0  4.10257  0
C  C120  1  0.52945420  0.13465090  0.34434561  1  0.3335  0  0.063361  0.122939  0  4.004507  0
C  C121  1  0.47054552  0.86535440  0.65566082  1  0.333806  0  0.063374  0.122887  0  4.004618  0
C  C122  1  0.46281896  0.17009849  0.40115368  1  -0.00235  0  -0.114335  -0.199549  0  4.059174  0
C  C123  1  0.53717329  0.82989192  0.59884182  1  -0.002585  0  -0.114462  -0.199561  0  4.059046  0
C  C124  1  0.41519292  0.23771923  0.38551455  1  -0.02391  0  -0.126951  -0.12898  0  4.117848  0
C  C125  1  0.58480456  0.76227862  0.61448561  1  -0.023852  0  -0.126803  -0.128738  0  4.117868  0
C  C126  1  0.43594593  0.26831673  0.31377426  1  -0.076324  0  -0.105638  -0.141522  0  4.07847  0
C  C127  1  0.56406342  0.73168397  0.68622958  1  -0.076226  0  -0.105576  -0.14135  0  4.077889  0
C  C128  1  0.50284068  0.23252299  0.25443488  1  -0.018052  0  -0.034337  -0.077383  0  4.027507  0
C  C129  1  0.49715324  0.76747104  0.74556928  1  -0.018176  0  -0.034329  -0.077396  0  4.027742  0
C  C130  1  0.56492424  0.03797716  0.42944336  1  0.381588  0  -0.138372  -0.183784  0  3.945258  0
C  C131  1  0.43505508  0.96200668  0.57054435  1  0.381011  0  -0.138264  -0.183437  0  3.945205  0
C  C132  1  0.51997169  0.27126321  0.18306822  1  0.630406  0  0.084072  0.140563  0  3.96714  0
C  C133  1  0.48003444  0.72873547  0.81692221  1  0.62993  0  0.08388  0.140401  0  3.967583  0
C  C134  1  0.57609584  0.29551367  0.05311952  1  0.258556  0  -0.064617  -0.052241  0  3.969561  0
C  C135  1  0.42391560  0.70450286  0.94688788  1  0.259797  0  -0.064509  -0.051744  0  3.969218  0
C  C136  1  0.55604002  0.21738644  0.95076393  1  0.297274  0  -0.066803  -0.032807  0  3.944378  0
C  C137  1  0.44395985  0.78262475  0.04925249  1  0.297658  0  -0.066786  -0.032955  0  3.944325  0
C  C138  1  0.62108913  0.08460730  0.84876835  1  0.261993  0  -0.067362  -0.038456  0  3.94254  0
C  C139  1  0.37890373  0.91539212  0.15123123  1  0.261566  0  -0.067328  -0.038527  0  3.942454  0
C  C140  1  0.70703547  0.03667120  0.85031122  1  0.28149  0  -0.06357  -0.052521  0  3.960995  0
C  C141  1  0.29295438  0.96332984  0.14968345  1  0.281263  0  -0.063561  -0.052542  0  3.961269  0
C  C142  1  0.72417093  0.91350590  0.90379086  1  0.633122  0  0.080802  0.124496  0  3.988602  0
C  C143  1  0.27583994  0.08648963  0.09620410  1  0.63281  0  0.080699  0.124356  0  3.989041  0
C  C144  1  0.71968552  0.90104341  0.06196261  1  0.761491  0  0.09542  0.254709  0  4.117758  0
C  C145  1  0.28032519  0.09896567  0.93803740  1  0.761366  0  0.095353  0.254564  0  4.118251  0
C  C146  1  0.72563888  0.85934181  0.96357104  1  -0.107785  0  -0.034922  -0.08854  0  4.038478  0
C  C147  1  0.27437390  0.14065520  0.03642533  1  -0.107063  0  -0.034789  -0.088342  0  4.038394  0
C  C148  1  0.72798641  0.75877786  0.91860275  1  -0.065407  0  -0.102311  -0.138646  0  4.058033  0
C  C149  1  0.27201845  0.24122221  0.08139647  1  -0.065551  0  -0.102326  -0.138796  0  4.057601  0
C  C150  1  0.72001166  0.69791408  0.96724845  1  -0.062597  0  -0.120288  -0.112473  0  4.109746  0
C  C151  1  0.27999767  0.30209052  0.03274908  1  -0.062794  0  -0.120319  -0.112501  0  4.109325  0
C  C152  1  0.71104217  0.73642009  0.06338847  1  -0.011728  0  -0.114154  -0.197558  0  4.051814  0
C  C153  1  0.28897818  0.26358894  0.93660871  1  -0.011127  0  -0.114164  -0.19761  0  4.051637  0
C  C154  1  0.71199888  0.83549854  0.11004708  1  0.419197  0  0.067553  0.132468  0  4.019418  0
C  C155  1  0.28801368  0.16450972  0.88995606  1  0.419307  0  0.067623  0.132574  0  4.019533  0
C  C156  1  0.69816316  0.81840514  0.25669279  1  0.425255  0  -0.139957  -0.169269  0  3.918981  0
C  C157  1  0.30183714  0.18158744  0.74330377  1  0.425344  0  -0.139875  -0.169159  0  3.919161  0
C  C158  1  0.76145939  0.46112427  0.31814380  1  0.727056  0  0.099413  0.26597  0  4.089738  0
C  C159  1  0.23853845  0.53887503  0.68186017  1  0.727461  0  0.099423  0.265834  0  4.089611  0
C  C160  1  0.75300498  0.51779861  0.26236169  1  0.418081  0  0.067458  0.132976  0  4.00924  0
C  C161  1  0.24698954  0.48220834  0.73763959  1  0.417905  0  0.067408  0.133051  0  4.009274  0
C  C162  1  0.68176170  0.57088879  0.27016425  1  -0.012075  0  -0.117911  -0.20387  0  4.060197  0
C  C163  1  0.31823843  0.42912707  0.72984487  1  -0.012055  0  -0.117776  -0.203769  0  4.060276  0
C  C164  1  0.61400598  0.56905003  0.33280702  1  -0.071706  0  -0.124131  -0.126197  0  4.130896  0
C  C165  1  0.38600036  0.43096494  0.66720635  1  -0.071568  0  -0.124247  -0.126297  0  4.130817  0
C  C166  1  0.61792749  0.51283416  0.38529894  1  -0.035954  0  -0.106111  -0.142076  0  4.081978  0
C  C167  1  0.38207756  0.48718091  0.61470914  1  -0.035949  0  -0.106133  -0.142248  0  4.081861  0
C  C168  1  0.69097612  0.45908208  0.37982459  1  -0.002453  0  -0.033043  -0.078077  0  4.023119  0
C  C169  1  0.30901876  0.54092405  0.62018031  1  -0.003595  0  -0.033011  -0.077965  0  4.023105  0
C  C170  1  0.82097893  0.57097372  0.14708017  1  0.375822  0  -0.137096  -0.174329  0  3.913705  0
C  C171  1  0.17901822  0.42902723  0.85291592  1  0.376119  0  -0.136965  -0.174311  0  3.91396  0
C  C172  1  0.68966483  0.40335759  0.43823840  1  0.64975  0  0.082214  0.137595  0  3.976333  0
C  C173  1  0.31034546  0.59663866  0.56175935  1  0.649458  0  0.082087  0.137546  0  3.976094  0
C  C174  1  0.73867961  0.31040805  0.51783376  1  0.298776  0  -0.064823  -0.054516  0  3.976219  0
C  C175  1  0.26132231  0.68959496  0.48217270  1  0.299036  0  -0.064866  -0.05467  0  3.976499  0
C  C176  1  0.83964130  0.33035763  0.58296386  1  0.300948  0  -0.066553  -0.034518  0  3.943408  0
C  C177  1  0.16035981  0.66964244  0.41703753  1  0.300927  0  -0.066555  -0.034499  0  3.943277  0
C  C178  1  0.01347563  0.31431160  0.57904623  1  0.269022  0  -0.066081  -0.037118  0  3.928661  0
C  C179  1  0.98651767  0.68567050  0.42094693  1  0.268421  0  -0.065983  -0.036998  0  3.92845  0
C  C180  1  0.07878756  0.27115542  0.50954346  1  0.24894  0  -0.06531  -0.054139  0  3.962562  0
C  C181  1  0.92120924  0.72883890  0.49044105  1  0.249058  0  -0.065291  -0.054063  0  3.96215  0
C  C182  1  0.16649592  0.33985085  0.41591550  1  0.625682  0  0.0825  0.129342  0  3.984299  0
C  C183  1  0.83351068  0.66015742  0.58409021  1  0.626806  0  0.082552  0.129431  0  3.985078  0
C  C184  1  0.10703961  0.38458211  0.28192068  1  0.704616  0  0.091852  0.241623  0  4.129295  0
C  C185  1  0.89296763  0.61543065  0.71808808  1  0.70417  0  0.091935  0.241659  0  4.129427  0
C  C186  1  0.18632413  0.38358731  0.34836710  1  -0.069238  0  -0.03608  -0.084712  0  4.048965  0
C  C187  1  0.81367863  0.61642482  0.65163640  1  -0.069379  0  -0.036034  -0.084659  0  4.049253  0
C  C188  1  0.29041694  0.42925365  0.35229938  1  0.015726  0  -0.106989  -0.140143  0  4.073032  0
C  C189  1  0.70958780  0.57075091  0.64770345  1  0.015601  0  -0.107097  -0.140258  0  4.07339  0
C  C190  1  0.31805048  0.47882021  0.29528104  1  -0.082417  0  -0.119706  -0.113735  0  4.102344  0
C  C191  1  0.68195365  0.52117987  0.70471809  1  -0.082274  0  -0.119737  -0.113788  0  4.102658  0
C  C192  1  0.24102287  0.48333919  0.23103135  1  -0.029848  0  -0.109076  -0.195703  0  4.03819  0
C  C193  1  0.75897660  0.51665563  0.76896789  1  -0.029853  0  -0.109124  -0.19571  0  4.0381  0
C  C194  1  0.13840232  0.43557893  0.22289673  1  0.403789  0  0.070604  0.138219  0  4.026914  0
C  C195  1  0.86160216  0.56442486  0.77710643  1  0.403963  0  0.070556  0.138169  0  4.026662  0
C  C196  1  0.08471350  0.48835004  0.10285404  1  0.35433  0  -0.151428  -0.188571  0  3.906234  0
C  C197  1  0.91529141  0.51164551  0.89714350  1  0.388464  0  -0.151344  -0.188575  0  3.906165  0
C  C198  1  0.07950619  0.05662904  0.27617555  1  0.424763  0  -0.14964  -0.099981  0  3.990595  0
C  C199  1  0.92049169  0.94336963  0.72382042  1  0.42464  0  -0.149634  -0.099983  0  3.99054  0
C  C200  1  0.00081355  0.16763557  0.99451239  1  0.316322  0  -0.149484  -0.121385  0  3.907744  0
C  C201  1  0.99918540  0.83236843  0.00548116  1  0.316844  0  -0.149422  -0.121104  0  3.907646  0
N  N202  1  0.57303096  0.24542982  0.11800722  1  -1.189452  0  -0.40692  -0.368667  0  3.409405  0
N  N203  1  0.42698207  0.75458059  0.88200325  1  -1.189586  0  -0.406917  -0.368842  0  3.409169  0
N  N204  1  0.63467230  0.16505183  0.94366860  1  -1.134895  0  -0.571395  -0.450361  0  3.520263  0
N  N205  1  0.36532649  0.83494366  0.05633600  1  -1.13481  0  -0.571459  -0.450231  0  3.520301  0
N  N206  1  0.70598155  0.99880017  0.92474701  1  -1.190626  0  -0.404195  -0.356181  0  3.410527  0
N  N207  1  0.29401983  0.00119385  0.07525345  1  -1.190456  0  -0.404197  -0.356065  0  3.411237  0
N  N208  1  0.75677284  0.36032322  0.45355528  1  -1.222917  0  -0.412794  -0.365572  0  3.410219  0
N  N209  1  0.24322303  0.63968074  0.54644245  1  -1.222527  0  -0.412682  -0.365528  0  3.409889  0
N  N210  1  0.91021147  0.29178828  0.52371210  1  -1.114486  0  -0.562132  -0.442085  0  3.516933  0
N  N211  1  0.08977806  0.70820062  0.47628447  1  -1.113595  0  -0.562327  -0.442431  0  3.517039  0
N  N212  1  0.07932025  0.31236025  0.43778244  1  -1.206733  0  -0.405123  -0.361188  0  3.434494  0
N  N213  1  0.92067653  0.68765026  0.56223143  1  -1.207571  0  -0.405127  -0.361166  0  3.434816  0
Cl  Cl214  1  0.85308129  0.04813173  0.42028715  1  -0.783537  0  -0.428953  -0.686064  0  0.77889  0
Cl  Cl215  1  0.14691717  0.95185778  0.57971259  1  -0.783495  0  -0.428936  -0.686041  0  0.778876  0
Cl  Cl216  1  0.82929409  0.33989204  0.97282067  1  -0.795972  0  -0.432516  -0.695153  0  0.80792  0
Cl  Cl217  1  0.17071033  0.66009973  0.02717669  1  -0.795973  0  -0.432525  -0.695157  0  0.807944  0
O  O218  1  0.58203775  0.07051202  0.35534422  1  -1.091897  0  -0.235709  -0.193736  0  2.659955  0
O  O219  1  0.41794694  0.92947478  0.64464390  1  -1.091831  0  -0.235756  -0.193828  0  2.6603  0
O  O220  1  0.61138761  0.12437481  0.21485290  1  -1.20318  0  -0.481711  -0.682631  0  2.429966  0
O  O221  1  0.38861056  0.87562528  0.78514882  1  -1.203175  0  -0.481693  -0.682645  0  2.429701  0
O  O222  1  0.71949062  0.99395977  0.10898362  1  -1.218268  0  -0.488677  -0.712518  0  2.408413  0
O  O223  1  0.28051027  0.00604410  0.89101722  1  -1.2182  0  -0.488666  -0.712484  0  2.408484  0
O  O224  1  0.70240900  0.87831253  0.20339759  1  -1.102805  0  -0.237932  -0.190464  0  2.655988  0
O  O225  1  0.29759780  0.12169421  0.79660952  1  -1.102847  0  -0.237837  -0.190352  0  2.65631  0
O  O226  1  0.82154555  0.51401417  0.20291667  1  -1.097494  0  -0.223075  -0.187667  0  2.658688  0
O  O227  1  0.17845153  0.48598448  0.79708115  1  -1.097679  0  -0.2231  -0.18768  0  2.658989  0
O  O228  1  0.83134527  0.41421371  0.30875923  1  -1.209272  0  -0.479303  -0.688397  0  2.406555  0
O  O229  1  0.16865531  0.58579391  0.69124363  1  -1.208951  0  -0.479289  -0.688304  0  2.406494  0
O  O230  1  0.00861410  0.34292355  0.27309460  1  -1.204894  0  -0.48401  -0.714263  0  2.390189  0
O  O231  1  0.99138928  0.65709080  0.72691238  1  -1.20501  0  -0.484072  -0.714296  0  2.390373  0
O  O232  1  0.05909612  0.43484977  0.16123157  1  -1.103873  0  -0.245747  -0.196685  0  2.662503  0
O  O233  1  0.94090811  0.56515099  0.83877172  1  -1.103779  0  -0.245773  -0.196727  0  2.662515  0
O  O234  1  0.97470117  0.05436276  0.25677987  1  -1.182682  0  -0.480005  -0.520547  0  2.348479  0
O  O235  1  0.02529455  0.94563433  0.74322174  1  -1.182662  0  -0.479981  -0.520492  0  2.348395  0
O  O236  1  0.99773238  0.10382505  0.04523055  1  -1.150089  0  -0.470666  -0.508206  0  2.290339  0
O  O237  1  0.00225527  0.89617666  0.95477124  1  -1.150519  0  -0.470669  -0.508205  0  2.290674  0
F  F238  1  0.50000191  0.00000348  0.00000366  1  -0.764631  0  -0.504873  -0.679965  0  1.025674  0
F  F239  1  0.99997794  0.49999647  0.50000966  1  -0.768547  0  -0.504324  -0.68515  0  1.002406  0
F  F240  1  0.84048532  0.19476788  0.30103122  1  -0.784723  0  -0.594456  -0.741518  0  1.018759  0
F  F241  1  0.15951281  0.80523738  0.69897890  1  -0.784757  0  -0.594468  -0.741472  0  1.018721  0
F  F242  1  0.80788549  0.20234601  0.11172950  1  -0.789603  0  -0.585121  -0.735591  0  0.968848  0
F  F243  1  0.19211158  0.79766236  0.88827584  1  -0.78961  0  -0.585103  -0.735549  0  0.968863  0
