# generated using pymatgen
data_ZnH25C34N2ClO6
_symmetry_space_group_name_H-M   'P 1'
_cell_length_a   14.62766755
_cell_length_b   16.04938984
_cell_length_c   27.92025727
_cell_angle_alpha   89.98358088
_cell_angle_beta   90.06520227
_cell_angle_gamma   89.94409461
_symmetry_Int_Tables_number   1
_chemical_formula_structural   ZnH25C34N2ClO6
_chemical_formula_sum   'Zn2 H50 C68 N4 Cl2 O12'
_cell_volume   6554.69544305
_cell_formula_units_Z   2
loop_
 _symmetry_equiv_pos_site_id
 _symmetry_equiv_pos_as_xyz
  1  'x, y, z'
loop_
 _atom_site_type_symbol
 _atom_site_label
 _atom_site_symmetry_multiplicity
 _atom_site_fract_x
 _atom_site_fract_y
 _atom_site_fract_z
 _atom_site_occupancy
 _atom_site_pbe_bader_charge
 _atom_site_pbe_bader_spin_density
 _atom_site_pbe_cm5_charge
 _atom_site_pbe_ddec_charge
 _atom_site_pbe_ddec_spin_density
 _atom_site_pbe_ddec_sum_bond_order
 _atom_site_pbe_magmom
Zn  Zn0  1  0.40665119  0.49936126  0.50027970  1  1.303058  0  0.678492  0.883174  0  2.454407  0
Zn  Zn1  1  0.59463722  0.49956335  0.50018720  1  1.304395  0  0.67701  0.880475  0  2.426812  0
H  H2  1  0.36546773  0.43993322  0.35716522  1  0.089492  0  0.104074  0.108694  0  0.996052  0
H  H3  1  0.34457477  0.43327823  0.26817819  1  0.058588  0  0.106279  0.115  0  0.986743  0
H  H4  1  0.42609539  0.28827592  0.12324197  1  0.094562  0  0.113759  0.120732  0  0.995041  0
H  H5  1  0.35606230  0.47238622  0.64939500  1  0.09429  0  0.103055  0.108107  0  1.004616  0
H  H6  1  0.35082964  0.47404722  0.73960503  1  0.062497  0  0.104797  0.110007  0  0.985466  0
H  H7  1  0.54170732  0.30191223  0.88109824  1  0.128839  0  0.115186  0.121323  0  0.97946  0
H  H8  1  0.51512594  0.29538673  0.96862714  1  0.03812  0  0.108604  0.109173  0  1.011511  0
H  H9  1  0.60252718  0.55653189  0.25017795  1  0.072466  0  0.103788  0.112392  0  1.016423  0
H  H10  1  0.43911588  0.70451313  0.12296028  1  0.117927  0  0.115354  0.121424  0  0.982215  0
H  H11  1  0.39190589  0.70218440  0.96500191  1  0.055533  0  0.106834  0.106581  0  1.00324  0
H  H12  1  0.64124876  0.53011623  0.65405715  1  0.095855  0  0.101626  0.10642  0  1.029164  0
H  H13  1  0.40417906  0.70105288  0.87639531  1  0.113577  0  0.115113  0.120958  0  0.980207  0
H  H14  1  0.42760086  0.70628122  0.03434296  1  0.066242  0  0.106214  0.104951  0  1.005285  0
H  H15  1  0.39707613  0.92647539  0.55542763  1  0.03028  0  0.092409  0.090512  0  0.97884  0
H  H16  1  0.56889735  0.92576747  0.56824967  1  0.016107  0  0.0927  0.090734  0  0.978568  0
H  H17  1  0.39721568  0.07243307  0.55573283  1  0.055183  0  0.092027  0.089651  0  0.978589  0
H  H18  1  0.56940265  0.07166088  0.56857785  1  0.045871  0  0.093041  0.091483  0  0.977977  0
H  H19  1  0.64350548  0.07184702  0.51874583  1  0.056859  0  0.091404  0.088417  0  0.982479  0
H  H20  1  0.35239079  0.07304432  0.49701153  1  0.036596  0  0.091455  0.088317  0  0.98154  0
H  H21  1  0.64313082  0.92580465  0.51844429  1  0.023467  0  0.090918  0.08737  0  0.982833  0
H  H22  1  0.35195312  0.92698572  0.49677438  1  0.038965  0  0.09138  0.088361  0  0.982002  0
H  H23  1  0.45902874  0.07308698  0.42564595  1  0.023762  0  0.094033  0.092366  0  0.976952  0
H  H24  1  0.57851222  0.07288237  0.43446748  1  0.031311  0  0.092888  0.090365  0  0.978968  0
H  H25  1  0.45925526  0.92724278  0.42513846  1  0.018714  0  0.093866  0.092353  0  0.97686  0
H  H26  1  0.57864439  0.92699805  0.43431482  1  0.030918  0  0.092541  0.0899  0  0.979943  0
H  H27  1  0.08033392  0.37055147  0.51940220  1  0.058975  0  0.109598  0.116405  0  0.95414  0
H  H28  1  0.92002534  0.36979224  0.51780240  1  0.047626  0  0.110482  0.118103  0  0.9531  0
H  H29  1  0.92029187  0.59763391  0.54985510  1  0.043871  0  0.109416  0.113366  0  0.959383  0
H  H30  1  0.08026374  0.59886418  0.54908638  1  0.026566  0  0.109666  0.113803  0  0.957889  0
H  H31  1  0.92141189  0.49578237  0.57373670  1  0.072459  0  0.112562  0.119703  0  0.953542  0
H  H32  1  0.08122678  0.49771480  0.57390482  1  0.074806  0  0.112692  0.119724  0  0.952791  0
H  H33  1  0.92464379  0.62062083  0.46283169  1  0.133922  0  0.118056  0.101754  0  0.94308  0
H  H34  1  0.07883076  0.61936796  0.46137486  1  0.07301  0  0.118652  0.102571  0  0.941247  0
H  H35  1  0.92192567  0.38519892  0.45509264  1  0.07639  0  0.104613  0.113847  0  0.976395  0
H  H36  1  0.08123101  0.38352662  0.45650948  1  0.051529  0  0.104478  0.114487  0  0.976671  0
H  H37  1  0.76791244  0.50290862  0.70216044  1  0.026858  0  0.085452  0.109966  0  1.005275  0
H  H38  1  0.74001440  0.61071221  0.70205985  1  0.023466  0  0.087106  0.113578  0  1.000286  0
H  H39  1  0.80568492  0.56792293  0.74962830  1  0.046755  0  0.085688  0.110439  0  1.005473  0
H  H40  1  0.64653328  0.58976336  0.77745310  1  0.01882  0  0.09461  0.09116  0  0.971336  0
H  H41  1  0.67385111  0.48301702  0.77702768  1  0.039943  0  0.095153  0.094214  0  0.975774  0
H  H42  1  0.32032366  0.21014501  0.09080612  1  0.044126  0  0.090093  0.116934  0  1.008724  0
H  H43  1  0.25360853  0.26547014  0.04823249  1  0.03422  0  0.089275  0.117388  0  0.994898  0
H  H44  1  0.29455569  0.16382645  0.03479685  1  0.026593  0  0.090942  0.118804  0  0.994938  0
H  H45  1  0.38539516  0.26831990  0.99122955  1  0.018285  0  0.093973  0.089902  0  1.007143  0
H  H46  1  0.45495981  0.21501514  0.03270919  1  0.026462  0  0.097599  0.093819  0  0.962767  0
H  H47  1  0.74090409  0.57623640  0.28196801  1  0.015194  0  0.081046  0.104452  0  1.010398  0
H  H48  1  0.67518367  0.66818545  0.29074030  1  0.012582  0  0.086771  0.116085  0  0.998136  0
H  H49  1  0.77015627  0.64647274  0.32837886  1  0.006309  0  0.078141  0.103116  0  1.022348  0
H  H50  1  0.63038187  0.61448837  0.37365030  1  0.055576  0  0.098385  0.106051  0  0.960387  0
H  H51  1  0.69048983  0.52296849  0.36325517  1  0.05229  0  0.087703  0.092013  0  0.99804  0
C  C52  1  0.49878226  0.33739902  0.50000059  1  1.640684  0  0.21568  0.679848  0  4.231828  0
C  C53  1  0.50161691  0.49978481  0.40713117  1  1.553223  0  0.216909  0.601498  0  4.164357  0
C  C54  1  0.49886499  0.66163587  0.49980382  1  1.614525  0  0.215095  0.679327  0  4.233133  0
C  C55  1  0.50236215  0.50012808  0.59333892  1  1.567667  0  0.21463  0.595096  0  4.166802  0
C  C56  1  0.45614067  0.41678571  0.17986070  1  1.323759  0  0.239622  0.432653  0  4.098723  0
C  C57  1  0.45240088  0.57286248  0.18034840  1  1.342271  0  0.240616  0.431958  0  4.100897  0
C  C58  1  0.55200909  0.52966171  0.27424355  1  0.045787  0  -0.091292  -0.214055  0  3.940722  0
C  C59  1  0.56600960  0.53223318  0.32384905  1  -0.012858  0  0.004786  0.125845  0  3.889037  0
C  C60  1  0.41768868  0.46425026  0.33316798  1  -0.048217  0  -0.084179  -0.07709  0  4.002361  0
C  C61  1  0.40553187  0.46111496  0.28382101  1  0.052917  0  -0.093195  -0.165206  0  4.012842  0
C  C62  1  0.47318471  0.49468738  0.25464399  1  0.246973  0  0.084954  0.194884  0  4.033391  0
C  C63  1  0.44246711  0.49557513  0.10207017  1  0.019898  0  -0.000714  0.027772  0  4.029198  0
C  C64  1  0.44380140  0.41911420  0.12724468  1  0.028915  0  -0.013176  -0.067519  0  4.028754  0
C  C65  1  0.43097914  0.34552537  0.10235911  1  -0.06107  0  -0.069323  -0.1247  0  3.929463  0
C  C66  1  0.44415246  0.57166370  0.12750936  1  0.002754  0  -0.011367  -0.068129  0  4.004407  0
C  C67  1  0.49664600  0.49889196  0.35341951  1  0.00985  0  -0.012442  -0.081281  0  3.911119  0
C  C68  1  0.49938564  0.50115586  0.64706434  1  -0.027319  0  -0.015453  -0.02058  0  3.967794  0
C  C69  1  0.46054000  0.41994632  0.97451219  1  -0.094717  0  0.005128  0.046982  0  3.976665  0
C  C70  1  0.42844944  0.57254540  0.97388128  1  -0.093782  0  0.00353  0.04108  0  3.982502  0
C  C71  1  0.44896601  0.49685987  0.94924138  1  0.036753  0  0.003386  0.000393  0  3.915178  0
C  C72  1  0.49683849  0.35188943  0.94938043  1  0.042489  0  -0.082729  -0.128791  0  3.978934  0
C  C73  1  0.51342851  0.35534417  0.90011054  1  -0.072046  0  -0.07113  -0.070523  0  3.9745  0
C  C74  1  0.49371731  0.42701727  0.87422029  1  -0.019256  0  -0.014291  -0.074923  0  4.006704  0
C  C75  1  0.46195739  0.49893323  0.89849947  1  0.007895  0  0.002473  0.036531  0  4.004243  0
C  C76  1  0.44542171  0.57349914  0.87276284  1  -0.009924  0  -0.013831  -0.075863  0  4.007405  0
C  C77  1  0.45730623  0.57679595  0.82020423  1  1.359987  0  0.238782  0.43452  0  4.112965  0
C  C78  1  0.50911437  0.42803086  0.82190908  1  1.332323  0  0.239625  0.434956  0  4.113913  0
C  C79  1  0.41425714  0.48621585  0.72037930  1  -0.03555  0  -0.088729  -0.150988  0  4.012377  0
C  C80  1  0.41687891  0.48532223  0.67060545  1  0.027919  0  -0.085355  -0.086575  0  3.992849  0
C  C81  1  0.57840970  0.51793718  0.67370726  1  -0.045627  0  -0.083156  -0.138809  0  3.924013  0
C  C82  1  0.57742496  0.51926392  0.72377995  1  0.052863  0  -0.00091  0.058019  0  3.911858  0
C  C83  1  0.49355011  0.50288055  0.74627969  1  0.263177  0  0.08812  0.140548  0  3.986851  0
C  C84  1  0.44087683  0.41685332  0.02587342  1  -0.015675  0  0.00445  -0.018739  0  3.920747  0
C  C85  1  0.43924692  0.49487869  0.05100630  1  -0.02002  0  0.002882  0.00473  0  3.931935  0
C  C86  1  0.43271328  0.57256914  0.02614538  1  0.014862  0  0.002279  0.036645  0  3.981178  0
C  C87  1  0.42552874  0.34258018  0.05196439  1  0.023377  0  0.004405  0.086486  0  3.879963  0
C  C88  1  0.43829248  0.64652711  0.10265076  1  -0.049444  0  -0.071639  -0.073814  0  3.980466  0
C  C89  1  0.41077456  0.64449549  0.94698338  1  -0.008677  0  -0.083552  -0.126307  0  3.976658  0
C  C90  1  0.41787272  0.64478863  0.89710055  1  -0.029369  0  -0.070271  -0.069094  0  3.978051  0
C  C91  1  0.43182130  0.64658808  0.05277123  1  -0.027404  0  -0.082616  -0.121795  0  3.977736  0
C  C92  1  0.40774759  0.04787938  0.51941043  1  -0.11924  0  -0.154716  -0.184344  0  3.852812  0
C  C93  1  0.57829883  0.04715373  0.53213000  1  -0.110956  0  -0.154706  -0.185605  0  3.854968  0
C  C94  1  0.57805518  0.95075117  0.53191851  1  0.024926  0  -0.154154  -0.18349  0  3.852449  0
C  C95  1  0.40756271  0.95149613  0.51920116  1  0.019956  0  -0.155363  -0.185881  0  3.85606  0
C  C96  1  0.49925784  0.75173003  0.49921859  1  0.142081  0  -0.066168  -0.219513  0  4.009465  0
C  C97  1  0.50005638  0.08116203  0.50016613  1  0.148633  0  -0.001066  0.170563  0  3.903203  0
C  C98  1  0.49959237  0.91788797  0.49972153  1  0.166792  0  -0.000833  0.170276  0  3.904394  0
C  C99  1  0.51383121  0.95169805  0.44825028  1  0.060024  0  -0.152571  -0.181959  0  3.846258  0
C  C100  1  0.51382870  0.04813180  0.44847402  1  -0.089937  0  -0.151664  -0.18081  0  3.844183  0
C  C101  1  0.49959486  0.82746549  0.49932725  1  -0.443863  0  -0.032812  -0.056218  0  4.059733  0
C  C102  1  0.50019842  0.17158920  0.50007993  1  -0.474416  0  -0.032835  -0.057  0  4.057806  0
C  C103  1  0.49986311  0.24731185  0.50001374  1  0.168217  0  -0.065505  -0.217203  0  4.007523  0
C  C104  1  0.94807515  0.40916679  0.48923885  1  -0.054648  0  -0.146835  -0.187446  0  3.834663  0
C  C105  1  0.05367138  0.40891771  0.48997565  1  0.038866  0  -0.147176  -0.186708  0  3.835537  0
C  C106  1  0.94803107  0.53468349  0.54458336  1  -0.071631  0  -0.142134  -0.187533  0  3.844274  0
C  C107  1  0.05355441  0.53543451  0.54445269  1  0.044196  0  -0.141885  -0.186527  0  3.842083  0
C  C108  1  0.91265168  0.49918630  0.49635398  1  0.139575  0  0.010816  0.076045  0  3.911761  0
C  C109  1  0.08897616  0.49903559  0.49649154  1  0.165771  0  0.010592  0.07561  0  3.911401  0
C  C110  1  0.05461706  0.55565810  0.45499834  1  0.175911  0  -0.03591  0.012479  0  3.744296  0
C  C111  1  0.94720077  0.55671545  0.45538020  1  0.033329  0  -0.035478  0.004257  0  3.7544  0
C  C112  1  0.18814517  0.49929651  0.49746524  1  0.833119  0  0.235987  0.281539  0  3.887988  0
C  C113  1  0.81342727  0.49945675  0.49718935  1  0.864387  0  0.236102  0.281076  0  3.884735  0
C  C114  1  0.66169384  0.53700643  0.75342182  1  0.022502  0  -0.157751  -0.133712  0  3.981795  0
C  C115  1  0.74849090  0.55569215  0.72510730  1  -0.092672  0  -0.242798  -0.349426  0  3.992559  0
C  C116  1  0.39827295  0.26013779  0.02961726  1  0.003237  0  -0.158523  -0.149731  0  3.977684  0
C  C117  1  0.31196935  0.22291089  0.05242757  1  -0.070838  0  -0.239128  -0.348539  0  3.956742  0
C  C118  1  0.65113820  0.57181976  0.34473886  1  -0.009489  0  -0.162579  -0.146403  0  3.972906  0
C  C119  1  0.71228702  0.61805913  0.30933665  1  -0.036668  0  -0.248365  -0.352359  0  4.001634  0
N  N120  1  0.46112855  0.49466462  0.20327987  1  -1.183006  0  -0.228151  -0.203248  0  3.553626  0
N  N121  1  0.48701897  0.50269619  0.79800020  1  -1.208716  0  -0.232937  -0.223957  0  3.611664  0
N  N122  1  0.26706427  0.49938450  0.50013796  1  -1.121693  0  -0.271206  -0.270279  0  3.120394  0
N  N123  1  0.73449615  0.49931491  0.49978626  1  -1.112327  0  -0.270603  -0.270114  0  3.114889  0
Cl  Cl124  1  0.89456865  0.52994578  0.40011919  1  -0.192978  0  -0.001495  -0.080114  0  1.474475  0
Cl  Cl125  1  0.10520671  0.52519636  0.39989194  1  -0.195686  0  -0.014519  -0.091265  0  1.425695  0
O  O126  1  0.42216930  0.37218740  0.49141884  1  -1.138102  0  -0.322426  -0.553946  0  2.241196  0
O  O127  1  0.57461026  0.37362903  0.50865563  1  -1.145485  0  -0.322363  -0.55597  0  2.249401  0
O  O128  1  0.42637488  0.51401469  0.42867755  1  -1.156491  0  -0.320913  -0.556375  0  2.326142  0
O  O129  1  0.57826826  0.48547074  0.42717273  1  -1.151381  0  -0.312276  -0.546986  0  2.316092  0
O  O130  1  0.42280842  0.62653946  0.50896723  1  -1.142654  0  -0.321632  -0.552343  0  2.240951  0
O  O131  1  0.57495196  0.62570798  0.49115076  1  -1.14755  0  -0.322669  -0.559575  0  2.253863  0
O  O132  1  0.42729310  0.48431398  0.57193807  1  -1.159268  0  -0.320783  -0.555871  0  2.331029  0
O  O133  1  0.57869241  0.51494917  0.57313907  1  -1.158222  0  -0.320452  -0.551681  0  2.298939  0
O  O134  1  0.46264399  0.35106702  0.20231505  1  -1.09675  0  -0.28356  -0.44128  0  2.069695  0
O  O135  1  0.53923076  0.36772410  0.79966194  1  -1.103682  0  -0.286202  -0.44807  0  2.063184  0
O  O136  1  0.45279072  0.63805854  0.20350257  1  -1.109845  0  -0.281942  -0.439578  0  2.070029  0
O  O137  1  0.44258838  0.63997454  0.79639635  1  -1.103351  0  -0.287408  -0.446701  0  2.058549  0
