# generated using pymatgen
data_ZnH22C26(NO2)2
_symmetry_space_group_name_H-M   'P 1'
_cell_length_a   10.29779465
_cell_length_b   10.44313826
_cell_length_c   11.98970453
_cell_angle_alpha   94.85534438
_cell_angle_beta   95.26493888
_cell_angle_gamma   109.44708372
_symmetry_Int_Tables_number   1
_chemical_formula_structural   ZnH22C26(NO2)2
_chemical_formula_sum   'Zn2 H44 C52 N4 O8'
_cell_volume   1201.55343372
_cell_formula_units_Z   2
loop_
 _symmetry_equiv_pos_site_id
 _symmetry_equiv_pos_as_xyz
  1  'x, y, z'
loop_
 _atom_site_type_symbol
 _atom_site_label
 _atom_site_symmetry_multiplicity
 _atom_site_fract_x
 _atom_site_fract_y
 _atom_site_fract_z
 _atom_site_occupancy
 _atom_site_hle17_bader_spin_density
 _atom_site_hle17_ddec_charge
 _atom_site_hle17_ddec_spin_density
 _atom_site_hle17_ddec_sum_bond_order
 _atom_site_hle17_magmom
 _atom_site_hse06_10hf_bader_spin_density
 _atom_site_hse06_10hf_ddec_charge
 _atom_site_hse06_10hf_ddec_spin_density
 _atom_site_hse06_10hf_ddec_sum_bond_order
 _atom_site_hse06_10hf_magmom
 _atom_site_hse06_bader_spin_density
 _atom_site_hse06_ddec_charge
 _atom_site_hse06_ddec_spin_density
 _atom_site_hse06_ddec_sum_bond_order
 _atom_site_hse06_magmom
 _atom_site_pbe_bader_charge
 _atom_site_pbe_bader_spin_density
 _atom_site_pbe_cm5_charge
 _atom_site_pbe_ddec_charge
 _atom_site_pbe_ddec_spin_density
 _atom_site_pbe_ddec_sum_bond_order
 _atom_site_pbe_magmom
Zn  Zn0  1  0.94385599  0.05437646  0.74640807  1  0  0.973373  0  1.888105  0  0  0.778953  0  2.366742  0  0  0.829749  0  2.309947  0  1.251031  0  0.67985  0.743559  0  2.405147  0
Zn  Zn1  1  0.05611672  0.94562656  0.25360627  1  0  0.973362  0  1.888182  0  0  0.778963  0  2.366842  0  0  0.829749  0  2.310039  0  1.250649  0  0.679827  0.743567  0  2.405244  0
H  H2  1  0.74081914  0.74879713  0.44908574  1  0  0.111001  0  0.949124  0  0  0.119879  0  1.011933  0  0  0.123411  0  1.009218  0  0.124409  0  0.102388  0.117389  0  1.013883  0
H  H3  1  0.25089218  0.25751241  0.04489197  1  0  0.110034  0  0.945917  0  0  0.119163  0  1.007926  0  0  0.122741  0  1.005083  0  0.124281  0  0.102799  0.116623  0  1.00996  0
H  H4  1  0.25918346  0.25121012  0.55094351  1  0  0.111124  0  0.949083  0  0  0.119909  0  1.011996  0  0  0.123441  0  1.009279  0  0.123579  0  0.102425  0.117416  0  1.013952  0
H  H5  1  0.74911068  0.74251386  0.95509443  1  0  0.110008  0  0.945805  0  0  0.119069  0  1.007929  0  0  0.122651  0  1.005078  0  0.124175  0  0.102763  0.116525  0  1.009969  0
H  H6  1  0.62418650  0.52699782  0.32998853  1  0  0.085277  0  0.96302  0  0  0.098099  0  1.023988  0  0  0.100549  0  1.023698  0  0.050238  0  0.095699  0.096494  0  1.024229  0
H  H7  1  0.47388437  0.37608068  0.16639629  1  0  0.085928  0  0.963517  0  0  0.098973  0  1.023926  0  0  0.101586  0  1.023439  0  0.019068  0  0.096079  0.097207  0  1.024362  0
H  H8  1  0.37585279  0.47302346  0.67001176  1  0  0.085309  0  0.962945  0  0  0.098057  0  1.023988  0  0  0.100504  0  1.023699  0  0.050115  0  0.095697  0.09645  0  1.024238  0
H  H9  1  0.52611932  0.62393426  0.83358103  1  0  0.08586  0  0.963309  0  0  0.099  0  1.023645  0  0  0.10161  0  1.023155  0  0.061975  0  0.096142  0.097236  0  1.024079  0
H  H10  1  0.51234426  0.18688729  0.44204563  1  0  0.107581  0  0.938658  0  0  0.130535  0  0.995347  0  0  0.132263  0  0.994362  0  0.034432  0  0.091712  0.129264  0  0.996068  0
H  H11  1  0.82206416  0.48671628  0.05964641  1  0  0.104984  0  0.940324  0  0  0.128029  0  0.996924  0  0  0.129737  0  0.995956  0  0.052938  0  0.090944  0.126783  0  0.997594  0
H  H12  1  0.48773544  0.81310515  0.55793212  1  0  0.107375  0  0.938741  0  0  0.130376  0  0.995402  0  0  0.132105  0  0.994414  0  0.033934  0  0.091681  0.129112  0  0.996116  0
H  H13  1  0.17793239  0.51327818  0.94032730  1  0  0.105068  0  0.940093  0  0  0.128133  0  0.996681  0  0  0.129844  0  0.995712  0  0.053067  0  0.090925  0.126886  0  0.997352  0
H  H14  1  0.64306900  0.24281920  0.35240333  1  0  0.097311  0  0.950234  0  0  0.119712  0  1.012265  0  0  0.120672  0  1.012489  0  0.020885  0  0.08572  0.119028  0  1.012068  0
H  H15  1  0.76171103  0.36209025  0.15269895  1  0  0.097624  0  0.94521  0  0  0.119829  0  1.007176  0  0  0.120884  0  1.007211  0  0.026971  0  0.086457  0.119127  0  1.00704  0
H  H16  1  0.35697315  0.75720063  0.64755118  1  0  0.0973  0  0.949887  0  0  0.119564  0  1.01208  0  0  0.120522  0  1.012305  0  0.0213  0  0.085706  0.118882  0  1.011887  0
H  H17  1  0.23829552  0.63790215  0.84727365  1  0  0.097654  0  0.945289  0  0  0.119902  0  1.007203  0  0  0.120958  0  1.007238  0  0.017389  0  0.086477  0.119199  0  1.007068  0
H  H18  1  0.48417456  0.27274800  0.32530611  1  0  0.106312  0  0.966414  0  0  0.124574  0  1.034337  0  0  0.125431  0  1.035354  0  0.058327  0  0.089313  0.123977  0  1.033544  0
H  H19  1  0.73207476  0.51968448  0.17215320  1  0  0.105466  0  0.966695  0  0  0.123878  0  1.034788  0  0  0.124734  0  1.035858  0  0.053959  0  0.089289  0.123276  0  1.03398  0
H  H20  1  0.51584783  0.72724155  0.67468909  1  0  0.106229  0  0.966469  0  0  0.124457  0  1.034422  0  0  0.125312  0  1.035442  0  0.057965  0  0.089266  0.123861  0  1.033629  0
H  H21  1  0.26792528  0.48030590  0.82782297  1  0  0.105705  0  0.966523  0  0  0.124095  0  1.034601  0  0  0.124951  0  1.035676  0  0.053503  0  0.089382  0.123494  0  1.033793  0
H  H22  1  0.63230269  0.31414770  0.62107262  1  0  0.08328  0  0.951996  0  0  0.098443  0  1.006656  0  0  0.101048  0  1.006133  0  0.040751  0  0.095132  0.096593  0  1.007355  0
H  H23  1  0.69560803  0.37057962  0.87975922  1  0  0.084029  0  0.950165  0  0  0.098283  0  1.005766  0  0  0.100915  0  1.005279  0  0.045223  0  0.094712  0.096413  0  1.006402  0
H  H24  1  0.36772835  0.68582530  0.37890284  1  0  0.083343  0  0.951897  0  0  0.098458  0  1.006599  0  0  0.101081  0  1.006059  0  0.040833  0  0.095198  0.096615  0  1.0073  0
H  H25  1  0.30437897  0.62939848  0.12021516  1  0  0.083902  0  0.950239  0  0  0.098139  0  1.005888  0  0  0.100769  0  1.005405  0  0.064223  0  0.094641  0.0963  0  1.00649  0
H  H26  1  0.74884983  0.53876268  0.74138616  1  0  0.089616  0  0.960425  0  0  0.099065  0  1.024822  0  0  0.102408  0  1.022261  0  0.056813  0  0.097814  0.096674  0  1.026556  0
H  H27  1  0.46940236  0.25188260  0.75697218  1  0  0.090168  0  0.960741  0  0  0.099092  0  1.025736  0  0  0.102508  0  1.023057  0  0.098635  0  0.098127  0.096689  0  1.027502  0
H  H28  1  0.25114905  0.46119828  0.25861288  1  0  0.089687  0  0.960241  0  0  0.099145  0  1.024632  0  0  0.102489  0  1.022064  0  0.057024  0  0.097845  0.096729  0  1.026391  0
H  H29  1  0.53057547  0.74812518  0.24300532  1  0  0.090201  0  0.960671  0  0  0.0991  0  1.025697  0  0  0.102514  0  1.023017  0  0.098868  0  0.098158  0.096697  0  1.027461  0
H  H30  1  0.64396122  0.00543559  0.69890354  1  0  0.079608  0  0.931405  0  0  0.09032  0  0.990142  0  0  0.092799  0  0.988253  0  0.081889  0  0.120633  0.088488  0  0.991547  0
H  H31  1  0.99407551  0.34742632  0.79732132  1  0  0.07997  0  0.93427  0  0  0.09003  0  0.994232  0  0  0.092551  0  0.992265  0  0.059368  0  0.120266  0.088219  0  0.995582  0
H  H32  1  0.35605201  0.99452361  0.30112558  1  0  0.079592  0  0.93132  0  0  0.090121  0  0.990211  0  0  0.092596  0  0.988333  0  0.081157  0  0.120534  0.08829  0  0.991614  0
H  H33  1  0.00588720  0.65257352  0.20268208  1  0  0.080112  0  0.934106  0  0  0.090106  0  0.99413  0  0  0.092629  0  0.992162  0  0.059433  0  0.120263  0.088294  0  0.99548  0
H  H34  1  0.43913052  0.97043720  0.80045571  1  0  0.108744  0  0.951364  0  0  0.120163  0  1.008256  0  0  0.123468  0  1.006755  0  0.068285  0  0.11306  0.118194  0  1.008667  0
H  H35  1  0.03007411  0.55331845  0.69978862  1  0  0.107204  0  0.95426  0  0  0.119177  0  1.01053  0  0  0.122342  0  1.009193  0  0.072959  0  0.112963  0.117281  0  1.010903  0
H  H36  1  0.56087380  0.02957290  0.19955134  1  0  0.108761  0  0.95123  0  0  0.120208  0  1.008115  0  0  0.123489  0  1.006641  0  0.068342  0  0.113033  0.118236  0  1.008525  0
H  H37  1  0.96993209  0.44668037  0.30021443  1  0  0.107197  0  0.954201  0  0  0.119212  0  1.010417  0  0  0.122379  0  1.009075  0  0.072649  0  0.113015  0.117295  0  1.010814  0
H  H38  1  0.72062331  0.06680677  0.11220688  1  0  0.108568  0  0.950949  0  0  0.121574  0  1.005181  0  0  0.124496  0  1.004312  0  0.082904  0  0.113878  0.119644  0  1.005668  0
H  H39  1  0.93249170  0.28563370  0.38392232  1  0  0.107991  0  0.950043  0  0  0.120124  0  1.005711  0  0  0.123099  0  1.004739  0  0.102395  0  0.113306  0.118254  0  1.006129  0
H  H40  1  0.27934744  0.93321271  0.88781849  1  0  0.10874  0  0.9509  0  0  0.12169  0  1.005148  0  0  0.124605  0  1.004291  0  0.083304  0  0.113956  0.11976  0  1.005635  0
H  H41  1  0.06752907  0.71437333  0.61608317  1  0  0.10797  0  0.950016  0  0  0.120188  0  1.005525  0  0  0.123169  0  1.004535  0  0.102588  0  0.113331  0.118315  0  1.005951  0
H  H42  1  0.91320350  0.10050679  0.99670698  1  0  0.106234  0  0.914661  0  0  0.115583  0  0.972188  0  0  0.118646  0  0.969283  0  0.151432  0  0.129035  0.113541  0  0.973769  0
H  H43  1  0.89750587  0.09136108  0.49544724  1  0  0.106511  0  0.914969  0  0  0.115592  0  0.972931  0  0  0.118636  0  0.970037  0  0.173473  0  0.128891  0.113544  0  0.974585  0
H  H44  1  0.08678896  0.89953535  0.00333653  1  0  0.10608  0  0.914921  0  0  0.115544  0  0.972323  0  0  0.118613  0  0.969423  0  0.151153  0  0.128976  0.113497  0  0.973909  0
H  H45  1  0.10245491  0.90863877  0.50455686  1  0  0.106534  0  0.914915  0  0  0.115773  0  0.972712  0  0  0.118838  0  0.969823  0  0.173486  0  0.128942  0.113706  0  0.974379  0
C  C46  1  0.83456472  0.78848125  0.67589800  1  0  0.618788  0  3.950967  0  0  0.572071  0  4.242574  0  0  0.605803  0  4.237078  0  1.507966  0  0.18814  0.54946  0  4.244946  0
C  C47  1  0.21492817  0.16346652  0.81909234  1  0  0.618806  0  3.953927  0  0  0.572449  0  4.245489  0  0  0.606235  0  4.239825  0  1.521266  0  0.188757  0.54983  0  4.247946  0
C  C48  1  0.16540673  0.21149228  0.32413252  1  0  0.618833  0  3.950891  0  0  0.572088  0  4.242514  0  0  0.605819  0  4.237029  0  1.509113  0  0.188242  0.549496  0  4.24488  0
C  C49  1  0.78505353  0.83654647  0.18089497  1  0  0.618883  0  3.953643  0  0  0.57246  0  4.245293  0  0  0.606242  0  4.239628  0  1.520876  0  0.188802  0.549841  0  4.247749  0
C  C50  1  0.75459716  0.65706074  0.60301422  1  0  -0.085267  0  3.785353  0  0  -0.059853  0  4.015769  0  0  -0.069938  0  4.04119  0  -0.011332  0  -0.028401  -0.053255  0  3.99862  0
C  C51  1  0.34691389  0.24490994  0.89304305  1  0  -0.086254  0  3.784268  0  0  -0.061286  0  4.01512  0  0  -0.071443  0  4.040509  0  -0.045636  0  -0.028686  -0.054673  0  3.997913  0
C  C52  1  0.24540529  0.34292693  0.39699863  1  0  -0.085174  0  3.785123  0  0  -0.059744  0  4.015504  0  0  -0.069832  0  4.040928  0  -0.011619  0  -0.028443  -0.053203  0  3.998422  0
C  C53  1  0.65307326  0.75510199  0.10694123  1  0  -0.086381  0  3.784535  0  0  -0.061383  0  4.015318  0  0  -0.071538  0  4.040702  0  -0.045593  0  -0.028776  -0.054773  0  3.998114  0
C  C54  1  0.71702885  0.65352280  0.48696100  1  0  -0.059507  0  3.726535  0  0  -0.084592  0  3.974815  0  0  -0.083141  0  3.995152  0  -0.019708  0  -0.085426  -0.085288  0  3.96239  0
C  C55  1  0.34830490  0.28234694  0.00853344  1  0  -0.057928  0  3.726354  0  0  -0.082715  0  3.975048  0  0  -0.08106  0  3.995213  0  -0.023552  0  -0.085265  -0.0836  0  3.962577  0
C  C56  1  0.28298353  0.34647101  0.51305298  1  0  -0.059736  0  3.726499  0  0  -0.084758  0  3.974768  0  0  -0.08331  0  3.995105  0  -0.018784  0  -0.085435  -0.085435  0  3.962358  0
C  C57  1  0.65168920  0.71767110  0.99144842  1  0  -0.057839  0  3.726194  0  0  -0.082551  0  3.974846  0  0  -0.080898  0  3.99501  0  -0.023882  0  -0.085202  -0.083431  0  3.962371  0
C  C58  1  0.65293532  0.52840467  0.42009457  1  0  -0.131993  0  3.731444  0  0  -0.149384  0  3.976714  0  0  -0.154679  0  3.999597  0  -0.017274  0  -0.095495  -0.146589  0  3.963168  0
C  C59  1  0.47416274  0.34757485  0.07677536  1  0  -0.132353  0  3.729643  0  0  -0.15004  0  3.975464  0  0  -0.155501  0  3.998307  0  -0.071421  0  -0.094873  -0.147052  0  3.961772  0
C  C60  1  0.34709959  0.47159825  0.57990912  1  0  -0.131839  0  3.731311  0  0  -0.14921  0  3.976522  0  0  -0.154481  0  3.99942  0  -0.017441  0  -0.095492  -0.14643  0  3.962959  0
C  C61  1  0.52583819  0.65244019  0.92321261  1  0  -0.132166  0  3.729506  0  0  -0.150075  0  3.9752  0  0  -0.155531  0  3.998051  0  -0.113808  0  -0.094879  -0.14709  0  3.9615  0
C  C62  1  0.62400923  0.40438910  0.46645635  1  0  0.150135  0  3.752288  0  0  0.177943  0  3.983211  0  0  0.180342  0  4.00791  0  -0.049895  0  -0.007344  0.176287  0  3.968137  0
C  C63  1  0.60099451  0.37768311  0.03234303  1  0  0.150563  0  3.752731  0  0  0.177655  0  3.984802  0  0  0.180126  0  4.009545  0  0.047187  0  -0.007683  0.175956  0  3.969423  0
C  C64  1  0.37603448  0.59561163  0.53353196  1  0  0.149745  0  3.752485  0  0  0.177737  0  3.983164  0  0  0.180077  0  4.007939  0  -0.049266  0  -0.007386  0.176126  0  3.968034  0
C  C65  1  0.39900962  0.62231342  0.96763386  1  0  0.150402  0  3.752865  0  0  0.177866  0  3.984452  0  0  0.180337  0  4.00919  0  0.046082  0  -0.007717  0.176166  0  3.969082  0
C  C66  1  0.56211825  0.26968840  0.39285083  1  0  -0.336974  0  3.749163  0  0  -0.420221  0  3.989211  0  0  -0.422563  0  3.999293  0  -0.066674  0  -0.240322  -0.418436  0  3.982452  0
C  C67  1  0.73633875  0.44038120  0.10791984  1  0  -0.333003  0  3.747214  0  0  -0.415246  0  3.986445  0  0  -0.417543  0  3.996366  0  -0.099089  0  -0.238933  -0.413464  0  3.979663  0
C  C68  1  0.43792852  0.73031020  0.60712837  1  0  -0.336562  0  3.749069  0  0  -0.419747  0  3.989167  0  0  -0.422068  0  3.999267  0  -0.065864  0  -0.240241  -0.417986  0  3.982395  0
C  C69  1  0.26365832  0.55960915  0.89205278  1  0  -0.333281  0  3.746827  0  0  -0.415678  0  3.986046  0  0  -0.417982  0  3.99597  0  -0.088978  0  -0.238969  -0.413896  0  3.979266  0
C  C70  1  0.65665835  0.40953764  0.58320772  1  0  -0.140367  0  3.765467  0  0  -0.158792  0  4.01125  0  0  -0.164485  0  4.034984  0  -0.097735  0  -0.099484  -0.155375  0  3.996586  0
C  C71  1  0.59796397  0.34533258  0.91606245  1  0  -0.142979  0  3.764562  0  0  -0.160706  0  4.010298  0  0  -0.16651  0  4.034082  0  -0.087568  0  -0.099915  -0.157129  0  3.995405  0
C  C72  1  0.34337267  0.59044058  0.41677895  1  0  -0.140335  0  3.765539  0  0  -0.158803  0  4.011373  0  0  -0.164495  0  4.035115  0  -0.098235  0  -0.099558  -0.155409  0  3.996698  0
C  C73  1  0.40202656  0.65465574  0.08391123  1  0  -0.142835  0  3.764842  0  0  -0.160677  0  4.010508  0  0  -0.166476  0  4.034286  0  -0.10623  0  -0.099912  -0.157128  0  3.995607  0
C  C74  1  0.72133561  0.53402635  0.65074991  1  0  -0.076642  0  3.78079  0  0  -0.101469  0  4.033715  0  0  -0.100558  0  4.055065  0  -0.023611  0  -0.091571  -0.101488  0  4.018918  0
C  C75  1  0.47269179  0.27953848  0.84719131  1  0  -0.076217  0  3.782103  0  0  -0.100373  0  4.034537  0  0  -0.099455  0  4.056002  0  -0.05491  0  -0.091215  -0.100453  0  4.019633  0
C  C76  1  0.27867535  0.46594690  0.34925168  1  0  -0.076654  0  3.780849  0  0  -0.101473  0  4.033739  0  0  -0.100574  0  4.05512  0  -0.023841  0  -0.09156  -0.101452  0  4.018972  0
C  C77  1  0.52729275  0.72046321  0.15279040  1  0  -0.076278  0  3.782284  0  0  -0.10045  0  4.034775  0  0  -0.099527  0  4.056231  0  -0.0547  0  -0.091255  -0.100532  0  4.019884  0
C  C78  1  0.65534828  0.01849633  0.79093695  1  0  0.127063  0  3.715842  0  0  0.095863  0  3.966676  0  0  0.102135  0  3.986015  0  0.545049  0  0.049896  0.092079  0  3.953221  0
C  C79  1  0.98076611  0.33933994  0.70539081  1  0  0.124129  0  3.715575  0  0  0.093028  0  3.966962  0  0  0.099281  0  3.986324  0  0.486739  0  0.04834  0.089312  0  3.953482  0
C  C80  1  0.34465383  0.98149855  0.20908222  1  0  0.126992  0  3.716308  0  0  0.095988  0  3.967065  0  0  0.102251  0  3.9864  0  0.545382  0  0.049907  0.092206  0  3.953606  0
C  C81  1  0.01921688  0.66066200  0.29461751  1  0  0.12379  0  3.71573  0  0  0.092794  0  3.967096  0  0  0.099048  0  3.986445  0  0.485837  0  0.048358  0.08908  0  3.953612  0
C  C82  1  0.54112133  0.99743773  0.84889975  1  0  -0.142814  0  3.70455  0  0  -0.162935  0  3.953924  0  0  -0.17026  0  3.975551  0  -0.048619  0  -0.072614  -0.158128  0  3.939463  0
C  C83  1  0.00232779  0.45409070  0.64969563  1  0  -0.143641  0  3.70707  0  0  -0.163944  0  3.956922  0  0  -0.171271  0  3.978697  0  0.049963  0  -0.073099  -0.159238  0  3.942605  0
C  C84  1  0.45886811  0.00256840  0.15111932  1  0  -0.142937  0  3.704751  0  0  -0.162962  0  3.954205  0  0  -0.170268  0  3.975846  0  -0.048947  0  -0.072555  -0.158149  0  3.939736  0
C  C85  1  0.99768135  0.54591637  0.35031405  1  0  -0.143414  0  3.707163  0  0  -0.163716  0  3.956989  0  0  -0.171036  0  3.978757  0  0.050384  0  -0.073099  -0.158996  0  3.942681  0
C  C86  1  0.55967344  0.01266493  0.96742181  1  0  0.101788  0  3.730576  0  0  0.11335  0  3.960118  0  0  0.117385  0  3.981877  0  -0.04025  0  0.022901  0.110364  0  3.947367  0
C  C87  1  0.98698942  0.43981754  0.53124901  1  0  0.103002  0  3.727297  0  0  0.114418  0  3.956775  0  0  0.118537  0  3.978304  0  -0.039842  0  0.022898  0.111379  0  3.944385  0
C  C88  1  0.44032032  0.98735652  0.03259614  1  0  0.102366  0  3.730187  0  0  0.113368  0  3.960169  0  0  0.117404  0  3.981921  0  -0.001497  0  0.02288  0.110379  0  3.947418  0
C  C89  1  0.01303061  0.56018742  0.46875461  1  0  0.10294  0  3.727571  0  0  0.114215  0  3.957164  0  0  0.118308  0  3.978773  0  -0.000743  0  0.022868  0.111178  0  3.944766  0
C  C90  1  0.69668901  0.05278714  0.02081747  1  0  -0.138691  0  3.681928  0  0  -0.159864  0  3.930732  0  0  -0.167263  0  3.952265  0  0.079255  0  -0.070333  -0.155771  0  3.918111  0
C  C91  1  0.94625242  0.30621495  0.47548724  1  0  -0.139395  0  3.683802  0  0  -0.159861  0  3.932968  0  0  -0.167243  0  3.954424  0  -0.068763  0  -0.069839  -0.155814  0  3.920467  0
C  C92  1  0.30330368  0.94723948  0.97920577  1  0  -0.138709  0  3.681866  0  0  -0.159615  0  3.930722  0  0  -0.167012  0  3.952271  0  0.080236  0  -0.07017  -0.15552  0  3.918096  0
C  C93  1  0.05376002  0.69378492  0.52451883  1  0  -0.139355  0  3.683615  0  0  -0.159784  0  3.932694  0  0  -0.167163  0  3.954157  0  -0.069268  0  -0.069882  -0.15574  0  3.920194  0
C  C94  1  0.80617020  0.07203048  0.95700058  1  0  0.147471  0  3.656054  0  0  0.115645  0  3.906241  0  0  0.122982  0  3.923315  0  0.468514  0  0.061236  0.110858  0  3.894853  0
C  C95  1  0.92636413  0.19575450  0.53706927  1  0  0.147955  0  3.65705  0  0  0.116139  0  3.907358  0  0  0.123577  0  3.924303  0  0.567266  0  0.061444  0.111297  0  3.896148  0
C  C96  1  0.19382225  0.92799519  0.04303009  1  0  0.147565  0  3.656405  0  0  0.115597  0  3.906646  0  0  0.122917  0  3.923733  0  0.468574  0  0.061193  0.110812  0  3.89525  0
C  C97  1  0.07362316  0.80425151  0.46293713  1  0  0.148004  0  3.656479  0  0  0.116083  0  3.90673  0  0  0.123487  0  3.923701  0  0.567278  0  0.061547  0.111264  0  3.895501  0
N  N98  1  0.78578103  0.05406663  0.84346403  1  0  -0.323632  0  3.304453  0  0  -0.242907  0  3.579378  0  0  -0.261928  0  3.595483  0  -1.295935  0  -0.325176  -0.2301  0  3.568032  0
N  N99  1  0.94449124  0.21213994  0.65060427  1  0  -0.3227  0  3.300835  0  0  -0.242165  0  3.576447  0  0  -0.26115  0  3.592377  0  -1.312647  0  -0.325347  -0.229341  0  3.565174  0
N  N100  1  0.21421887  0.94594678  0.15656797  1  0  -0.323732  0  3.304497  0  0  -0.243023  0  3.579455  0  0  -0.262023  0  3.595542  0  -1.295684  0  -0.32516  -0.230217  0  3.568109  0
N  N101  1  0.05547591  0.78785582  0.34939916  1  0  -0.322673  0  3.300953  0  0  -0.242275  0  3.576717  0  0  -0.261254  0  3.592645  0  -1.311471  0  -0.325444  -0.22945  0  3.56544  0
O  O102  1  0.85184240  0.89990381  0.62839750  1  0  -0.652076  0  2.030146  0  0  -0.57905  0  2.300227  0  0  -0.609072  0  2.286111  0  -1.161874  0  -0.339905  -0.558031  0  2.308515  0
O  O103  1  0.10082658  0.14657720  0.86437229  1  0  -0.654117  0  2.039882  0  0  -0.581879  0  2.31146  0  0  -0.611898  0  2.297196  0  -1.164648  0  -0.340194  -0.560879  0  2.319771  0
O  O104  1  0.14810784  0.10008412  0.37164256  1  0  -0.652111  0  2.030487  0  0  -0.579082  0  2.300593  0  0  -0.60907  0  2.286412  0  -1.162045  0  -0.33987  -0.558069  0  2.308889  0
O  O105  1  0.89916201  0.85343281  0.13562530  1  0  -0.654093  0  2.039877  0  0  -0.58178  0  2.31137  0  0  -0.611829  0  2.297185  0  -1.16475  0  -0.340179  -0.560778  0  2.319678  0
O  O106  1  0.88326114  0.78911299  0.77596650  1  0  -0.625765  0  1.863226  0  0  -0.580629  0  2.076828  0  0  -0.60259  0  2.066113  0  -1.181062  0  -0.340851  -0.564855  0  2.083036  0
O  O107  1  0.21658537  0.11349391  0.72045134  1  0  -0.624396  0  1.863898  0  0  -0.579771  0  2.078274  0  0  -0.601557  0  2.067378  0  -1.181091  0  -0.339714  -0.56416  0  2.084608  0
O  O108  1  0.11670684  0.21085337  0.22406328  1  0  -0.625854  0  1.862891  0  0  -0.580725  0  2.076546  0  0  -0.602685  0  2.065827  0  -1.181956  0  -0.34102  -0.564949  0  2.082745  0
O  O109  1  0.78339190  0.88652316  0.27953595  1  0  -0.624479  0  1.863554  0  0  -0.579846  0  2.077941  0  0  -0.601625  0  2.067044  0  -1.180603  0  -0.339772  -0.564235  0  2.084275  0
