# generated using pymatgen
data_NaDyH16(CO)9
_symmetry_space_group_name_H-M   'P 1'
_cell_length_a   9.04951910
_cell_length_b   9.15015012
_cell_length_c   9.33490541
_cell_angle_alpha   110.95559788
_cell_angle_beta   99.65394341
_cell_angle_gamma   95.13435541
_symmetry_Int_Tables_number   1
_chemical_formula_structural   NaDyH16(CO)9
_chemical_formula_sum   'Na2 Dy2 H32 C18 O18'
_cell_volume   702.18215641
_cell_formula_units_Z   2
loop_
 _symmetry_equiv_pos_site_id
 _symmetry_equiv_pos_as_xyz
  1  'x, y, z'
loop_
 _atom_site_type_symbol
 _atom_site_label
 _atom_site_symmetry_multiplicity
 _atom_site_fract_x
 _atom_site_fract_y
 _atom_site_fract_z
 _atom_site_occupancy
 _atom_site_hle17_bader_spin_density
 _atom_site_hle17_ddec_charge
 _atom_site_hle17_ddec_spin_density
 _atom_site_hle17_ddec_sum_bond_order
 _atom_site_hle17_magmom
 _atom_site_hse06_10hf_bader_spin_density
 _atom_site_hse06_10hf_ddec_charge
 _atom_site_hse06_10hf_ddec_spin_density
 _atom_site_hse06_10hf_ddec_sum_bond_order
 _atom_site_hse06_10hf_magmom
 _atom_site_hse06_bader_spin_density
 _atom_site_hse06_ddec_charge
 _atom_site_hse06_ddec_spin_density
 _atom_site_hse06_ddec_sum_bond_order
 _atom_site_hse06_magmom
 _atom_site_pbe_bader_spin_density
 _atom_site_pbe_cm5_charge
 _atom_site_pbe_ddec_charge
 _atom_site_pbe_ddec_spin_density
 _atom_site_pbe_ddec_sum_bond_order
 _atom_site_pbe_magmom
Na  Na0  1  0.50000424  0.99999886  0.50000469  1  0  0.913948  0  0.423718  0  0  0.874742  0  0.574591  0  0  0.885447  0  0.555609  0  0  0.768593  0.866732  0  0.589829  0
Na  Na1  1  0.99999676  0.49999365  0.49999391  1  0  0.91955  0  0.409699  0  0  0.882901  0  0.552587  0  0  0.894046  0  0.533437  0  0  0.761808  0.874869  0  0.56761  0
Dy  Dy2  1  0.12873898  0.84115331  0.44309937  1  0  2.227797  0  1.664086  0  0  2.075669  0  2.136068  0  0  2.210714  0  1.938649  0  0  1.484366  2.037046  0  2.168736  0
Dy  Dy3  1  0.87126069  0.15884180  0.55690066  1  0  2.227782  0  1.664167  0  0  2.075716  0  2.136052  0  0  2.210693  0  1.938735  0  0  1.48435  2.037089  0  2.168726  0
H  H4  1  0.53643354  0.86570075  0.86622865  1  0  0.138959  0  0.942596  0  0  0.160389  0  0.997278  0  0  0.162617  0  0.996546  0  0  0.103763  0.158554  0  0.998121  0
H  H5  1  0.46355803  0.13428600  0.13377993  1  0  0.138886  0  0.94249  0  0  0.160278  0  0.99722  0  0  0.162501  0  0.996498  0  0  0.103777  0.158441  0  0.99807  0
H  H6  1  0.44897594  0.66308970  0.80017739  1  0  0.135219  0  0.956135  0  0  0.152835  0  1.021715  0  0  0.155167  0  1.020984  0  0  0.102127  0.151225  0  1.02189  0
H  H7  1  0.55101029  0.33689823  0.19982105  1  0  0.135214  0  0.956136  0  0  0.152805  0  1.021729  0  0  0.155129  0  1.021006  0  0  0.102124  0.151196  0  1.021902  0
H  H8  1  0.37000131  0.81413218  0.92875991  1  0  0.144984  0  0.925609  0  0  0.168913  0  0.977324  0  0  0.170965  0  0.977067  0  0  0.110679  0.167259  0  0.977596  0
H  H9  1  0.62998085  0.18585811  0.07123117  1  0  0.144941  0  0.925446  0  0  0.168852  0  0.977194  0  0  0.170902  0  0.976936  0  0  0.110641  0.167202  0  0.977454  0
H  H10  1  0.87846866  0.04352893  0.06892506  1  0  0.146503  0  0.927426  0  0  0.166398  0  0.986624  0  0  0.16896  0  0.985439  0  0  0.109723  0.164638  0  0.987154  0
H  H11  1  0.12153927  0.95648399  0.93108691  1  0  0.14649  0  0.927572  0  0  0.166313  0  0.98683  0  0  0.168887  0  0.985632  0  0  0.109657  0.164554  0  0.987364  0
H  H12  1  0.72595173  0.91842900  0.08559199  1  0  0.143211  0  0.951441  0  0  0.164621  0  1.00778  0  0  0.166609  0  1.007563  0  0  0.106078  0.163031  0  1.008031  0
H  H13  1  0.27404969  0.08158508  0.91441500  1  0  0.143196  0  0.951499  0  0  0.164548  0  1.007878  0  0  0.166536  0  1.007661  0  0  0.10601  0.16296  0  1.008124  0
H  H14  1  0.84681428  0.83569257  0.95334336  1  0  0.144121  0  0.931408  0  0  0.165437  0  0.985299  0  0  0.168139  0  0.983716  0  0  0.105304  0.163417  0  0.986475  0
H  H15  1  0.15318472  0.16432032  0.04666280  1  0  0.144153  0  0.93143  0  0  0.165404  0  0.985376  0  0  0.168108  0  0.983796  0  0  0.105264  0.163386  0  0.986547  0
H  H16  1  0.54904295  0.68836312  0.52845996  1  0  0.137864  0  0.961909  0  0  0.156975  0  1.019229  0  0  0.159241  0  1.018973  0  0  0.102704  0.155391  0  1.019208  0
H  H17  1  0.45095795  0.31164741  0.47154249  1  0  0.137874  0  0.961896  0  0  0.15697  0  1.019238  0  0  0.159236  0  1.018981  0  0  0.102693  0.155388  0  1.01922  0
H  H18  1  0.66902075  0.54020569  0.47034922  1  0  0.137  0  0.964046  0  0  0.153343  0  1.02927  0  0  0.156335  0  1.027812  0  0  0.100909  0.151047  0  1.030474  0
H  H19  1  0.33097063  0.45979411  0.52965533  1  0  0.137058  0  0.964102  0  0  0.153412  0  1.029291  0  0  0.15641  0  1.027824  0  0  0.100921  0.151109  0  1.030518  0
H  H20  1  0.69364484  0.66476827  0.66933634  1  0  0.149183  0  0.942745  0  0  0.167337  0  1.00372  0  0  0.170253  0  1.002371  0  0  0.106814  0.165319  0  1.004322  0
H  H21  1  0.30634857  0.33523747  0.33066851  1  0  0.149148  0  0.942692  0  0  0.167333  0  1.003636  0  0  0.170249  0  1.002287  0  0  0.106777  0.165316  0  1.004238  0
H  H22  1  0.50536159  0.36932988  0.95373293  1  0  0.133884  0  0.96908  0  0  0.153586  0  1.031081  0  0  0.1555  0  1.031059  0  0  0.099437  0.15233  0  1.030983  0
H  H23  1  0.49464666  0.63067714  0.04626525  1  0  0.133874  0  0.969126  0  0  0.153615  0  1.031092  0  0  0.155529  0  1.031069  0  0  0.099472  0.152358  0  1.030999  0
H  H24  1  0.39970566  0.39594604  0.79177866  1  0  0.130162  0  0.955689  0  0  0.151143  0  1.016756  0  0  0.153097  0  1.016386  0  0  0.10078  0.150441  0  1.015763  0
H  H25  1  0.60029845  0.60406332  0.20822178  1  0  0.130095  0  0.955759  0  0  0.151103  0  1.016816  0  0  0.153059  0  1.016442  0  0  0.100732  0.150404  0  1.015814  0
H  H26  1  0.43111561  0.20141596  0.77516169  1  0  0.147047  0  0.965125  0  0  0.162089  0  1.027705  0  0  0.166117  0  1.02477  0  0  0.102488  0.159586  0  1.029366  0
H  H27  1  0.56888573  0.79858984  0.22483596  1  0  0.146918  0  0.965282  0  0  0.161967  0  1.02786  0  0  0.16599  0  1.024932  0  0  0.102435  0.159464  0  1.029524  0
H  H28  1  0.14764391  0.52563778  0.23182290  1  0  0.376241  0  0.93048  0  0  0.348953  0  1.004225  0  0  0.360485  0  0.993386  0  0  0.296257  0.340722  0  1.012755  0
H  H29  1  0.85236251  0.47436449  0.76817329  1  0  0.376253  0  0.930479  0  0  0.348976  0  1.004208  0  0  0.360511  0  0.993365  0  0  0.296255  0.340752  0  1.012725  0
H  H30  1  0.92008100  0.36131351  0.09053385  1  0  0.086126  0  0.944452  0  0  0.103875  0  1.008382  0  0  0.105608  0  1.006232  0  0  0.097354  0.103013  0  1.009166  0
H  H31  1  0.07992643  0.63868047  0.90945747  1  0  0.086192  0  0.944549  0  0  0.103907  0  1.008526  0  0  0.10564  0  1.006376  0  0  0.097391  0.103049  0  1.009308  0
H  H32  1  0.90448336  0.55141355  0.08206596  1  0  0.085028  0  0.964404  0  0  0.100622  0  1.030822  0  0  0.101546  0  1.031211  0  0  0.097113  0.10001  0  1.030352  0
H  H33  1  0.09552554  0.44858281  0.91792751  1  0  0.085051  0  0.964327  0  0  0.100641  0  1.030752  0  0  0.101564  0  1.031142  0  0  0.097174  0.100034  0  1.030275  0
H  H34  1  0.82158761  0.49395848  0.21847411  1  0  0.06872  0  0.968119  0  0  0.083792  0  1.042467  0  0  0.08457  0  1.041721  0  0  0.096031  0.083426  0  1.0424  0
H  H35  1  0.17841778  0.50603668  0.78151406  1  0  0.068625  0  0.968276  0  0  0.083736  0  1.042558  0  0  0.084513  0  1.041815  0  0  0.096077  0.083378  0  1.042483  0
C  C36  1  0.32857776  0.80358184  0.69299299  1  0  0.763492  0  3.861132  0  0  0.72905  0  4.152646  0  0  0.760463  0  4.152659  0  0  0.204849  0.7073  0  4.156894  0
C  C37  1  0.67141787  0.19640852  0.30700041  1  0  0.763428  0  3.861299  0  0  0.728966  0  4.152837  0  0  0.76038  0  4.152841  0  0  0.204824  0.707194  0  4.157118  0
C  C38  1  0.42806758  0.78566846  0.83000432  1  0  -0.454452  0  3.647088  0  0  -0.534104  0  3.880101  0  0  -0.540444  0  3.88288  0  0  -0.237128  -0.528989  0  3.877468  0
C  C39  1  0.57192421  0.21432660  0.16999757  1  0  -0.454275  0  3.646832  0  0  -0.53382  0  3.879856  0  0  -0.54015  0  3.882649  0  0  -0.237113  -0.528705  0  3.877225  0
C  C40  1  0.94543682  0.89959776  0.19733410  1  0  0.789302  0  3.797515  0  0  0.755754  0  4.081444  0  0  0.789539  0  4.080247  0  0  0.218542  0.73282  0  4.086997  0
C  C41  1  0.05455136  0.10039495  0.80265349  1  0  0.78951  0  3.797745  0  0  0.755998  0  4.081585  0  0  0.789777  0  4.080382  0  0  0.218624  0.733065  0  4.087146  0
C  C42  1  0.84239648  0.92478626  0.06730224  1  0  -0.449166  0  3.619099  0  0  -0.527234  0  3.846896  0  0  -0.533135  0  3.847353  0  0  -0.235293  -0.522569  0  3.84575  0
C  C43  1  0.15760771  0.07522426  0.93271040  1  0  -0.449188  0  3.618999  0  0  -0.527095  0  3.846819  0  0  -0.533011  0  3.84727  0  0  -0.235172  -0.522434  0  3.845667  0
C  C44  1  0.77785724  0.77995748  0.52906518  1  0  0.822587  0  3.775184  0  0  0.792016  0  4.056281  0  0  0.827138  0  4.048294  0  0  0.237804  0.769202  0  4.062602  0
C  C45  1  0.22215023  0.22004477  0.47093976  1  0  0.822471  0  3.775174  0  0  0.791986  0  4.056166  0  0  0.827085  0  4.04822  0  0  0.237782  0.769169  0  4.062486  0
C  C46  1  0.66409950  0.66107644  0.54866599  1  0  -0.470207  0  3.620497  0  0  -0.546182  0  3.846917  0  0  -0.553132  0  3.847079  0  0  -0.242087  -0.540778  0  3.84542  0
C  C47  1  0.33589672  0.33892576  0.45134023  1  0  -0.470183  0  3.620669  0  0  -0.546197  0  3.847037  0  0  -0.553139  0  3.847206  0  0  -0.241985  -0.540798  0  3.845544  0
C  C48  1  0.62683989  0.35540082  0.77138298  1  0  0.78639  0  3.797817  0  0  0.752594  0  4.084529  0  0  0.786237  0  4.077546  0  0  0.226691  0.730157  0  4.089953  0
C  C49  1  0.37315771  0.64460259  0.22861533  1  0  0.786287  0  3.798074  0  0  0.752546  0  4.084717  0  0  0.786187  0  4.077735  0  0  0.22667  0.730114  0  4.090133  0
C  C50  1  0.48227040  0.32669589  0.82539072  1  0  -0.465247  0  3.631839  0  0  -0.54202  0  3.85923  0  0  -0.548684  0  3.860079  0  0  -0.245075  -0.537277  0  3.857135  0
C  C51  1  0.51773409  0.67331585  0.17460847  1  0  -0.465045  0  3.631934  0  0  -0.541899  0  3.859273  0  0  -0.548566  0  3.860132  0  0  -0.245048  -0.537159  0  3.857177  0
C  C52  1  0.91792317  0.48620398  0.16036110  1  0  -0.018022  0  3.643446  0  0  -0.11318  0  3.918258  0  0  -0.106562  0  3.923692  0  0  -0.157713  -0.117559  0  3.915497  0
C  C53  1  0.08208370  0.51379356  0.83962815  1  0  -0.018045  0  3.643543  0  0  -0.113191  0  3.918395  0  0  -0.106574  0  3.923828  0  0  -0.157861  -0.117578  0  3.915639  0
O  O54  1  0.20784168  0.70286062  0.61654446  1  0  -0.773862  0  1.969041  0  0  -0.729411  0  2.22029  0  0  -0.762405  0  2.209954  0  0  -0.444603  -0.712592  0  2.226669  0
O  O55  1  0.79215765  0.29713924  0.38344969  1  0  -0.773854  0  1.968971  0  0  -0.729392  0  2.220197  0  0  -0.762378  0  2.209859  0  0  -0.444593  -0.712559  0  2.226571  0
O  O56  1  0.36309650  0.92070366  0.65496069  1  0  -0.752612  0  2.005084  0  0  -0.706134  0  2.250491  0  0  -0.737387  0  2.240176  0  0  -0.430846  -0.689903  0  2.256845  0
O  O57  1  0.63691219  0.07929151  0.34503447  1  0  -0.752619  0  2.005276  0  0  -0.706135  0  2.250645  0  0  -0.737375  0  2.240331  0  0  -0.430831  -0.689899  0  2.257017  0
O  O58  1  0.05134071  0.81904939  0.17082447  1  0  -0.678053  0  1.934434  0  0  -0.63305  0  2.160298  0  0  -0.665718  0  2.151152  0  0  -0.357692  -0.615976  0  2.164386  0
O  O59  1  0.94865111  0.18093856  0.82917707  1  0  -0.678194  0  1.934495  0  0  -0.633199  0  2.160338  0  0  -0.665856  0  2.151186  0  0  -0.357726  -0.616117  0  2.164422  0
O  O60  1  0.92497190  0.96025215  0.33923749  1  0  -0.85035  0  2.159535  0  0  -0.787371  0  2.410755  0  0  -0.835342  0  2.401229  0  0  -0.453762  -0.767447  0  2.414908  0
O  O61  1  0.07501899  0.03974525  0.66078114  1  0  -0.850451  0  2.160086  0  0  -0.787523  0  2.41138  0  0  -0.835493  0  2.401856  0  0  -0.45382  -0.767608  0  2.415555  0
O  O62  1  0.74520409  0.91777472  0.55022054  1  0  -0.772093  0  2.013325  0  0  -0.724477  0  2.263694  0  0  -0.759482  0  2.24866  0  0  -0.430442  -0.7076  0  2.270942  0
O  O63  1  0.25480318  0.08221923  0.44978894  1  0  -0.772141  0  2.013242  0  0  -0.724537  0  2.263562  0  0  -0.759548  0  2.248539  0  0  -0.430534  -0.707656  0  2.270801  0
O  O64  1  0.90147321  0.73500726  0.49470530  1  0  -0.789347  0  2.032397  0  0  -0.739396  0  2.281971  0  0  -0.775552  0  2.269469  0  0  -0.434732  -0.721839  0  2.288353  0
O  O65  1  0.09852158  0.26498545  0.50529628  1  0  -0.789265  0  2.032227  0  0  -0.739364  0  2.281756  0  0  -0.775506  0  2.269277  0  0  -0.434656  -0.721807  0  2.288139  0
O  O66  1  0.66205839  0.23721772  0.66508660  1  0  -0.823354  0  2.046749  0  0  -0.770381  0  2.303281  0  0  -0.806554  0  2.287393  0  0  -0.473172  -0.753309  0  2.310588  0
O  O67  1  0.33794432  0.76278217  0.33490599  1  0  -0.823249  0  2.046929  0  0  -0.770287  0  2.303457  0  0  -0.806467  0  2.28757  0  0  -0.473125  -0.753217  0  2.310763  0
O  O68  1  0.70522442  0.49302734  0.83088857  1  0  -0.624485  0  1.911082  0  0  -0.570334  0  2.116092  0  0  -0.595199  0  2.10847  0  0  -0.315111  -0.55337  0  2.121005  0
O  O69  1  0.29478272  0.50697967  0.16910941  1  0  -0.624472  0  1.911245  0  0  -0.570328  0  2.116207  0  0  -0.595192  0  2.108584  0  0  -0.315106  -0.553365  0  2.12112  0
O  O70  1  0.05490203  0.55356923  0.28123223  1  0  -0.68927  0  2.230137  0  0  -0.620927  0  2.483875  0  0  -0.64941  0  2.472147  0  0  -0.517321  -0.607512  0  2.491044  0
O  O71  1  0.94510480  0.44642830  0.71876130  1  0  -0.689264  0  2.230049  0  0  -0.620941  0  2.483761  0  0  -0.649416  0  2.472029  0  0  -0.517318  -0.607531  0  2.490928  0
