# generated using pymatgen
data_ZnH12C16N4O7
_symmetry_space_group_name_H-M   'P 1'
_cell_length_a   8.92024134
_cell_length_b   9.89422939
_cell_length_c   10.06945633
_cell_angle_alpha   75.95826590
_cell_angle_beta   67.70173653
_cell_angle_gamma   83.72678584
_symmetry_Int_Tables_number   1
_chemical_formula_structural   ZnH12C16N4O7
_chemical_formula_sum   'Zn2 H24 C32 N8 O14'
_cell_volume   797.54549955
_cell_formula_units_Z   2
loop_
 _symmetry_equiv_pos_site_id
 _symmetry_equiv_pos_as_xyz
  1  'x, y, z'
loop_
 _atom_site_type_symbol
 _atom_site_label
 _atom_site_symmetry_multiplicity
 _atom_site_fract_x
 _atom_site_fract_y
 _atom_site_fract_z
 _atom_site_occupancy
 _atom_site_hle17_bader_spin_density
 _atom_site_hle17_ddec_charge
 _atom_site_hle17_ddec_spin_density
 _atom_site_hle17_ddec_sum_bond_order
 _atom_site_hle17_magmom
 _atom_site_hse06_10hf_bader_spin_density
 _atom_site_hse06_10hf_ddec_charge
 _atom_site_hse06_10hf_ddec_spin_density
 _atom_site_hse06_10hf_ddec_sum_bond_order
 _atom_site_hse06_10hf_magmom
 _atom_site_hse06_bader_spin_density
 _atom_site_hse06_ddec_charge
 _atom_site_hse06_ddec_spin_density
 _atom_site_hse06_ddec_sum_bond_order
 _atom_site_hse06_magmom
 _atom_site_pbe_bader_spin_density
 _atom_site_pbe_cm5_charge
 _atom_site_pbe_ddec_charge
 _atom_site_pbe_ddec_spin_density
 _atom_site_pbe_ddec_sum_bond_order
 _atom_site_pbe_magmom
Zn  Zn0  1  0.99993368  0.20231171  0.04004715  1  0  1.127314  0  1.711843  0  0  0.954439  0  2.163949  0  0  1.003813  0  2.105376  0  0  0.69518  0.919411  0  2.2045  0
Zn  Zn1  1  0.00006471  0.79768842  0.95995316  1  0  1.127337  0  1.711856  0  0  0.954426  0  2.163966  0  0  1.003795  0  2.105394  0  0  0.695166  0.919398  0  2.204517  0
H  H2  1  0.05960182  0.84157485  0.61934524  1  0  0.132564  0  0.983292  0  0  0.136055  0  1.051033  0  0  0.140513  0  1.045203  0  0  0.147081  0.13283  0  1.055098  0
H  H3  1  0.94039661  0.15842425  0.38065630  1  0  0.132588  0  0.983249  0  0  0.136077  0  1.050985  0  0  0.140534  0  1.045155  0  0  0.14709  0.132853  0  1.055048  0
H  H4  1  0.34299025  0.60055792  0.84587718  1  0  0.106339  0  0.91523  0  0  0.1173  0  0.971505  0  0  0.119652  0  0.968741  0  0  0.14317  0.11581  0  0.972918  0
H  H5  1  0.65700935  0.39944222  0.15412271  1  0  0.106345  0  0.915219  0  0  0.117309  0  0.971489  0  0  0.11966  0  0.968726  0  0  0.143177  0.115818  0  0.972902  0
H  H6  1  0.16099122  0.41726228  0.06891065  1  0  0.432056  0  0.872371  0  0  0.397678  0  0.941142  0  0  0.408985  0  0.924936  0  0  0.290131  0.389697  0  0.952624  0
H  H7  1  0.83900718  0.58273785  0.93108966  1  0  0.43206  0  0.872364  0  0  0.39768  0  0.941142  0  0  0.408988  0  0.924935  0  0  0.290133  0.389698  0  0.952624  0
H  H8  1  0.29729657  0.32574331  0.96083147  1  0  0.385796  0  0.922012  0  0  0.3412  0  1.016991  0  0  0.35289  0  1.000643  0  0  0.283362  0.333182  0  1.028157  0
H  H9  1  0.70270181  0.67425681  0.03916785  1  0  0.38579  0  0.922019  0  0  0.341195  0  1.016997  0  0  0.352885  0  1.00065  0  0  0.28336  0.333177  0  1.028163  0
H  H10  1  0.11831449  0.88065227  0.38752617  1  0  0.142136  0  0.954173  0  0  0.148488  0  1.02005  0  0  0.152267  0  1.016684  0  0  0.122514  0.145455  0  1.023077  0
H  H11  1  0.88168626  0.11934998  0.61247381  1  0  0.142128  0  0.954176  0  0  0.148476  0  1.020048  0  0  0.152256  0  1.016681  0  0  0.122501  0.145444  0  1.023074  0
H  H12  1  0.45247127  0.78929662  0.98021501  1  0  0.093803  0  0.969844  0  0  0.098475  0  1.040902  0  0  0.102131  0  1.036971  0  0  0.116902  0.095966  0  1.042997  0
H  H13  1  0.54753079  0.21070250  0.01978430  1  0  0.093801  0  0.969847  0  0  0.09847  0  1.040904  0  0  0.102131  0  1.036966  0  0  0.116899  0.095964  0  1.042996  0
H  H14  1  0.23236709  0.35628567  0.54040111  1  0  0.100904  0  0.948874  0  0  0.11007  0  1.014448  0  0  0.113089  0  1.012731  0  0  0.10386  0.107783  0  1.015962  0
H  H15  1  0.76763003  0.64371655  0.45960109  1  0  0.100917  0  0.948788  0  0  0.110051  0  1.0144  0  0  0.11307  0  1.012682  0  0  0.103865  0.107778  0  1.015899  0
H  H16  1  0.76010516  0.54295638  0.71446540  1  0  0.09712  0  0.952626  0  0  0.107343  0  1.013036  0  0  0.110876  0  1.011204  0  0  0.101889  0.104856  0  1.014445  0
H  H17  1  0.23989203  0.45704375  0.28553630  1  0  0.097137  0  0.952635  0  0  0.107351  0  1.013058  0  0  0.110884  0  1.011227  0  0  0.101898  0.104865  0  1.014469  0
H  H18  1  0.54972259  0.62241929  0.36023698  1  0  0.096122  0  0.957678  0  0  0.094093  0  1.040107  0  0  0.098381  0  1.035148  0  0  0.119451  0.09111  0  1.043341  0
H  H19  1  0.45027948  0.37757984  0.63976431  1  0  0.096134  0  0.9577  0  0  0.094116  0  1.040103  0  0  0.0984  0  1.035149  0  0  0.119471  0.091133  0  1.043335  0
H  H20  1  0.25924127  0.23841088  0.17719174  1  0  0.409563  0  0.868126  0  0  0.379425  0  0.943003  0  0  0.392012  0  0.929602  0  0  0.304132  0.370508  0  0.952595  0
H  H21  1  0.74075715  0.76158820  0.82280782  1  0  0.409505  0  0.868208  0  0  0.379435  0  0.942974  0  0  0.392025  0  0.929571  0  0  0.304136  0.370518  0  0.952566  0
H  H22  1  0.22782052  0.07841228  0.65444687  1  0  0.119478  0  0.93833  0  0  0.126075  0  1.003087  0  0  0.130082  0  1.000257  0  0  0.109439  0.122913  0  1.005413  0
H  H23  1  0.77218036  0.92158576  0.34555013  1  0  0.119468  0  0.93836  0  0  0.126066  0  1.003112  0  0  0.130074  0  1.00028  0  0  0.109428  0.122904  0  1.005434  0
H  H24  1  0.58113803  0.04379759  0.22822879  1  0  0.109816  0  0.966306  0  0  0.118471  0  1.02943  0  0  0.121714  0  1.027828  0  0  0.103614  0.116355  0  1.030077  0
H  H25  1  0.41886164  0.95620045  0.77176961  1  0  0.109827  0  0.966305  0  0  0.118478  0  1.029432  0  0  0.121719  0  1.027833  0  0  0.103607  0.116359  0  1.030083  0
C  C26  1  0.15608363  0.77747280  0.64548135  1  0  0.194005  0  3.575906  0  0  0.116647  0  3.837365  0  0  0.131379  0  3.848043  0  0  0.174777  0.107169  0  3.830171  0
C  C27  1  0.84391480  0.22252629  0.35452019  1  0  0.193927  0  3.57588  0  0  0.116613  0  3.837347  0  0  0.131343  0  3.848026  0  0  0.174774  0.107137  0  3.83015  0
C  C28  1  0.30170686  0.65231780  0.75764638  1  0  0.22813  0  3.667289  0  0  0.172138  0  3.959361  0  0  0.184503  0  3.971348  0  0  0.160845  0.163977  0  3.950849  0
C  C29  1  0.69829279  0.34768130  0.24235475  1  0  0.228098  0  3.667273  0  0  0.172118  0  3.959367  0  0  0.184485  0  3.971351  0  0  0.160819  0.16396  0  3.95085  0
C  C30  1  0.22917333  0.83032345  0.32624049  1  0  -0.090614  0  3.642074  0  0  -0.130095  0  3.898044  0  0  -0.127938  0  3.917046  0  0  -0.057865  -0.13234  0  3.887353  0
C  C31  1  0.77082746  0.16967775  0.67375973  1  0  -0.09068  0  3.642102  0  0  -0.130178  0  3.898108  0  0  -0.128018  0  3.917103  0  0  -0.057881  -0.132421  0  3.887411  0
C  C32  1  0.32778016  0.74647253  0.39413728  1  0  0.11847  0  3.769061  0  0  0.101282  0  4.021075  0  0  0.100763  0  4.045331  0  0  0.106936  0.101518  0  4.005055  0
C  C33  1  0.67221941  0.25352867  0.60586336  1  0  0.118466  0  3.769069  0  0  0.101342  0  4.021003  0  0  0.100823  0  4.04526  0  0  0.10698  0.101581  0  4.004979  0
C  C34  1  0.27426835  0.84718114  0.17471103  1  0  -0.087627  0  3.729407  0  0  -0.060011  0  3.96666  0  0  -0.071856  0  3.990899  0  0  -0.008111  -0.053001  0  3.951254  0
C  C35  1  0.72573246  0.15281901  0.82528746  1  0  -0.087539  0  3.729352  0  0  -0.059983  0  3.966651  0  0  -0.071825  0  3.990888  0  0  -0.008129  -0.052971  0  3.951242  0
C  C36  1  0.41511247  0.77922852  0.09835937  1  0  0.109739  0  3.664721  0  0  0.067314  0  3.916098  0  0  0.074436  0  3.932879  0  0  0.049331  0.063151  0  3.904562  0
C  C37  1  0.58488956  0.22077164  0.90164069  1  0  0.109726  0  3.664696  0  0  0.067332  0  3.916056  0  0  0.074442  0  3.932853  0  0  0.049357  0.063167  0  3.904521  0
C  C38  1  0.17742167  0.93914664  0.09209730  1  0  0.678734  0  3.886321  0  0  0.622368  0  4.180759  0  0  0.658686  0  4.172074  0  0  0.219675  0.597713  0  4.18616  0
C  C39  1  0.82258032  0.06085456  0.90790152  1  0  0.678716  0  3.886238  0  0  0.622379  0  4.180641  0  0  0.658695  0  4.171954  0  0  0.219674  0.597723  0  4.186043  0
C  C40  1  0.99611262  0.44440666  0.64367128  1  0  -0.063797  0  3.747037  0  0  -0.040666  0  3.981746  0  0  -0.047265  0  4.004259  0  0  -0.019501  -0.03615  0  3.965997  0
C  C41  1  0.00388571  0.55559556  0.35632953  1  0  -0.063835  0  3.747151  0  0  -0.040723  0  3.981884  0  0  -0.047322  0  4.004397  0  0  -0.019496  -0.036208  0  3.96614  0
C  C42  1  0.98559919  0.38094457  0.79803622  1  0  0.641104  0  3.904013  0  0  0.588921  0  4.197983  0  0  0.622888  0  4.191877  0  0  0.20448  0.566263  0  4.200538  0
C  C43  1  0.01440042  0.61905557  0.20196367  1  0  0.641083  0  3.903951  0  0  0.588912  0  4.197922  0  0  0.622876  0  4.191821  0  0  0.204452  0.566255  0  4.20048  0
C  C44  1  0.13092591  0.41930610  0.52233164  1  0  -0.061035  0  3.711129  0  0  -0.088021  0  3.966557  0  0  -0.088053  0  3.986143  0  0  -0.084801  -0.087518  0  3.953136  0
C  C45  1  0.86907364  0.58069614  0.47766974  1  0  -0.060977  0  3.711141  0  0  -0.087924  0  3.966564  0  0  -0.087964  0  3.986173  0  0  -0.084799  -0.087428  0  3.95313  0
C  C46  1  0.86552846  0.52542799  0.61985307  1  0  -0.076777  0  3.732199  0  0  -0.100821  0  3.985085  0  0  -0.102278  0  4.006059  0  0  -0.088439  -0.099489  0  3.970756  0
C  C47  1  0.13447105  0.47457529  0.38014806  1  0  -0.076797  0  3.732264  0  0  -0.100835  0  3.985155  0  0  -0.102292  0  4.006131  0  0  -0.088487  -0.099504  0  3.970822  0
C  C48  1  0.47006053  0.68607820  0.30946340  1  0  0.071419  0  3.660986  0  0  0.029904  0  3.927326  0  0  0.036424  0  3.941171  0  0  0.057045  0.025887  0  3.917607  0
C  C49  1  0.52994027  0.31392302  0.69053880  1  0  0.071397  0  3.661051  0  0  0.029865  0  3.927383  0  0  0.036393  0  3.941216  0  0  0.057019  0.025849  0  3.917662  0
C  C50  1  0.27287278  0.13443538  0.36843360  1  0  0.653908  0  3.832864  0  0  0.600825  0  4.135218  0  0  0.633911  0  4.125936  0  0  0.231965  0.578613  0  4.141256  0
C  C51  1  0.72711716  0.86556363  0.63156886  1  0  0.653876  0  3.832819  0  0  0.600735  0  4.135281  0  0  0.633823  0  4.126006  0  0  0.232075  0.578521  0  4.141318  0
C  C52  1  0.34683776  0.04352863  0.58770784  1  0  -0.067215  0  3.706846  0  0  -0.092363  0  3.964126  0  0  -0.092713  0  3.982406  0  0  -0.081491  -0.092116  0  3.951913  0
C  C53  1  0.65316073  0.95646834  0.41229023  1  0  -0.067167  0  3.706932  0  0  -0.092305  0  3.964215  0  0  -0.092652  0  3.982494  0  0  -0.081461  -0.092053  0  3.951996  0
C  C54  1  0.54562369  0.02463649  0.34701100  1  0  -0.067679  0  3.719381  0  0  -0.096498  0  3.97652  0  0  -0.096968  0  3.99671  0  0  -0.088113  -0.095996  0  3.962192  0
C  C55  1  0.45437598  0.97536156  0.65298839  1  0  -0.067624  0  3.719258  0  0  -0.096425  0  3.97638  0  0  -0.096894  0  3.996576  0  0  -0.088067  -0.095921  0  3.962052  0
C  C56  1  0.39278914  0.06807067  0.43459932  1  0  -0.082913  0  3.793653  0  0  -0.064409  0  4.035007  0  0  -0.071555  0  4.057904  0  0  -0.021145  -0.059673  0  4.01955  0
C  C57  1  0.60721409  0.93192948  0.56539735  1  0  -0.082911  0  3.793793  0  0  -0.06441  0  4.035184  0  0  -0.071559  0  4.058086  0  0  -0.021133  -0.059671  0  4.019725  0
N  N58  1  0.16290076  0.73253761  0.77888208  1  0  -0.401592  0  3.232007  0  0  -0.322616  0  3.529511  0  0  -0.345411  0  3.540742  0  0  -0.338752  -0.307887  0  3.522022  0
N  N59  1  0.83709888  0.26746150  0.22111904  1  0  -0.401486  0  3.231892  0  0  -0.322578  0  3.529456  0  0  -0.345373  0  3.540687  0  0  -0.338727  -0.307847  0  3.521965  0
N  N60  1  0.28574592  0.72465348  0.54817213  1  0  0.014117  0  3.58628  0  0  0.133067  0  3.758196  0  0  0.1213  0  3.785197  0  0  -0.113179  0.140008  0  3.740951  0
N  N61  1  0.71425369  0.27534667  0.45182875  1  0  0.014181  0  3.586314  0  0  0.133073  0  3.758236  0  0  0.121307  0  3.785238  0  0  -0.113196  0.14  0  3.74102  0
N  N62  1  0.38027499  0.64436439  0.61873589  1  0  -0.266352  0  2.835225  0  0  -0.265299  0  3.105673  0  0  -0.274792  0  3.12085  0  0  -0.212318  -0.259173  0  3.095851  0
N  N63  1  0.61972705  0.35563579  0.38126515  1  0  -0.266368  0  2.835307  0  0  -0.265296  0  3.105765  0  0  -0.27479  0  3.120945  0  0  -0.212311  -0.259168  0  3.095943  0
N  N64  1  0.51246409  0.70291580  0.16366148  1  0  -0.295189  0  3.161115  0  0  -0.22959  0  3.41363  0  0  -0.243665  0  3.428747  0  0  -0.304475  -0.220271  0  3.402492  0
N  N65  1  0.48753556  0.29708332  0.83634162  1  0  -0.295153  0  3.16114  0  0  -0.229561  0  3.413658  0  0  -0.243637  0  3.428775  0  0  -0.304465  -0.220243  0  3.402521  0
O  O66  1  0.19321383  0.32020347  0.05082272  1  0  -0.834502  0  1.991361  0  0  -0.763715  0  2.21206  0  0  -0.787576  0  2.177499  0  0  -0.557725  -0.74708  0  2.236097  0
O  O67  1  0.80678456  0.67979665  0.94917659  1  0  -0.834481  0  1.991385  0  0  -0.763722  0  2.212073  0  0  -0.787583  0  2.177509  0  0  -0.557724  -0.747088  0  2.236109  0
O  O68  1  0.18398859  0.91281184  0.97302807  1  0  -0.653798  0  2.047502  0  0  -0.594636  0  2.314367  0  0  -0.620675  0  2.299795  0  0  -0.317411  -0.575717  0  2.323081  0
O  O69  1  0.81601227  0.08718728  0.02697265  1  0  -0.653789  0  2.04751  0  0  -0.594633  0  2.314339  0  0  -0.620677  0  2.299784  0  0  -0.317406  -0.575718  0  2.323065  0
O  O70  1  0.09946555  0.04059659  0.14751357  1  0  -0.621171  0  2.056043  0  0  -0.547265  0  2.321542  0  0  -0.576444  0  2.307722  0  0  -0.306609  -0.527273  0  2.330385  0
O  O71  1  0.90053527  0.95940355  0.85248492  1  0  -0.621231  0  2.056038  0  0  -0.54731  0  2.321504  0  0  -0.576496  0  2.307694  0  0  -0.306643  -0.527319  0  2.330348  0
O  O72  1  0.07725471  0.27415177  0.81832789  1  0  -0.627622  0  1.989777  0  0  -0.555969  0  2.242798  0  0  -0.585473  0  2.230931  0  0  -0.315468  -0.535082  0  2.249799  0
O  O73  1  0.92274486  0.72584941  0.18167077  1  0  -0.627598  0  1.989767  0  0  -0.555942  0  2.242787  0  0  -0.585445  0  2.230919  0  0  -0.315445  -0.535055  0  2.249788  0
O  O74  1  0.88397400  0.42850198  0.90458515  1  0  -0.64972  0  2.006607  0  0  -0.592821  0  2.241128  0  0  -0.617801  0  2.230673  0  0  -0.319322  -0.575315  0  2.247515  0
O  O75  1  0.11602689  0.57149611  0.09541680  1  0  -0.64971  0  2.006591  0  0  -0.59281  0  2.241094  0  0  -0.617789  0  2.230643  0  0  -0.319302  -0.575298  0  2.247471  0
O  O76  1  0.12575601  0.12785835  0.43934999  1  0  -0.551179  0  1.998029  0  0  -0.506983  0  2.229887  0  0  -0.527857  0  2.222128  0  0  -0.279369  -0.492273  0  2.234862  0
O  O77  1  0.87425072  0.87214601  0.56064545  1  0  -0.551305  0  1.997642  0  0  -0.507058  0  2.229469  0  0  -0.527927  0  2.221708  0  0  -0.279532  -0.492347  0  2.234442  0
O  O78  1  0.33993300  0.19912576  0.22793019  1  0  -0.563922  0  2.134995  0  0  -0.509846  0  2.360166  0  0  -0.532411  0  2.345626  0  0  -0.331686  -0.493873  0  2.369879  0
O  O79  1  0.66006656  0.80087540  0.77206748  1  0  -0.563791  0  2.135236  0  0  -0.509759  0  2.36038  0  0  -0.532328  0  2.345846  0  0  -0.331673  -0.493787  0  2.370093  0
