# generated using pymatgen
data_ZnH16C24N2(O2F3)2
_symmetry_space_group_name_H-M   'P 1'
_cell_length_a   7.16135998
_cell_length_b   8.88965623
_cell_length_c   10.98630585
_cell_angle_alpha   92.07350552
_cell_angle_beta   106.62684181
_cell_angle_gamma   112.98643741
_symmetry_Int_Tables_number   1
_chemical_formula_structural   ZnH16C24N2(O2F3)2
_chemical_formula_sum   'Zn1 H16 C24 N2 O4 F6'
_cell_volume   608.21772375
_cell_formula_units_Z   1
loop_
 _symmetry_equiv_pos_site_id
 _symmetry_equiv_pos_as_xyz
  1  'x, y, z'
loop_
 _atom_site_type_symbol
 _atom_site_label
 _atom_site_symmetry_multiplicity
 _atom_site_fract_x
 _atom_site_fract_y
 _atom_site_fract_z
 _atom_site_occupancy
 _atom_site_hle17_bader_spin_density
 _atom_site_hle17_ddec_charge
 _atom_site_hle17_ddec_spin_density
 _atom_site_hle17_ddec_sum_bond_order
 _atom_site_hle17_magmom
 _atom_site_hse06_10hf_bader_spin_density
 _atom_site_hse06_10hf_ddec_charge
 _atom_site_hse06_10hf_ddec_spin_density
 _atom_site_hse06_10hf_ddec_sum_bond_order
 _atom_site_hse06_10hf_magmom
 _atom_site_hse06_bader_spin_density
 _atom_site_hse06_ddec_charge
 _atom_site_hse06_ddec_spin_density
 _atom_site_hse06_ddec_sum_bond_order
 _atom_site_hse06_magmom
 _atom_site_pbe_bader_spin_density
 _atom_site_pbe_cm5_charge
 _atom_site_pbe_ddec_charge
 _atom_site_pbe_ddec_spin_density
 _atom_site_pbe_ddec_sum_bond_order
 _atom_site_pbe_magmom
Zn  Zn0  1  0.99999923  0.49999804  0.99999904  1  0  1.009899  0  1.931207  0  0  0.839632  0  2.379669  0  0  0.885498  0  2.326368  0  0  0.682332  0.807422  0  2.416599  0
H  H1  1  0.34674098  0.78067000  0.39911660  1  0  0.126486  0  1.001319  0  0  0.128628  0  1.075679  0  0  0.133464  0  1.074349  0  0  0.09268  0.125694  0  1.075894  0
H  H2  1  0.65326377  0.21933054  0.60088032  1  0  0.12654  0  1.001286  0  0  0.128605  0  1.075724  0  0  0.133441  0  1.074394  0  0  0.092683  0.125672  0  1.075941  0
H  H3  1  0.42881555  0.66517178  0.54151648  1  0  0.090081  0  0.970109  0  0  0.099081  0  1.033925  0  0  0.102669  0  1.031009  0  0  0.096806  0.096854  0  1.035581  0
H  H4  1  0.57118839  0.33482998  0.45848397  1  0  0.090058  0  0.970136  0  0  0.099037  0  1.03398  0  0  0.102628  0  1.031059  0  0  0.096782  0.096811  0  1.035637  0
H  H5  1  0.43487193  0.52149582  0.72801618  1  0  0.082815  0  0.963129  0  0  0.091114  0  1.026455  0  0  0.093577  0  1.026793  0  0  0.092359  0.089361  0  1.026469  0
H  H6  1  0.56513045  0.47850842  0.27198497  1  0  0.082817  0  0.963111  0  0  0.091137  0  1.026411  0  0  0.0936  0  1.026749  0  0  0.092376  0.089382  0  1.02643  0
H  H7  1  0.17315815  0.22757128  0.70330792  1  0  0.079928  0  0.9484  0  0  0.090455  0  1.007719  0  0  0.093079  0  1.006928  0  0  0.094803  0.088626  0  1.008289  0
H  H8  1  0.82684199  0.77243421  0.29669466  1  0  0.07989  0  0.94838  0  0  0.090398  0  1.007735  0  0  0.093022  0  1.006944  0  0  0.094778  0.08857  0  1.008305  0
H  H9  1  0.90468738  0.08110502  0.48795480  1  0  0.086512  0  0.960514  0  0  0.095618  0  1.022694  0  0  0.098847  0  1.021136  0  0  0.095196  0.093505  0  1.023508  0
H  H10  1  0.09531197  0.91890170  0.51204948  1  0  0.086457  0  0.960552  0  0  0.095595  0  1.022699  0  0  0.098824  0  1.021139  0  0  0.095191  0.093483  0  1.023513  0
H  H11  1  0.90615383  0.22587640  0.29779284  1  0  0.10215  0  0.958402  0  0  0.10543  0  1.028777  0  0  0.11048  0  1.023465  0  0  0.096681  0.102129  0  1.03214  0
H  H12  1  0.09384640  0.77412660  0.70221059  1  0  0.102157  0  0.958303  0  0  0.105421  0  1.028694  0  0  0.110469  0  1.023385  0  0  0.096677  0.102118  0  1.032056  0
H  H13  1  0.43942086  0.75102257  0.98832992  1  0  0.110652  0  0.934488  0  0  0.113143  0  1.000907  0  0  0.116987  0  0.997661  0  0  0.125103  0.11061  0  1.002953  0
H  H14  1  0.56057957  0.24897546  0.01167248  1  0  0.110637  0  0.934506  0  0  0.113115  0  1.000925  0  0  0.116961  0  0.997677  0  0  0.125101  0.110581  0  1.002977  0
H  H15  1  0.20538558  0.24996973  0.01230288  1  0  0.111605  0  0.926504  0  0  0.115342  0  0.990616  0  0  0.119101  0  0.98749  0  0  0.127572  0.11273  0  0.992803  0
H  H16  1  0.79461272  0.75002708  0.98769818  1  0  0.111567  0  0.926506  0  0  0.115303  0  0.990611  0  0  0.119061  0  0.987489  0  0  0.127553  0.112689  0  0.992808  0
C  C17  1  0.36371617  0.99015637  0.23683212  1  0  0.718523  0  3.626047  0  0  0.642673  0  3.970307  0  0  0.673537  0  3.939663  0  0  0.29785  0.621825  0  3.989766  0
C  C18  1  0.63628509  0.00984045  0.76316494  1  0  0.718598  0  3.625941  0  0  0.642746  0  3.970195  0  0  0.67359  0  3.939566  0  0  0.297891  0.621897  0  3.989652  0
C  C19  1  0.25095751  0.79977405  0.20204530  1  0  0.232937  0  3.924023  0  0  0.215601  0  4.194244  0  0  0.235334  0  4.203953  0  0  0.086408  0.203173  0  4.186311  0
C  C20  1  0.74904510  0.20022524  0.79795209  1  0  0.232887  0  3.924085  0  0  0.21558  0  4.194212  0  0  0.23532  0  4.203922  0  0  0.086388  0.20315  0  4.186279  0
C  C21  1  0.26114843  0.70991176  0.30256862  1  0  -0.389049  0  3.774395  0  0  -0.430034  0  4.053232  0  0  -0.452861  0  4.074453  0  0  -0.155334  -0.414464  0  4.03778  0
C  C22  1  0.73885059  0.29008630  0.69742896  1  0  -0.389043  0  3.774422  0  0  -0.429938  0  4.053252  0  0  -0.452764  0  4.074476  0  0  -0.155298  -0.414372  0  4.037802  0
C  C23  1  0.15596444  0.53397529  0.28908313  1  0  0.449398  0  3.763204  0  0  0.429579  0  4.024953  0  0  0.458665  0  4.026989  0  0  0.134802  0.410065  0  4.023129  0
C  C24  1  0.84403514  0.46602648  0.71091740  1  0  0.449377  0  3.763127  0  0  0.429514  0  4.024948  0  0  0.458599  0  4.026995  0  0  0.134837  0.41  0  4.023121  0
C  C25  1  0.16488789  0.45485538  0.40639110  1  0  -0.036708  0  3.74768  0  0  -0.012411  0  3.97044  0  0  -0.021704  0  3.996323  0  0  -0.017713  -0.006429  0  3.953167  0
C  C26  1  0.83511023  0.54514641  0.59360916  1  0  -0.036709  0  3.747674  0  0  -0.012424  0  3.970479  0  0  -0.021716  0  3.996365  0  0  -0.017724  -0.006439  0  3.953201  0
C  C27  1  0.31222477  0.53772010  0.52856877  1  0  -0.06839  0  3.730376  0  0  -0.090541  0  3.975484  0  0  -0.089835  0  3.996731  0  0  -0.081005  -0.090645  0  3.960748  0
C  C28  1  0.68777481  0.46228168  0.47143086  1  0  -0.068287  0  3.730406  0  0  -0.090409  0  3.975505  0  0  -0.089702  0  3.99675  0  0  -0.08096  -0.090515  0  3.960771  0
C  C29  1  0.31629828  0.45593575  0.63448520  1  0  -0.077139  0  3.770449  0  0  -0.090176  0  4.026732  0  0  -0.094636  0  4.049617  0  0  -0.097354  -0.087324  0  4.011399  0
C  C30  1  0.68370556  0.54406849  0.36551621  1  0  -0.077256  0  3.770577  0  0  -0.090297  0  4.026845  0  0  -0.094756  0  4.049727  0  0  -0.097391  -0.087443  0  4.011517  0
C  C31  1  0.17091146  0.29143643  0.62034653  1  0  -0.050074  0  3.765275  0  0  -0.066506  0  4.017856  0  0  -0.066197  0  4.039765  0  0  -0.088806  -0.066138  0  4.002727  0
C  C32  1  0.82908868  0.70856906  0.37965604  1  0  -0.04995  0  3.765184  0  0  -0.066378  0  4.017781  0  0  -0.066068  0  4.039687  0  0  -0.088744  -0.066012  0  4.002655  0
C  C33  1  0.02133990  0.20851949  0.49924294  1  0  -0.085211  0  3.785942  0  0  -0.097017  0  4.039854  0  0  -0.101563  0  4.062044  0  0  -0.096982  -0.093973  0  4.024294  0
C  C34  1  0.97866032  0.79148351  0.50076048  1  0  -0.08517  0  3.785841  0  0  -0.096988  0  4.039739  0  0  -0.101532  0  4.061927  0  0  -0.096979  -0.093944  0  4.024178  0
C  C35  1  0.02000671  0.28890679  0.39297375  1  0  -0.065536  0  3.715674  0  0  -0.093496  0  3.96915  0  0  -0.091495  0  3.987133  0  0  -0.085243  -0.09415  0  3.956176  0
C  C36  1  0.97998926  0.71109374  0.60702879  1  0  -0.065566  0  3.715501  0  0  -0.093507  0  3.969006  0  0  -0.091505  0  3.986988  0  0  -0.085259  -0.094162  0  3.956029  0
C  C37  1  0.46776819  0.63922285  0.99354085  1  0  0.081751  0  3.649377  0  0  0.053096  0  3.9034  0  0  0.054529  0  3.921571  0  0  0.064753  0.052074  0  3.891382  0
C  C38  1  0.53223226  0.36077520  0.00645883  1  0  0.081841  0  3.649451  0  0  0.053235  0  3.903458  0  0  0.054667  0  3.921629  0  0  0.064845  0.052211  0  3.891443  0
C  C39  1  0.33802941  0.36127556  0.00672694  1  0  0.080538  0  3.651213  0  0  0.051795  0  3.905893  0  0  0.053393  0  3.923761  0  0  0.065334  0.050518  0  3.894404  0
C  C40  1  0.66196747  0.63872127  0.99327111  1  0  0.080568  0  3.651186  0  0  0.051863  0  3.905877  0  0  0.053461  0  3.923747  0  0  0.065353  0.050586  0  3.894384  0
N  N41  1  0.30700034  0.50050332  0.00025666  1  0  -0.250326  0  3.23965  0  0  -0.181553  0  3.498339  0  0  -0.193965  0  3.516213  0  0  -0.292224  -0.173325  0  3.486978  0
N  N42  1  0.69299582  0.49949225  0.99974395  1  0  -0.250413  0  3.239745  0  0  -0.181709  0  3.498486  0  0  -0.19412  0  3.516359  0  0  -0.292348  -0.17348  0  3.487124  0
O  O43  1  0.15839298  0.75133670  0.08056767  1  0  -0.527886  0  2.116192  0  0  -0.477396  0  2.370518  0  0  -0.501647  0  2.362079  0  0  -0.308488  -0.460304  0  2.375177  0
O  O44  1  0.84160176  0.24865889  0.91942994  1  0  -0.527907  0  2.116156  0  0  -0.477409  0  2.370448  0  0  -0.501656  0  2.362  0  0  -0.308518  -0.460317  0  2.375107  0
O  O45  1  0.04911451  0.43691164  0.18133185  1  0  -0.5415  0  2.068251  0  0  -0.47911  0  2.317062  0  0  -0.503744  0  2.306566  0  0  -0.292202  -0.461731  0  2.323668  0
O  O46  1  0.95088805  0.56308763  0.81867099  1  0  -0.541514  0  2.068229  0  0  -0.479111  0  2.31707  0  0  -0.503735  0  2.306549  0  0  -0.292246  -0.461735  0  2.323679  0
F  F47  1  0.47021790  0.04880517  0.36521289  1  0  -0.255097  0  1.187736  0  0  -0.203916  0  1.348182  0  0  -0.218316  0  1.337594  0  0  -0.08922  -0.196764  0  1.359211  0
F  F48  1  0.52979056  0.95119412  0.63478106  1  0  -0.255157  0  1.187701  0  0  -0.203967  0  1.348148  0  0  -0.21835  0  1.337547  0  0  -0.08925  -0.196817  0  1.359177  0
F  F49  1  0.51121172  0.05326032  0.17452058  1  0  -0.257308  0  1.139292  0  0  -0.213754  0  1.295038  0  0  -0.226049  0  1.282154  0  0  -0.100883  -0.206944  0  1.306906  0
F  F50  1  0.48878163  0.94673532  0.82546949  1  0  -0.257326  0  1.139282  0  0  -0.213794  0  1.295049  0  0  -0.2261  0  1.282189  0  0  -0.100888  -0.206984  0  1.306919  0
F  F51  1  0.21996714  0.05895692  0.19908750  1  0  -0.254076  0  1.120101  0  0  -0.215447  0  1.273169  0  0  -0.224398  0  1.257346  0  0  -0.106027  -0.208663  0  1.284216  0
F  F52  1  0.78003042  0.94104115  0.80091072  1  0  -0.254072  0  1.12009  0  0  -0.215445  0  1.273167  0  0  -0.224388  0  1.257346  0  0  -0.106044  -0.20866  0  1.284216  0
