# generated using pymatgen
data_VAg2H3C5N2O5
_symmetry_space_group_name_H-M   'P 1'
_cell_length_a   3.57488920
_cell_length_b   11.96715833
_cell_length_c   18.99998439
_cell_angle_alpha   89.12190623
_cell_angle_beta   88.44368589
_cell_angle_gamma   86.58545454
_symmetry_Int_Tables_number   1
_chemical_formula_structural   VAg2H3C5N2O5
_chemical_formula_sum   'V4 Ag8 H12 C20 N8 O20'
_cell_volume   811.02451425
_cell_formula_units_Z   4
loop_
 _symmetry_equiv_pos_site_id
 _symmetry_equiv_pos_as_xyz
  1  'x, y, z'
loop_
 _atom_site_type_symbol
 _atom_site_label
 _atom_site_symmetry_multiplicity
 _atom_site_fract_x
 _atom_site_fract_y
 _atom_site_fract_z
 _atom_site_occupancy
 _atom_site_hle17_bader_spin_density
 _atom_site_hle17_ddec_charge
 _atom_site_hle17_ddec_spin_density
 _atom_site_hle17_ddec_sum_bond_order
 _atom_site_hle17_magmom
 _atom_site_pbe_bader_spin_density
 _atom_site_pbe_cm5_charge
 _atom_site_pbe_ddec_charge
 _atom_site_pbe_ddec_spin_density
 _atom_site_pbe_ddec_sum_bond_order
 _atom_site_pbe_magmom
V  V0  1  0.24510870  0.07161496  0.94804340  1  0  2.024171  0  2.872851  0  0  1.413104  2.022356  0  3.25505  0
V  V1  1  0.75488713  0.92838665  0.05195855  1  0  2.024231  0  2.872884  0  0  1.413151  2.022477  0  3.254989  0
V  V2  1  0.76714618  0.43943005  0.44375463  1  0  2.018616  0  2.875641  0  0  1.409041  2.0157  0  3.258213  0
V  V3  1  0.23284848  0.56057659  0.55624307  1  0  2.01871  0  2.875461  0  0  1.409164  2.015783  0  3.258079  0
Ag  Ag4  1  0.17927538  0.14333726  0.48460234  1  0  0.674947  0  1.354207  0  0  0.450745  0.544871  0  1.837498  0
Ag  Ag5  1  0.82073012  0.85665850  0.51540172  1  0  0.674921  0  1.354361  0  0  0.450714  0.54487  0  1.837618  0
Ag  Ag6  1  0.81751210  0.27045681  0.85769088  1  0  0.614602  0  1.441341  0  0  0.458103  0.478943  0  1.932595  0
Ag  Ag7  1  0.18246757  0.72954145  0.14230910  1  0  0.614667  0  1.441236  0  0  0.458103  0.479012  0  1.932473  0
Ag  Ag8  1  0.39136969  0.66193799  0.00002894  1  0  0.669156  0  1.393981  0  0  0.451981  0.537251  0  1.886924  0
Ag  Ag9  1  0.60863376  0.33806699  0.99997031  1  0  0.669176  0  1.393914  0  0  0.451991  0.537265  0  1.886848  0
Ag  Ag10  1  0.61729774  0.74359207  0.64786644  1  0  0.601241  0  1.510997  0  0  0.458916  0.459408  0  2.020604  0
Ag  Ag11  1  0.38268477  0.25640619  0.35213458  1  0  0.601274  0  1.510969  0  0  0.45894  0.459467  0  2.020576  0
H  H12  1  0.11488062  0.06360133  0.76368007  1  0  0.120848  0  0.95561  0  0  0.123939  0.128515  0  1.018045  0
H  H13  1  0.88513944  0.93640533  0.23632432  1  0  0.12077  0  0.955717  0  0  0.123932  0.128445  0  1.018143  0
H  H14  1  0.60899746  0.37411775  0.70887661  1  0  0.117456  0  0.93442  0  0  0.126171  0.126085  0  0.99161  0
H  H15  1  0.39099290  0.62588219  0.29111855  1  0  0.117495  0  0.93438  0  0  0.126109  0.126103  0  0.991584  0
H  H16  1  0.73997530  0.33371381  0.58132588  1  0  0.087757  0  0.954671  0  0  0.124669  0.086284  0  1.033984  0
H  H17  1  0.26002363  0.66627191  0.41867042  1  0  0.087671  0  0.954573  0  0  0.124628  0.086211  0  1.033927  0
H  H18  1  0.06173740  0.55264810  0.73837455  1  0  0.123145  0  0.94869  0  0  0.124785  0.129675  0  1.012209  0
H  H19  1  0.93826113  0.44735352  0.26162423  1  0  0.123108  0  0.948706  0  0  0.124776  0.129657  0  1.012186  0
H  H20  1  0.91737993  0.85409152  0.90758085  1  0  0.092011  0  0.959744  0  0  0.125543  0.090654  0  1.037719  0
H  H21  1  0.08262136  0.14591011  0.09241686  1  0  0.092045  0  0.959806  0  0  0.125541  0.090673  0  1.03778  0
H  H22  1  0.68266789  0.88026676  0.78468339  1  0  0.12427  0  0.934806  0  0  0.129337  0.131055  0  0.992738  0
H  H23  1  0.31733372  0.11973319  0.21531328  1  0  0.124227  0  0.93478  0  0  0.129331  0.131052  0  0.992676  0
C  C24  1  0.31419733  0.99281277  0.63111956  1  0  0.616092  0  3.943852  0  0  0.198542  0.535458  0  4.237934  0
C  C25  1  0.68582263  0.00718133  0.36888811  1  0  0.616259  0  3.943182  0  0  0.198623  0.535568  0  4.237498  0
C  C26  1  0.10879317  0.10187875  0.65147182  1  0  0.058104  0  3.70813  0  0  0.114113  0.069968  0  3.933227  0
C  C27  1  0.89121235  0.89811701  0.34853276  1  0  0.058221  0  3.707839  0  0  0.114126  0.069887  0  3.933244  0
C  C28  1  0.03079689  0.12384842  0.72259551  1  0  0.082316  0  3.620117  0  0  0.060974  0.040805  0  3.855654  0
C  C29  1  0.96921554  0.87615404  0.27740581  1  0  0.08234  0  3.620097  0  0  0.060938  0.040918  0  3.855653  0
C  C30  1  0.75419673  0.29586621  0.69264926  1  0  0.105228  0  3.606066  0  0  0.062196  0.073348  0  3.838662  0
C  C31  1  0.24579964  0.70413207  0.30734799  1  0  0.104997  0  3.606227  0  0  0.062232  0.073222  0  3.838726  0
C  C32  1  0.82854844  0.27324294  0.62175299  1  0  0.094672  0  3.666605  0  0  0.059189  0.067378  0  3.914798  0
C  C33  1  0.17145392  0.72675366  0.37824581  1  0  0.095135  0  3.666411  0  0  0.059341  0.067746  0  3.914653  0
C  C34  1  0.35907736  0.49592530  0.86652992  1  0  0.613318  0  3.947275  0  0  0.197623  0.534728  0  4.237261  0
C  C35  1  0.64092174  0.50407380  0.13347046  1  0  0.613156  0  3.94727  0  0  0.19755  0.534598  0  4.237228  0
C  C36  1  0.02661782  0.61983336  0.77662012  1  0  0.066906  0  3.620641  0  0  0.054571  0.023923  0  3.864309  0
C  C37  1  0.97337335  0.38016323  0.22337875  1  0  0.066896  0  3.620574  0  0  0.054614  0.023962  0  3.864181  0
C  C38  1  0.16115734  0.60566996  0.84479579  1  0  0.065632  0  3.70341  0  0  0.114551  0.077443  0  3.92617  0
C  C39  1  0.83882491  0.39432914  0.15520259  1  0  0.065795  0  3.703148  0  0  0.114514  0.077542  0  3.925956  0
C  C40  1  0.95008814  0.78619958  0.87015027  1  0  0.093855  0  3.661161  0  0  0.060367  0.065971  0  3.910866  0
C  C41  1  0.04992208  0.21379954  0.12984794  1  0  0.093797  0  3.661451  0  0  0.060402  0.065951  0  3.911139  0
C  C42  1  0.82009214  0.80131354  0.80193189  1  0  0.099698  0  3.595644  0  0  0.060692  0.06751  0  3.828904  0
C  C43  1  0.17991489  0.19868726  0.19806474  1  0  0.099803  0  3.595678  0  0  0.060634  0.067551  0  3.829003  0
N  N44  1  0.00674260  0.17721338  0.60100303  1  0  -0.282293  0  3.255541  0  0  -0.308239  -0.218078  0  3.526484  0
N  N45  1  0.99326090  0.82277819  0.39899898  1  0  -0.282535  0  3.255597  0  0  -0.308258  -0.21823  0  3.526653  0
N  N46  1  0.85519892  0.22081389  0.74296505  1  0  -0.253045  0  3.25126  0  0  -0.315077  -0.173351  0  3.528794  0
N  N47  1  0.14480179  0.77919108  0.25703580  1  0  -0.253084  0  3.251603  0  0  -0.315069  -0.173394  0  3.529074  0
N  N48  1  0.85686275  0.71759493  0.75531690  1  0  -0.263446  0  3.285964  0  0  -0.321799  -0.18106  0  3.568325  0
N  N49  1  0.14313317  0.28240585  0.24468243  1  0  -0.263507  0  3.285998  0  0  -0.321791  -0.181134  0  3.568376  0
N  N50  1  0.12194970  0.68950962  0.89160430  1  0  -0.282334  0  3.272338  0  0  -0.30843  -0.216091  0  3.541707  0
N  N51  1  0.87805479  0.31049034  0.10839499  1  0  -0.282424  0  3.272282  0  0  -0.308425  -0.21615  0  3.541608  0
O  O52  1  0.32941317  0.96894124  0.56576738  1  0  -0.647836  0  2.213158  0  0  -0.326056  -0.541955  0  2.518887  0
O  O53  1  0.67060078  0.03105453  0.43423820  1  0  -0.647957  0  2.213034  0  0  -0.326129  -0.542054  0  2.518852  0
O  O54  1  0.45796892  0.93497007  0.68049260  1  0  -0.596686  0  2.035364  0  0  -0.30884  -0.514211  0  2.300874  0
O  O55  1  0.54205542  0.06502989  0.31951498  1  0  -0.596744  0  2.034808  0  0  -0.30888  -0.514241  0  2.300427  0
O  O56  1  0.53081092  0.49421447  0.92418250  1  0  -0.62123  0  2.152067  0  0  -0.318227  -0.523715  0  2.445399  0
O  O57  1  0.46917645  0.50578714  0.07581741  1  0  -0.62112  0  2.151871  0  0  -0.318151  -0.523616  0  2.445198  0
O  O58  1  0.34488491  0.41565467  0.82420145  1  0  -0.604778  0  2.051437  0  0  -0.312674  -0.516885  0  2.324308  0
O  O59  1  0.65511452  0.58434276  0.17579842  1  0  -0.604792  0  2.051583  0  0  -0.312693  -0.516918  0  2.32446  0
O  O60  1  0.22863169  0.21614713  0.94381978  1  0  -0.959361  0  1.786891  0  0  -0.624391  -0.887323  0  2.155716  0
O  O61  1  0.77136109  0.78385532  0.05617955  1  0  -0.959446  0  1.787003  0  0  -0.62442  -0.887406  0  2.155784  0
O  O62  1  0.27414524  0.02188442  0.86877725  1  0  -0.750001  0  1.28167  0  0  -0.58502  -0.742703  0  1.54074  0
O  O63  1  0.72584497  0.97811720  0.13122369  1  0  -0.74999  0  1.28166  0  0  -0.585058  -0.742742  0  1.540738  0
O  O64  1  0.74337335  0.05693560  0.98107349  1  0  -1.10054  0  1.812703  0  0  -0.719307  -1.085524  0  2.140829  0
O  O65  1  0.25662243  0.94306601  0.01892689  1  0  -1.100569  0  1.812684  0  0  -0.719326  -1.085571  0  2.140794  0
O  O66  1  0.80896859  0.29666088  0.43048872  1  0  -0.942535  0  1.776275  0  0  -0.625941  -0.869365  0  2.14504  0
O  O67  1  0.19104032  0.70334410  0.56950628  1  0  -0.942562  0  1.77628  0  0  -0.625973  -0.869398  0  2.145086  0
O  O68  1  0.26321250  0.44731142  0.47761052  1  0  -1.096464  0  1.806459  0  0  -0.718629  -1.081658  0  2.134692  0
O  O69  1  0.73678415  0.55269858  0.52238346  1  0  -1.096486  0  1.806363  0  0  -0.718635  -1.081701  0  2.134658  0
O  O70  1  0.76825940  0.50348285  0.36754941  1  0  -0.763451  0  1.304438  0  0  -0.586482  -0.755389  0  1.569996  0
O  O71  1  0.23174659  0.49652296  0.63244718  1  0  -0.76352  0  1.304406  0  0  -0.586586  -0.755423  0  1.569917  0
