# generated using pymatgen
data_UH14C16(NO4)2
_symmetry_space_group_name_H-M   'P 1'
_cell_length_a   9.66624556
_cell_length_b   10.16868771
_cell_length_c   10.77972566
_cell_angle_alpha   64.54889333
_cell_angle_beta   69.96859769
_cell_angle_gamma   74.76646661
_symmetry_Int_Tables_number   1
_chemical_formula_structural   UH14C16(NO4)2
_chemical_formula_sum   'U2 H28 C32 N4 O16'
_cell_volume   890.48710039
_cell_formula_units_Z   2
loop_
 _symmetry_equiv_pos_site_id
 _symmetry_equiv_pos_as_xyz
  1  'x, y, z'
loop_
 _atom_site_type_symbol
 _atom_site_label
 _atom_site_symmetry_multiplicity
 _atom_site_fract_x
 _atom_site_fract_y
 _atom_site_fract_z
 _atom_site_occupancy
 _atom_site_hle17_bader_spin_density
 _atom_site_hle17_ddec_charge
 _atom_site_hle17_ddec_spin_density
 _atom_site_hle17_ddec_sum_bond_order
 _atom_site_hle17_magmom
 _atom_site_hse06_10hf_bader_spin_density
 _atom_site_hse06_10hf_ddec_charge
 _atom_site_hse06_10hf_ddec_spin_density
 _atom_site_hse06_10hf_ddec_sum_bond_order
 _atom_site_hse06_10hf_magmom
 _atom_site_hse06_bader_spin_density
 _atom_site_hse06_ddec_charge
 _atom_site_hse06_ddec_spin_density
 _atom_site_hse06_ddec_sum_bond_order
 _atom_site_hse06_magmom
 _atom_site_pbe_bader_spin_density
 _atom_site_pbe_cm5_charge
 _atom_site_pbe_ddec_charge
 _atom_site_pbe_ddec_spin_density
 _atom_site_pbe_ddec_sum_bond_order
 _atom_site_pbe_magmom
U  U0  1  0.54326533  0.09910304  0.67958976  1  0  2.500416  0  4.156981  0  0  2.562313  0  4.813829  0  0  2.671782  0  4.775343  0  0  2.191564  2.484699  0  4.842436  0
U  U1  1  0.45673642  0.90089806  0.32040806  1  0  2.500454  0  4.156903  0  0  2.562337  0  4.81374  0  0  2.671809  0  4.77526  0  0  2.191527  2.484756  0  4.842307  0
H  H2  1  0.75159416  0.91034147  0.87171088  1  0  0.420801  0  0.887919  0  0  0.392205  0  0.948646  0  0  0.405478  0  0.929753  0  0  0.302224  0.382632  0  0.962225  0
H  H3  1  0.24840319  0.08965960  0.12828922  1  0  0.420727  0  0.888024  0  0  0.392167  0  0.948682  0  0  0.405438  0  0.929796  0  0  0.30221  0.382602  0  0.962251  0
H  H4  1  0.58623780  0.87346966  0.97003338  1  0  0.447926  0  0.846967  0  0  0.424819  0  0.898565  0  0  0.437413  0  0.880386  0  0  0.309185  0.415994  0  0.911274  0
H  H5  1  0.41376082  0.12653032  0.02996678  1  0  0.447945  0  0.846938  0  0  0.424841  0  0.89853  0  0  0.437435  0  0.88035  0  0  0.309196  0.416019  0  0.911235  0
H  H6  1  0.35316021  0.45744180  0.44386013  1  0  0.121446  0  0.951386  0  0  0.130459  0  1.011733  0  0  0.134103  0  1.009196  0  0  0.116092  0.127852  0  1.013377  0
H  H7  1  0.64683950  0.54255818  0.55613969  1  0  0.121421  0  0.951393  0  0  0.130428  0  1.01175  0  0  0.134072  0  1.009215  0  0  0.116075  0.127824  0  1.013394  0
H  H8  1  0.18455494  0.68924943  0.36268175  1  0  0.110721  0  0.983209  0  0  0.120814  0  1.044997  0  0  0.124  0  1.04306  0  0  0.106354  0.118642  0  1.046569  0
H  H9  1  0.81544384  0.31074944  0.63731880  1  0  0.110731  0  0.983202  0  0  0.120825  0  1.044978  0  0  0.12401  0  1.043045  0  0  0.106356  0.118656  0  1.046551  0
H  H10  1  0.95470565  0.47045517  0.24253713  1  0  0.095926  0  0.965484  0  0  0.106009  0  1.027478  0  0  0.108006  0  1.028414  0  0  0.101691  0.10477  0  1.026582  0
H  H11  1  0.04529548  0.52954262  0.75746313  1  0  0.095948  0  0.965447  0  0  0.106031  0  1.027433  0  0  0.108028  0  1.02837  0  0  0.101702  0.104791  0  1.026537  0
H  H12  1  0.12285046  0.23821066  0.32529715  1  0  0.112257  0  0.931998  0  0  0.12384  0  0.986088  0  0  0.127154  0  0.983981  0  0  0.116364  0.121423  0  0.987662  0
H  H13  1  0.87715052  0.76178825  0.67470179  1  0  0.112224  0  0.932028  0  0  0.123841  0  0.986078  0  0  0.127141  0  0.983989  0  0  0.116361  0.121422  0  0.987652  0
H  H14  1  0.84741931  0.73155248  0.27466254  1  0  0.10865  0  0.933116  0  0  0.116497  0  1.008008  0  0  0.117919  0  1.006018  0  0  0.129054  0.115298  0  1.009035  0
H  H15  1  0.15257963  0.26844529  0.72533840  1  0  0.108676  0  0.933094  0  0  0.116529  0  1.007964  0  0  0.117954  0  1.005975  0  0  0.129061  0.115328  0  1.008994  0
H  H16  1  0.98914549  0.82518752  0.25857137  1  0  0.100251  0  0.902115  0  0  0.113927  0  0.963374  0  0  0.114807  0  0.961258  0  0  0.1207  0.113314  0  0.96404  0
H  H17  1  0.01085361  0.17480916  0.74142996  1  0  0.100248  0  0.902077  0  0  0.113909  0  0.963348  0  0  0.114791  0  0.961233  0  0  0.120686  0.113295  0  0.964014  0
H  H18  1  0.21439738  0.82057603  0.05035766  1  0  0.109391  0  0.902645  0  0  0.126866  0  0.957596  0  0  0.12803  0  0.955552  0  0  0.126614  0.125823  0  0.95874  0
H  H19  1  0.78560233  0.17942395  0.94964309  1  0  0.109393  0  0.902641  0  0  0.126852  0  0.957605  0  0  0.128014  0  0.95556  0  0  0.126615  0.125809  0  0.958749  0
H  H20  1  0.14334464  0.91991221  0.89780473  1  0  0.108715  0  0.936536  0  0  0.118241  0  1.004951  0  0  0.120151  0  1.001046  0  0  0.12007  0.116854  0  1.007158  0
H  H21  1  0.85665507  0.08008776  0.10219695  1  0  0.108767  0  0.936472  0  0  0.118219  0  1.00496  0  0  0.120123  0  1.00106  0  0  0.120083  0.116836  0  1.007169  0
H  H22  1  0.31310197  0.55517360  0.11154997  1  0  0.086599  0  0.998222  0  0  0.095468  0  1.064624  0  0  0.096695  0  1.067435  0  0  0.097699  0.094512  0  1.062947  0
H  H23  1  0.68689665  0.44482636  0.88845112  1  0  0.086595  0  0.998251  0  0  0.095463  0  1.064656  0  0  0.09669  0  1.067467  0  0  0.097708  0.094507  0  1.062979  0
H  H24  1  0.42287885  0.34921949  0.02959112  1  0  0.100057  0  0.950245  0  0  0.112037  0  1.007472  0  0  0.11494  0  1.005877  0  0  0.108299  0.109742  0  1.008905  0
H  H25  1  0.57711960  0.65078158  0.97040865  1  0  0.100057  0  0.950218  0  0  0.112031  0  1.007445  0  0  0.114934  0  1.00585  0  0  0.1083  0.10974  0  1.008868  0
H  H26  1  0.28940073  0.60471746  0.64061706  1  0  0.108871  0  0.948845  0  0  0.119162  0  1.009234  0  0  0.122396  0  1.006583  0  0  0.11458  0.117097  0  1.010837  0
H  H27  1  0.71059866  0.39528472  0.35938384  1  0  0.108866  0  0.948821  0  0  0.11916  0  1.009206  0  0  0.122395  0  1.006552  0  0  0.114581  0.117098  0  1.010812  0
H  H28  1  0.17151808  0.80845958  0.72703482  1  0  0.111028  0  0.935202  0  0  0.121181  0  0.992866  0  0  0.124812  0  0.990593  0  0  0.113655  0.118522  0  0.994788  0
H  H29  1  0.82848273  0.19154041  0.27296559  1  0  0.111053  0  0.935179  0  0  0.121203  0  0.992847  0  0  0.124834  0  0.990573  0  0  0.113688  0.118546  0  0.99477  0
C  C30  1  0.35762231  0.19856502  0.42570431  1  0  0.72378  0  3.809939  0  0  0.696821  0  4.089314  0  0  0.739234  0  4.074013  0  0  0.261089  0.667212  0  4.09925  0
C  C31  1  0.64238055  0.80143610  0.57429317  1  0  0.723736  0  3.80995  0  0  0.696679  0  4.089478  0  0  0.739085  0  4.074188  0  0  0.261065  0.667081  0  4.099389  0
C  C32  1  0.24995810  0.33438467  0.38723590  1  0  -0.091528  0  3.75078  0  0  -0.068778  0  3.97544  0  0  -0.079637  0  3.999174  0  0  -0.013025  -0.061351  0  3.959426  0
C  C33  1  0.75004381  0.66561533  0.61276324  1  0  -0.091372  0  3.750683  0  0  -0.0686  0  3.975365  0  0  -0.079456  0  3.999098  0  0  -0.012963  -0.061173  0  3.959343  0
C  C34  1  0.26568898  0.46102607  0.39981831  1  0  -0.047125  0  3.694003  0  0  -0.07246  0  3.944926  0  0  -0.070905  0  3.96493  0  0  -0.073472  -0.073302  0  3.931201  0
C  C35  1  0.73431057  0.53897501  0.60018205  1  0  -0.04717  0  3.694054  0  0  -0.072503  0  3.944974  0  0  -0.07095  0  3.964978  0  0  -0.073474  -0.073348  0  3.931253  0
C  C36  1  0.17026648  0.59060301  0.35465612  1  0  -0.124687  0  3.722147  0  0  -0.146359  0  3.973788  0  0  -0.151485  0  3.996225  0  0  -0.086768  -0.14332  0  3.958928  0
C  C37  1  0.82973323  0.40939698  0.64534370  1  0  -0.124726  0  3.72206  0  0  -0.146377  0  3.973716  0  0  -0.151498  0  3.996146  0  0  -0.086784  -0.143342  0  3.958862  0
C  C38  1  0.05944207  0.59520324  0.29630456  1  0  0.085451  0  3.744975  0  0  0.10321  0  3.989522  0  0  0.104026  0  4.011569  0  0  -0.003563  0.10299  0  3.972882  0
C  C39  1  0.94055859  0.40479785  0.70369453  1  0  0.085526  0  3.744818  0  0  0.103223  0  3.989425  0  0  0.104042  0  4.011472  0  0  -0.003544  0.103001  0  3.972783  0
C  C40  1  0.04058360  0.46711247  0.28854216  1  0  -0.107839  0  3.721627  0  0  -0.128413  0  3.972657  0  0  -0.132914  0  3.995155  0  0  -0.084042  -0.125089  0  3.956717  0
C  C41  1  0.95941721  0.53288752  0.71145825  1  0  -0.107873  0  3.721574  0  0  -0.128429  0  3.972629  0  0  -0.13293  0  3.995119  0  0  -0.084071  -0.125105  0  3.956687  0
C  C42  1  0.13484815  0.33734229  0.33378556  1  0  -0.045396  0  3.702465  0  0  -0.069815  0  3.948955  0  0  -0.068631  0  3.969248  0  0  -0.071491  -0.070354  0  3.935129  0
C  C43  1  0.86515283  0.66265661  0.66621431  1  0  -0.045392  0  3.702415  0  0  -0.069836  0  3.948899  0  0  -0.068641  0  3.969196  0  0  -0.071473  -0.070375  0  3.935072  0
C  C44  1  0.96703428  0.73919586  0.23426701  1  0  -0.08091  0  3.640085  0  0  -0.163674  0  3.904142  0  0  -0.149476  0  3.916409  0  0  -0.042222  -0.166475  0  3.897786  0
C  C45  1  0.03296575  0.26080192  0.76573452  1  0  -0.080968  0  3.639978  0  0  -0.163689  0  3.90402  0  0  -0.149503  0  3.916301  0  0  -0.04221  -0.166491  0  3.897664  0
C  C46  1  0.15227668  0.81370892  0.98567860  1  0  -0.080601  0  3.614335  0  0  -0.157582  0  3.864578  0  0  -0.141577  0  3.873619  0  0  -0.051512  -0.161598  0  3.860691  0
C  C47  1  0.84772303  0.18629105  0.01432308  1  0  -0.08064  0  3.614266  0  0  -0.157553  0  3.864549  0  0  -0.14154  0  3.873583  0  0  -0.051518  -0.161568  0  3.860666  0
C  C48  1  0.22829957  0.69303308  0.92836157  1  0  0.099681  0  3.703193  0  0  0.116441  0  3.945745  0  0  0.117348  0  3.966757  0  0  0.000405  0.116253  0  3.930118  0
C  C49  1  0.77170014  0.30696690  0.07163917  1  0  0.099724  0  3.703146  0  0  0.11647  0  3.945712  0  0  0.117377  0  3.966722  0  0  0.000423  0.116278  0  3.930091  0
C  C50  1  0.30350678  0.56468689  0.01026404  1  0  -0.124312  0  3.761966  0  0  -0.141775  0  4.007259  0  0  -0.146414  0  4.031282  0  0  -0.091757  -0.138876  0  3.991143  0
C  C51  1  0.69649293  0.43531309  0.98973671  1  0  -0.124321  0  3.761991  0  0  -0.141789  0  4.007285  0  0  -0.146428  0  4.031311  0  0  -0.091794  -0.138887  0  3.991168  0
C  C52  1  0.35848517  0.46103777  0.83192048  1  0  -0.085958  0  3.785865  0  0  -0.06245  0  4.018949  0  0  -0.072148  0  4.042306  0  0  -0.023478  -0.056246  0  4.003442  0
C  C53  1  0.64151439  0.53896331  0.16807988  1  0  -0.086074  0  3.785962  0  0  -0.062569  0  4.01904  0  0  -0.072264  0  4.042396  0  0  -0.023508  -0.056364  0  4.003532  0
C  C54  1  0.36657023  0.44890647  0.96376186  1  0  -0.049513  0  3.730252  0  0  -0.072938  0  3.973936  0  0  -0.071749  0  3.994436  0  0  -0.078118  -0.073175  0  3.960121  0
C  C55  1  0.63342965  0.55109241  0.03623835  1  0  -0.049479  0  3.730241  0  0  -0.072876  0  3.973896  0  0  -0.07169  0  3.994398  0  0  -0.078109  -0.073118  0  3.960074  0
C  C56  1  0.29021487  0.59242340  0.74580214  1  0  -0.046608  0  3.711362  0  0  -0.071164  0  3.961437  0  0  -0.068915  0  3.979964  0  0  -0.072128  -0.072957  0  3.949211  0
C  C57  1  0.70978485  0.40757657  0.25419861  1  0  -0.046516  0  3.711369  0  0  -0.071073  0  3.961429  0  0  -0.068824  0  3.979956  0  0  -0.072095  -0.072868  0  3.94921  0
C  C58  1  0.42270698  0.33729327  0.78290948  1  0  0.635113  0  3.905238  0  0  0.588009  0  4.220571  0  0  0.624708  0  4.213186  0  0  0.20929  0.562555  0  4.224728  0
C  C59  1  0.57729257  0.66270781  0.21709088  1  0  0.635116  0  3.905268  0  0  0.587999  0  4.220627  0  0  0.624697  0  4.213244  0  0  0.209302  0.562545  0  4.224783  0
C  C60  1  0.22493447  0.70711093  0.79404385  1  0  -0.103235  0  3.701963  0  0  -0.12749  0  3.956743  0  0  -0.130987  0  3.976662  0  0  -0.079882  -0.125378  0  3.943946  0
C  C61  1  0.77506508  0.29289015  0.20595650  1  0  -0.103308  0  3.70203  0  0  -0.127551  0  3.956809  0  0  -0.131047  0  3.976728  0  0  -0.079926  -0.12544  0  3.944021  0
N  N62  1  0.00037318  0.78907688  0.07840932  1  0  0.02997  0  3.386729  0  0  0.140982  0  3.596631  0  0  0.095468  0  3.655744  0  0  -0.117833  0.150344  0  3.582086  0
N  N63  1  0.99962560  0.21092199  0.92159216  1  0  0.029953  0  3.386732  0  0  0.140966  0  3.596602  0  0  0.095454  0  3.655718  0  0  -0.117847  0.150329  0  3.582054  0
N  N64  1  0.88623788  0.82065006  0.02752441  1  0  0.113183  0  3.037153  0  0  0.082084  0  3.340692  0  0  0.111286  0  3.351772  0  0  -0.025404  0.070653  0  3.335791  0
N  N65  1  0.11376184  0.17934993  0.97247540  1  0  0.113208  0  3.037073  0  0  0.082114  0  3.340618  0  0  0.111316  0  3.351697  0  0  -0.025384  0.070681  0  3.335721  0
O  O66  1  0.37277099  0.01846918  0.77568201  1  0  -0.716245  0  1.551309  0  0  -0.726643  0  1.839778  0  0  -0.748757  0  1.828073  0  0  -0.763478  -0.713565  0  1.849551  0
O  O67  1  0.62723076  0.98153194  0.22431302  1  0  -0.716305  0  1.551359  0  0  -0.726689  0  1.839813  0  0  -0.748804  0  1.828107  0  0  -0.763498  -0.713624  0  1.849589  0
O  O68  1  0.71725824  0.17489350  0.58766857  1  0  -0.710088  0  1.522798  0  0  -0.712451  0  1.791085  0  0  -0.73325  0  1.776753  0  0  -0.759939  -0.699614  0  1.801533  0
O  O69  1  0.28274021  0.82510757  0.41233212  1  0  -0.710038  0  1.52275  0  0  -0.712402  0  1.791033  0  0  -0.733203  0  1.776697  0  0  -0.759872  -0.699569  0  1.801466  0
O  O70  1  0.41376704  0.34668400  0.66373419  1  0  -0.631033  0  1.99141  0  0  -0.614757  0  2.257704  0  0  -0.64595  0  2.252933  0  0  -0.342547  -0.591939  0  2.259632  0
O  O71  1  0.58623471  0.65331710  0.33626549  1  0  -0.631033  0  1.991407  0  0  -0.614729  0  2.257673  0  0  -0.645925  0  2.252905  0  0  -0.342546  -0.591917  0  2.259601  0
O  O72  1  0.49007284  0.21686013  0.85838165  1  0  -0.674169  0  2.021141  0  0  -0.643927  0  2.271188  0  0  -0.676242  0  2.264784  0  0  -0.341571  -0.621014  0  2.275344  0
O  O73  1  0.50992687  0.78313986  0.14161723  1  0  -0.674159  0  2.021113  0  0  -0.643924  0  2.271176  0  0  -0.676237  0  2.264773  0  0  -0.341582  -0.621016  0  2.275332  0
O  O74  1  0.45860224  0.19615763  0.47834233  1  0  -0.66461  0  2.101915  0  0  -0.657037  0  2.382572  0  0  -0.694716  0  2.375784  0  0  -0.37155  -0.629542  0  2.386378  0
O  O75  1  0.54140171  0.80384351  0.52165294  1  0  -0.664627  0  2.101914  0  0  -0.657012  0  2.382594  0  0  -0.694684  0  2.375801  0  0  -0.371557  -0.629542  0  2.386426  0
O  O76  1  0.34567397  0.08959918  0.40293531  1  0  -0.670164  0  2.085344  0  0  -0.65893  0  2.353688  0  0  -0.694445  0  2.343135  0  0  -0.371517  -0.633234  0  2.359878  0
O  O77  1  0.65432888  0.91040193  0.59706310  1  0  -0.670144  0  2.085364  0  0  -0.658883  0  2.353764  0  0  -0.694394  0  2.343209  0  0  -0.371535  -0.633186  0  2.359946  0
O  O78  1  0.64351365  0.92748916  0.87066063  1  0  -0.89456  0  1.915655  0  0  -0.872379  0  2.116323  0  0  -0.900139  0  2.083086  0  0  -0.630696  -0.851686  0  2.139037  0
O  O79  1  0.35648371  0.07251190  0.12933947  1  0  -0.894548  0  1.915701  0  0  -0.872392  0  2.116358  0  0  -0.90015  0  2.083125  0  0  -0.630711  -0.851703  0  2.139051  0
O  O80  1  0.91474043  0.87416418  0.89268272  1  0  -0.381677  0  1.916695  0  0  -0.342389  0  2.156932  0  0  -0.361451  0  2.148366  0  0  -0.148936  -0.328486  0  2.158909  0
O  O81  1  0.08525819  0.12583579  0.10731744  1  0  -0.381654  0  1.916662  0  0  -0.342385  0  2.156879  0  0  -0.361444  0  2.148314  0  0  -0.14894  -0.328487  0  2.158856  0
