# generated using pymatgen
data_BiH9C5SNClO2
_symmetry_space_group_name_H-M   'P 1'
_cell_length_a   6.57147611
_cell_length_b   7.23758139
_cell_length_c   10.12511757
_cell_angle_alpha   89.99954043
_cell_angle_beta   105.42037218
_cell_angle_gamma   90.00017138
_symmetry_Int_Tables_number   1
_chemical_formula_structural   BiH9C5SNClO2
_chemical_formula_sum   'Bi2 H18 C10 S2 N2 Cl2 O4'
_cell_volume   464.23076430
_cell_formula_units_Z   2
loop_
 _symmetry_equiv_pos_site_id
 _symmetry_equiv_pos_as_xyz
  1  'x, y, z'
loop_
 _atom_site_type_symbol
 _atom_site_label
 _atom_site_symmetry_multiplicity
 _atom_site_fract_x
 _atom_site_fract_y
 _atom_site_fract_z
 _atom_site_occupancy
 _atom_site_hle17_bader_spin_density
 _atom_site_hle17_ddec_charge
 _atom_site_hle17_ddec_spin_density
 _atom_site_hle17_ddec_sum_bond_order
 _atom_site_hle17_magmom
 _atom_site_hse06_10hf_bader_spin_density
 _atom_site_hse06_10hf_ddec_charge
 _atom_site_hse06_10hf_ddec_spin_density
 _atom_site_hse06_10hf_ddec_sum_bond_order
 _atom_site_hse06_10hf_magmom
 _atom_site_hse06_bader_spin_density
 _atom_site_hse06_ddec_charge
 _atom_site_hse06_ddec_spin_density
 _atom_site_hse06_ddec_sum_bond_order
 _atom_site_hse06_magmom
 _atom_site_pbe_bader_spin_density
 _atom_site_pbe_cm5_charge
 _atom_site_pbe_ddec_charge
 _atom_site_pbe_ddec_spin_density
 _atom_site_pbe_ddec_sum_bond_order
 _atom_site_pbe_magmom
Bi  Bi0  1  0.40332929  0.50134588  0.05742624  1  0  1.319204  0  2.35075  0  0  1.143885  0  2.829057  0  0  1.200916  0  2.795287  0  0  0.673013  1.102477  0  2.854918  0
Bi  Bi1  1  0.59667671  0.00134267  0.94258089  1  0  1.319226  0  2.35079  0  0  1.143898  0  2.829094  0  0  1.200907  0  2.79532  0  0  0.673032  1.10249  0  2.854957  0
H  H2  1  0.29089891  0.67577427  0.28578415  1  0  0.30356  0  0.886323  0  0  0.296631  0  0.93423  0  0  0.302777  0  0.93055  0  0  0.302828  0.292179  0  0.937086  0
H  H3  1  0.70909311  0.17576701  0.71422262  1  0  0.303564  0  0.886324  0  0  0.296624  0  0.934257  0  0  0.30277  0  0.930571  0  0  0.302827  0.292172  0  0.937111  0
H  H4  1  0.09821541  0.72871651  0.14585200  1  0  0.319946  0  0.913685  0  0  0.301639  0  0.978031  0  0  0.310383  0  0.971052  0  0  0.291853  0.295315  0  0.983297  0
H  H5  1  0.90179219  0.22872064  0.85414124  1  0  0.319963  0  0.913668  0  0  0.3017  0  0.977976  0  0  0.310454  0  0.970988  0  0  0.291865  0.295372  0  0.983256  0
H  H6  1  0.95219472  0.51004580  0.27973021  1  0  0.084513  0  0.938312  0  0  0.09445  0  1.000796  0  0  0.096529  0  0.999724  0  0  0.105928  0.093119  0  1.001463  0
H  H7  1  0.04780324  0.01004636  0.72026664  1  0  0.08452  0  0.938357  0  0  0.094447  0  1.000842  0  0  0.096525  0  0.999771  0  0  0.105922  0.093116  0  1.00151  0
H  H8  1  0.03100292  0.07345836  0.23330214  1  0  0.115412  0  0.971354  0  0  0.131242  0  1.040525  0  0  0.133379  0  1.039903  0  0  0.081143  0.12974  0  1.040961  0
H  H9  1  0.96899821  0.57346069  0.76669191  1  0  0.115455  0  0.971365  0  0  0.131258  0  1.040559  0  0  0.1334  0  1.039924  0  0  0.081142  0.129757  0  1.040994  0
H  H10  1  0.19294196  0.05020953  0.40354709  1  0  0.109371  0  0.937071  0  0  0.133689  0  0.992125  0  0  0.135192  0  0.991885  0  0  0.085836  0.132738  0  0.992087  0
H  H11  1  0.80704978  0.55021885  0.59645147  1  0  0.109358  0  0.93713  0  0  0.133715  0  0.992136  0  0  0.135214  0  0.991899  0  0  0.085851  0.132766  0  0.992095  0
H  H12  1  0.95514387  0.18189976  0.37066800  1  0  0.110705  0  0.946251  0  0  0.131606  0  1.008834  0  0  0.133091  0  1.008751  0  0  0.086368  0.130347  0  1.009155  0
H  H13  1  0.04484794  0.68190666  0.62932586  1  0  0.110701  0  0.946291  0  0  0.131605  0  1.008872  0  0  0.133085  0  1.008794  0  0  0.086368  0.130348  0  1.009191  0
H  H14  1  0.40726129  0.30291648  0.52597779  1  0  0.105329  0  0.964398  0  0  0.125914  0  1.029352  0  0  0.127584  0  1.028637  0  0  0.080582  0.124273  0  1.030592  0
H  H15  1  0.59273242  0.80291969  0.47402754  1  0  0.105295  0  0.964378  0  0  0.125871  0  1.029349  0  0  0.127534  0  1.028641  0  0  0.080551  0.124231  0  1.030587  0
H  H16  1  0.41292784  0.52392857  0.45422665  1  0  0.093807  0  0.976256  0  0  0.112107  0  1.045355  0  0  0.113636  0  1.044782  0  0  0.080633  0.111246  0  1.045369  0
H  H17  1  0.58706070  0.02393391  0.54577053  1  0  0.093761  0  0.976304  0  0  0.112049  0  1.045423  0  0  0.113578  0  1.04485  0  0  0.080614  0.111189  0  1.045437  0
H  H18  1  0.18574132  0.44909635  0.50492078  1  0  0.110203  0  0.947305  0  0  0.134829  0  1.00326  0  0  0.135837  0  1.004094  0  0  0.087426  0.134052  0  1.003268  0
H  H19  1  0.81424604  0.94910268  0.49507179  1  0  0.110297  0  0.947159  0  0  0.134915  0  1.003123  0  0  0.135923  0  1.003956  0  0  0.087432  0.134143  0  1.003125  0
C  C20  1  0.94500998  0.38919434  0.08625131  1  0  0.679126  0  3.782704  0  0  0.620882  0  4.087903  0  0  0.656613  0  4.079137  0  0  0.226276  0.596326  0  4.093359  0
C  C21  1  0.05500108  0.88919118  0.91375048  1  0  0.679219  0  3.782877  0  0  0.620938  0  4.088095  0  0  0.656643  0  4.079336  0  0  0.226246  0.596378  0  4.09356  0
C  C22  1  0.06814873  0.46575111  0.22533118  1  0  -0.018921  0  3.606063  0  0  -0.043645  0  3.844247  0  0  -0.04569  0  3.857757  0  0  -0.002673  -0.041985  0  3.834812  0
C  C23  1  0.93185295  0.96575601  0.77466861  1  0  -0.01893  0  3.606024  0  0  -0.043628  0  3.844216  0  0  -0.045676  0  3.85774  0  0  -0.002595  -0.041966  0  3.834772  0
C  C24  1  0.21509936  0.31989130  0.31600369  1  0  0.21438  0  3.513503  0  0  0.24235  0  3.758877  0  0  0.245631  0  3.778099  0  0  -0.000976  0.24019  0  3.745695  0
C  C25  1  0.78489901  0.81989820  0.68399638  1  0  0.214547  0  3.513392  0  0  0.242466  0  3.758808  0  0  0.245746  0  3.778028  0  0  -0.00093  0.240305  0  3.745629  0
C  C26  1  0.09055531  0.14572513  0.33098816  1  0  -0.342036  0  3.650651  0  0  -0.421868  0  3.887445  0  0  -0.424835  0  3.896493  0  0  -0.252278  -0.419495  0  3.881167  0
C  C27  1  0.90943806  0.64573254  0.66900715  1  0  -0.342153  0  3.650819  0  0  -0.421971  0  3.8876  0  0  -0.424926  0  3.896645  0  0  -0.252344  -0.4196  0  3.88132  0
C  C28  1  0.31032051  0.40533216  0.45748798  1  0  -0.340477  0  3.676251  0  0  -0.42325  0  3.917355  0  0  -0.426181  0  3.927486  0  0  -0.251456  -0.4208  0  3.910635  0
C  C29  1  0.68967797  0.90533901  0.54251360  1  0  -0.340541  0  3.676208  0  0  -0.423284  0  3.917327  0  0  -0.42621  0  3.927461  0  0  -0.251425  -0.420836  0  3.910602  0
S  S30  1  0.43681707  0.25283231  0.24337153  1  0  -0.454427  0  1.897948  0  0  -0.423936  0  2.229783  0  0  -0.440307  0  2.227105  0  0  -0.182164  -0.412168  0  2.232631  0
S  S31  1  0.56318452  0.75283919  0.75663737  1  0  -0.454501  0  1.898003  0  0  -0.424013  0  2.229851  0  0  -0.440382  0  2.227177  0  0  -0.182173  -0.412244  0  2.232702  0
N  N32  1  0.19236269  0.62300423  0.19840109  1  0  -0.611541  0  3.143136  0  0  -0.551931  0  3.361534  0  0  -0.571748  0  3.364021  0  0  -0.590329  -0.538555  0  3.359916  0
N  N33  1  0.80764026  0.12300455  0.80160384  1  0  -0.611566  0  3.143291  0  0  -0.551936  0  3.361473  0  0  -0.571752  0  3.363955  0  0  -0.590345  -0.538561  0  3.359853  0
Cl  Cl34  1  0.66573884  0.76274629  0.20179903  1  0  -0.538719  0  0.924918  0  0  -0.489458  0  1.177078  0  0  -0.507795  0  1.162163  0  0  -0.242352  -0.476278  0  1.189211  0
Cl  Cl35  1  0.33427079  0.26275227  0.79821905  1  0  -0.538701  0  0.924941  0  0  -0.489431  0  1.177081  0  0  -0.507788  0  1.162204  0  0  -0.242339  -0.476251  0  1.189213  0
O  O36  1  0.03544849  0.39592789  0.98894488  1  0  -0.599098  0  2.047843  0  0  -0.527684  0  2.281198  0  0  -0.557265  0  2.274962  0  0  -0.281464  -0.507052  0  2.285907  0
O  O37  1  0.96456572  0.89592484  0.01105640  1  0  -0.599159  0  2.047944  0  0  -0.527715  0  2.281291  0  0  -0.557217  0  2.275001  0  0  -0.281478  -0.507083  0  2.285997  0
O  O38  1  0.76344357  0.32047370  0.07309707  1  0  -0.660326  0  2.096044  0  0  -0.587477  0  2.347067  0  0  -0.617776  0  2.340844  0  0  -0.298211  -0.565695  0  2.350731  0
O  O39  1  0.23655627  0.82047779  0.92689732  1  0  -0.660368  0  2.096298  0  0  -0.587485  0  2.347303  0  0  -0.617798  0  2.341118  0  0  -0.298201  -0.565702  0  2.35097  0
