# generated using pymatgen
data_ZnNiH16C10(N3O)2
_symmetry_space_group_name_H-M   'P 1'
_cell_length_a   8.84720102
_cell_length_b   11.23351214
_cell_length_c   14.74360000
_cell_angle_alpha   90.00000000
_cell_angle_beta   90.00000000
_cell_angle_gamma   90.00000000
_symmetry_Int_Tables_number   1
_chemical_formula_structural   ZnNiH16C10(N3O)2
_chemical_formula_sum   'Zn4 Ni4 H64 C40 N24 O8'
_cell_volume   1465.29475015
_cell_formula_units_Z   4
loop_
 _symmetry_equiv_pos_site_id
 _symmetry_equiv_pos_as_xyz
  1  'x, y, z'
loop_
 _atom_site_type_symbol
 _atom_site_label
 _atom_site_symmetry_multiplicity
 _atom_site_fract_x
 _atom_site_fract_y
 _atom_site_fract_z
 _atom_site_occupancy
 _atom_site_hle17_bader_spin_density
 _atom_site_hle17_ddec_charge
 _atom_site_hle17_ddec_spin_density
 _atom_site_hle17_ddec_sum_bond_order
 _atom_site_hle17_magmom
 _atom_site_hse06_10hf_bader_spin_density
 _atom_site_hse06_10hf_ddec_charge
 _atom_site_hse06_10hf_ddec_spin_density
 _atom_site_hse06_10hf_ddec_sum_bond_order
 _atom_site_hse06_10hf_magmom
 _atom_site_hse06_bader_spin_density
 _atom_site_hse06_ddec_charge
 _atom_site_hse06_ddec_spin_density
 _atom_site_hse06_ddec_sum_bond_order
 _atom_site_hse06_magmom
 _atom_site_pbe_bader_charge
 _atom_site_pbe_bader_spin_density
 _atom_site_pbe_cm5_charge
 _atom_site_pbe_ddec_charge
 _atom_site_pbe_ddec_spin_density
 _atom_site_pbe_ddec_sum_bond_order
 _atom_site_pbe_magmom
Zn  Zn0  1  0.38055426  0.50000035  0.74999864  1  0  0.990612  0  1.94626  0  0  0.797285  0  2.4314  0  0  0.837219  0  2.382238  0  1.227723  0  0.73757  0.770128  0  2.464603  0
Zn  Zn1  1  0.11945247  0.99999892  0.25000203  1  0  0.990668  0  1.946309  0  0  0.7973  0  2.431457  0  0  0.837247  0  2.382284  0  1.227695  0  0.737576  0.770153  0  2.464661  0
Zn  Zn2  1  0.61945241  0.49999946  0.24999864  1  0  0.990619  0  1.946334  0  0  0.797258  0  2.431479  0  0  0.837221  0  2.382272  0  1.22766  0  0.737568  0.770105  0  2.464685  0
Zn  Zn3  1  0.88055307  0.00000000  0.75000271  1  0  0.990643  0  1.94627  0  0  0.797266  0  2.431439  0  0  0.837241  0  2.382211  0  1.227729  0  0.73756  0.77011  0  2.464648  0
Ni  Ni4  1  0.00000226  0.49999857  0.99999864  1  0  0.129612  0  3.31614  0  0  0.140862  0  3.776688  0  0  0.154697  0  3.722554  0  0.65727  0  0.406192  0.140374  0  3.80731  0
Ni  Ni5  1  0.49999994  0.00000000  0.50000271  1  0  0.129672  0  3.315865  0  0  0.140843  0  3.776522  0  0  0.154722  0  3.722324  0  0.657279  0  0.406151  0.140365  0  3.8071  0
Ni  Ni6  1  0.49999203  0.00000267  0.99999729  1  0  0.129628  0  3.316201  0  0  0.140821  0  3.77682  0  0  0.154672  0  3.72266  0  0.657234  0  0.406213  0.140337  0  3.807437  0
Ni  Ni7  1  0.00000565  0.50000124  0.49999729  1  0  0.129674  0  3.315995  0  0  0.140856  0  3.776692  0  0  0.154723  0  3.722498  0  0.657259  0  0.406212  0.140377  0  3.807274  0
H  H8  1  0.45230011  0.75607610  0.66235180  1  0  0.057109  0  0.934318  0  0  0.076848  0  0.998462  0  0  0.076477  0  0.999065  0  0.04691  0  0.105204  0.076615  0  0.998754  0
H  H9  1  0.04770096  0.74392406  0.16234977  1  0  0.057144  0  0.934269  0  0  0.076835  0  0.998447  0  0  0.076492  0  0.999011  0  0.046888  0  0.105226  0.076605  0  0.998737  0
H  H10  1  0.04770435  0.25607486  0.33765023  1  0  0.057199  0  0.934137  0  0  0.07686  0  0.998366  0  0  0.076516  0  0.998941  0  0.046861  0  0.105252  0.076631  0  0.998649  0
H  H11  1  0.45229785  0.24392549  0.83764820  1  0  0.05713  0  0.934192  0  0  0.076827  0  0.998379  0  0  0.076486  0  0.998944  0  0.046921  0  0.105203  0.076592  0  0.998672  0
H  H12  1  0.54769864  0.24392460  0.33765091  1  0  0.057158  0  0.934267  0  0  0.076844  0  0.998456  0  0  0.076497  0  0.999028  0  0.046924  0  0.105233  0.076612  0  0.998742  0
H  H13  1  0.95230005  0.25607664  0.83764956  1  0  0.057123  0  0.93425  0  0  0.076829  0  0.998413  0  0  0.076482  0  0.998982  0  0.046915  0  0.10523  0.076598  0  0.9987  0
H  H14  1  0.95229779  0.74392406  0.66235248  1  0  0.057149  0  0.934176  0  0  0.076863  0  0.998321  0  0  0.076513  0  0.998897  0  0.04693  0  0.10522  0.076627  0  0.998622  0
H  H15  1  0.54770090  0.75607521  0.16234773  1  0  0.057177  0  0.934214  0  0  0.076844  0  0.998404  0  0  0.076499  0  0.998969  0  0.046908  0  0.105251  0.076613  0  0.998692  0
H  H16  1  0.61000083  0.80275339  0.72722062  1  0  0.067284  0  0.93763  0  0  0.086697  0  0.996174  0  0  0.08607  0  0.998293  0  0.074915  0  0.103768  0.08694  0  0.994931  0
H  H17  1  0.88999899  0.69724766  0.22721927  1  0  0.067281  0  0.937673  0  0  0.086689  0  0.996212  0  0  0.086061  0  0.998339  0  0.074943  0  0.103759  0.086954  0  0.994942  0
H  H18  1  0.89000464  0.30275215  0.27278005  1  0  0.067264  0  0.937713  0  0  0.086729  0  0.996182  0  0  0.08611  0  0.998304  0  0.074919  0  0.103763  0.08697  0  0.994941  0
H  H19  1  0.60999857  0.19724553  0.77277938  1  0  0.067272  0  0.937659  0  0  0.086692  0  0.996176  0  0  0.08607  0  0.9983  0  0.074864  0  0.103758  0.086932  0  0.994936  0
H  H20  1  0.38999792  0.19724820  0.27278141  1  0  0.067296  0  0.937655  0  0  0.086723  0  0.996174  0  0  0.086097  0  0.998298  0  0.074941  0  0.103757  0.086973  0  0.99492  0
H  H21  1  0.11000202  0.30275304  0.77278005  1  0  0.067274  0  0.937655  0  0  0.086685  0  0.996183  0  0  0.086069  0  0.99829  0  0.074909  0  0.103744  0.086922  0  0.994947  0
H  H22  1  0.10999976  0.69724766  0.72722062  1  0  0.067269  0  0.937683  0  0  0.086662  0  0.996223  0  0  0.08604  0  0.998347  0  0.074852  0  0.103742  0.086921  0  0.994962  0
H  H23  1  0.39000018  0.80274983  0.22721859  1  0  0.067256  0  0.937767  0  0  0.086697  0  0.996236  0  0  0.086072  0  0.998361  0  0.074971  0  0.103773  0.086958  0  0.994971  0
H  H24  1  0.69954328  0.70594663  0.58744065  1  0  0.058012  0  0.932415  0  0  0.070349  0  1.00212  0  0  0.070346  0  1.001881  0  0.067375  0  0.103431  0.070133  0  1.002532  0
H  H25  1  0.80045429  0.79405442  0.08744065  1  0  0.057972  0  0.932457  0  0  0.070345  0  1.002123  0  0  0.070343  0  1.001883  0  0.067365  0  0.103431  0.070128  0  1.002537  0
H  H26  1  0.80045881  0.20594984  0.41256138  1  0  0.057918  0  0.932497  0  0  0.07027  0  1.002178  0  0  0.07027  0  1.001939  0  0.067327  0  0.103403  0.07005  0  1.002589  0
H  H27  1  0.69954328  0.29405229  0.91255867  1  0  0.058037  0  0.932444  0  0  0.07037  0  1.002145  0  0  0.070369  0  1.001907  0  0.067369  0  0.103439  0.070153  0  1.002557  0
H  H28  1  0.30045435  0.29405318  0.41256070  1  0  0.058068  0  0.932395  0  0  0.070399  0  1.002088  0  0  0.070398  0  1.00185  0  0.067327  0  0.103446  0.070178  0  1.0025  0
H  H29  1  0.19954447  0.20594717  0.91256003  1  0  0.058016  0  0.932475  0  0  0.070382  0  1.002133  0  0  0.07038  0  1.001898  0  0.067342  0  0.103443  0.070164  0  1.002546  0
H  H30  1  0.19954221  0.79405264  0.58744201  1  0  0.057967  0  0.932499  0  0  0.070335  0  1.002176  0  0  0.070333  0  1.001933  0  0.067385  0  0.103426  0.070119  0  1.002587  0
H  H31  1  0.30045322  0.70594485  0.08743997  1  0  0.057989  0  0.932426  0  0  0.070365  0  1.002095  0  0  0.070361  0  1.001854  0  0.067356  0  0.103433  0.070147  0  1.002507  0
H  H32  1  0.74867407  0.61629345  0.68336227  1  0  0.064786  0  0.916515  0  0  0.078764  0  0.979411  0  0  0.079075  0  0.979184  0  0.061243  0  0.104598  0.078233  0  0.980075  0
H  H33  1  0.75132576  0.88370760  0.18336295  1  0  0.06481  0  0.916463  0  0  0.078789  0  0.979356  0  0  0.079098  0  0.979135  0  0.061213  0  0.104598  0.078258  0  0.98002  0
H  H34  1  0.75132915  0.11629399  0.31664044  1  0  0.064815  0  0.916549  0  0  0.078768  0  0.979437  0  0  0.079076  0  0.979214  0  0.061142  0  0.104616  0.078234  0  0.9801  0
H  H35  1  0.74867294  0.38370636  0.81663705  1  0  0.064799  0  0.916558  0  0  0.078761  0  0.979462  0  0  0.079069  0  0.979236  0  0.06122  0  0.104607  0.078227  0  0.98013  0
H  H36  1  0.25132468  0.38370814  0.31663976  1  0  0.064812  0  0.916542  0  0  0.078783  0  0.979427  0  0  0.079095  0  0.979199  0  0.061085  0  0.104597  0.078249  0  0.980091  0
H  H37  1  0.24867300  0.11629221  0.81663908  1  0  0.064825  0  0.916516  0  0  0.07879  0  0.979415  0  0  0.0791  0  0.97919  0  0.061261  0  0.104608  0.078258  0  0.980079  0
H  H38  1  0.24867413  0.88370671  0.68336295  1  0  0.064806  0  0.916491  0  0  0.078768  0  0.979414  0  0  0.07908  0  0.979184  0  0.061214  0  0.104601  0.078238  0  0.980079  0
H  H39  1  0.25132694  0.61629078  0.18336159  1  0  0.064815  0  0.916488  0  0  0.078792  0  0.979392  0  0  0.079101  0  0.979168  0  0.06122  0  0.1046  0.078259  0  0.980056  0
H  H40  1  0.60425551  0.60416724  0.47321821  1  0  0.052019  0  0.950517  0  0  0.064121  0  1.018474  0  0  0.063723  0  1.019666  0  0.045231  0  0.096893  0.064244  0  1.01787  0
H  H41  1  0.89573866  0.89583470  0.97321753  1  0  0.051982  0  0.950496  0  0  0.064148  0  1.018421  0  0  0.063751  0  1.019612  0  0.045199  0  0.096926  0.064272  0  1.017816  0
H  H42  1  0.89574205  0.10416867  0.52678518  1  0  0.05204  0  0.950411  0  0  0.064147  0  1.018386  0  0  0.063747  0  1.019578  0  0.045191  0  0.096907  0.064271  0  1.017781  0
H  H43  1  0.60425551  0.39583079  0.02678179  1  0  0.052043  0  0.950489  0  0  0.064145  0  1.01841  0  0  0.063752  0  1.019605  0  0.045226  0  0.096909  0.064268  0  1.017806  0
H  H44  1  0.39573759  0.39583257  0.52678518  1  0  0.052012  0  0.95043  0  0  0.064148  0  1.01836  0  0  0.063753  0  1.019552  0  0.045154  0  0.09691  0.064272  0  1.017756  0
H  H45  1  0.10425783  0.10416867  0.02678315  1  0  0.052087  0  0.950375  0  0  0.064157  0  1.018373  0  0  0.063757  0  1.019562  0  0.045225  0  0.096917  0.064281  0  1.017768  0
H  H46  1  0.10425896  0.89583292  0.47321821  1  0  0.05202  0  0.950473  0  0  0.064156  0  1.018414  0  0  0.063759  0  1.019604  0  0.045241  0  0.09692  0.06428  0  1.017809  0
H  H47  1  0.39573985  0.60416724  0.97321550  1  0  0.051998  0  0.950423  0  0  0.06413  0  1.018374  0  0  0.06373  0  1.019563  0  0.045182  0  0.096913  0.064254  0  1.017769  0
H  H48  1  0.41641758  0.61801865  0.51698228  1  0  0.051228  0  0.939031  0  0  0.061381  0  1.008713  0  0  0.061579  0  1.009167  0  0.054236  0  0.092968  0.06112  0  1.008485  0
H  H49  1  0.08357785  0.88198329  0.01697889  1  0  0.051222  0  0.939114  0  0  0.061408  0  1.008782  0  0  0.061604  0  1.009235  0  0.054263  0  0.092964  0.061147  0  1.008554  0
H  H50  1  0.08358237  0.11801830  0.48302314  1  0  0.051304  0  0.93903  0  0  0.061477  0  1.008668  0  0  0.061678  0  1.009121  0  0.054133  0  0.092998  0.061216  0  1.00844  0
H  H51  1  0.41641645  0.38198116  0.98301839  1  0  0.051243  0  0.939092  0  0  0.061376  0  1.008751  0  0  0.061576  0  1.009213  0  0.054215  0  0.092973  0.061115  0  1.008523  0
H  H52  1  0.58357892  0.38198205  0.48302382  1  0  0.051294  0  0.939034  0  0  0.061455  0  1.008705  0  0  0.061655  0  1.009165  0  0.054173  0  0.092991  0.061193  0  1.008479  0
H  H53  1  0.91641978  0.11801919  0.98302179  1  0  0.051286  0  0.939044  0  0  0.061448  0  1.008695  0  0  0.061645  0  1.009153  0  0.054156  0  0.092977  0.061187  0  1.008468  0
H  H54  1  0.91641752  0.88198329  0.51698025  1  0  0.051252  0  0.939015  0  0  0.061424  0  1.008689  0  0  0.061621  0  1.009142  0  0.054268  0  0.092977  0.061163  0  1.008461  0
H  H55  1  0.58358118  0.61801687  0.01697754  1  0  0.051306  0  0.938998  0  0  0.061477  0  1.00866  0  0  0.061676  0  1.009115  0  0.054235  0  0.093006  0.061216  0  1.008432  0
H  H56  1  0.42206117  0.70649588  0.81779552  1  0  0.29762  0  0.944139  0  0  0.285477  0  1.002068  0  0  0.291545  0  0.998892  0  0.477876  0  0.285603  0.281208  0  1.004353  0
H  H57  1  0.07793877  0.79350428  0.31779484  1  0  0.297606  0  0.944232  0  0  0.285463  0  1.002152  0  0  0.29153  0  0.998978  0  0.477861  0  0.285602  0.281195  0  1.004435  0
H  H58  1  0.07793877  0.20649197  0.18220380  1  0  0.297645  0  0.944153  0  0  0.285491  0  1.002069  0  0  0.29156  0  0.998894  0  0.477879  0  0.285609  0.281223  0  1.004353  0
H  H59  1  0.42206343  0.29350393  0.68220245  1  0  0.2976  0  0.944211  0  0  0.28546  0  1.002132  0  0  0.291529  0  0.998956  0  0.477848  0  0.285598  0.281192  0  1.004417  0
H  H60  1  0.57793420  0.29350304  0.18220448  1  0  0.297624  0  0.944153  0  0  0.285483  0  1.002073  0  0  0.29155  0  0.998899  0  0.477847  0  0.285604  0.281215  0  1.004359  0
H  H61  1  0.92206337  0.20649464  0.68220380  1  0  0.297626  0  0.944175  0  0  0.285483  0  1.002095  0  0  0.29155  0  0.99892  0  0.477862  0  0.285599  0.281214  0  1.00438  0
H  H62  1  0.92206337  0.79350428  0.81779823  1  0  0.297613  0  0.944147  0  0  0.285461  0  1.002082  0  0  0.291529  0  0.998905  0  0.477866  0  0.285591  0.281192  0  1.004367  0
H  H63  1  0.57793872  0.70649499  0.31779416  1  0  0.297621  0  0.944168  0  0  0.28547  0  1.00209  0  0  0.291536  0  0.998918  0  0.47785  0  0.285606  0.281204  0  1.00437  0
H  H64  1  0.58113747  0.63059619  0.82056689  1  0  0.304735  0  0.904918  0  0  0.2903  0  0.967367  0  0  0.296615  0  0.963068  0  0.466045  0  0.2937  0.28597  0  0.970222  0
H  H65  1  0.91886462  0.86940397  0.32056621  1  0  0.304761  0  0.90489  0  0  0.290305  0  0.967371  0  0  0.296621  0  0.963069  0  0.466061  0  0.293685  0.285977  0  0.970225  0
H  H66  1  0.91886575  0.13059050  0.17943650  1  0  0.304781  0  0.90491  0  0  0.290331  0  0.967362  0  0  0.296648  0  0.963058  0  0.46612  0  0.293723  0.286002  0  0.970217  0
H  H67  1  0.58113860  0.36940451  0.67943243  1  0  0.304732  0  0.904908  0  0  0.290286  0  0.967386  0  0  0.296603  0  0.963081  0  0.466031  0  0.293678  0.285956  0  0.970241  0
H  H68  1  0.41886242  0.36940629  0.17943514  1  0  0.30478  0  0.90486  0  0  0.29034  0  0.967317  0  0  0.296654  0  0.963019  0  0.466061  0  0.293698  0.286011  0  0.970172  0
H  H69  1  0.08113753  0.13059406  0.67943514  1  0  0.304758  0  0.904893  0  0  0.290313  0  0.967354  0  0  0.296628  0  0.963055  0  0.466051  0  0.293691  0.285984  0  0.970209  0
H  H70  1  0.08113979  0.86940397  0.82056689  1  0  0.304684  0  0.905012  0  0  0.290241  0  0.967464  0  0  0.296554  0  0.96317  0  0.466014  0  0.293672  0.285911  0  0.970318  0
H  H71  1  0.41886581  0.63059352  0.32056418  1  0  0.30472  0  0.904869  0  0  0.290277  0  0.967331  0  0  0.296589  0  0.963037  0  0.466091  0  0.293689  0.285947  0  0.970187  0
C  C72  1  0.13977189  0.48886581  0.90902358  1  0  0.125497  0  3.459732  0  0  0.092148  0  3.788026  0  0  0.102842  0  3.787621  0  0.846596  0  0.04502  0.082779  0  3.787653  0
C  C73  1  0.36023370  0.01113543  0.40902765  1  0  0.125269  0  3.459804  0  0  0.09193  0  3.788125  0  0  0.102615  0  3.787717  0  0.846615  0  0.044916  0.082561  0  3.787737  0
C  C74  1  0.36022805  0.98886705  0.09097371  1  0  0.125341  0  3.459878  0  0  0.092006  0  3.788192  0  0  0.102697  0  3.787783  0  0.846692  0  0.044911  0.082637  0  3.787822  0
C  C75  1  0.13976963  0.51113667  0.59097371  1  0  0.125248  0  3.459915  0  0  0.091908  0  3.788241  0  0  0.102596  0  3.787828  0  0.846642  0  0.044879  0.082539  0  3.787861  0
C  C76  1  0.86023139  0.51113311  0.09097235  1  0  0.125274  0  3.459884  0  0  0.091917  0  3.788188  0  0  0.102608  0  3.787789  0  0.846692  0  0.044925  0.082549  0  3.787816  0
C  C77  1  0.63976731  0.98886349  0.59098049  1  0  0.125456  0  3.459868  0  0  0.09214  0  3.788144  0  0  0.102819  0  3.787745  0  0.846656  0  0.045045  0.082772  0  3.787756  0
C  C78  1  0.63976053  0.01113988  0.90902222  1  0  0.125324  0  3.459815  0  0  0.091997  0  3.788097  0  0  0.102682  0  3.787699  0  0.846519  0  0.044901  0.082629  0  3.787725  0
C  C79  1  0.86023817  0.48886581  0.40902222  1  0  0.125328  0  3.459782  0  0  0.092006  0  3.788073  0  0  0.102691  0  3.787672  0  0.846502  0  0.044913  0.082638  0  3.787688  0
C  C80  1  0.11151436  0.39624473  0.07091687  1  0  0.049034  0  3.506133  0  0  0.023546  0  3.846493  0  0  0.02774  0  3.849573  0  0.780358  0  0.00769  0.017955  0  3.843919  0
C  C81  1  0.38847767  0.10375384  0.57092569  1  0  0.049117  0  3.506348  0  0  0.023648  0  3.846708  0  0  0.027825  0  3.849793  0  0.780654  0  0.007797  0.018065  0  3.844116  0
C  C82  1  0.38847993  0.89625131  0.92907634  1  0  0.049212  0  3.505979  0  0  0.023742  0  3.846332  0  0  0.027931  0  3.849411  0  0.780443  0  0.007737  0.018154  0  3.843761  0
C  C83  1  0.11151889  0.60375508  0.42907702  1  0  0.04922  0  3.506041  0  0  0.023766  0  3.846395  0  0  0.027951  0  3.849473  0  0.780402  0  0.007793  0.018177  0  3.84381  0
C  C84  1  0.88848778  0.60374974  0.92907838  1  0  0.049157  0  3.506042  0  0  0.023673  0  3.846391  0  0  0.027866  0  3.849471  0  0.780441  0  0.007742  0.018084  0  3.843816  0
C  C85  1  0.61151092  0.89625398  0.42908788  1  0  0.04895  0  3.506029  0  0  0.023468  0  3.846429  0  0  0.027663  0  3.849502  0  0.779925  0  0.007634  0.017873  0  3.843844  0
C  C86  1  0.61150300  0.10374939  0.07091552  1  0  0.048924  0  3.506199  0  0  0.02342  0  3.846624  0  0  0.027614  0  3.849699  0  0.780111  0  0.00761  0.017827  0  3.844054  0
C  C87  1  0.88849456  0.39625096  0.57091348  1  0  0.048912  0  3.506094  0  0  0.023409  0  3.846522  0  0  0.027601  0  3.849596  0  0.780376  0  0.007572  0.017817  0  3.843939  0
C  C88  1  0.54917256  0.72408254  0.70211956  1  0  0.046517  0  3.656353  0  0  -0.017609  0  3.923641  0  0  -0.013886  0  3.936743  0  0.242408  0  -0.078712  -0.019854  0  3.91484  0
C  C89  1  0.95082840  0.77591673  0.20211956  1  0  0.046494  0  3.65634  0  0  -0.017575  0  3.923583  0  0  -0.013868  0  3.936692  0  0.242454  0  -0.078704  -0.019836  0  3.914784  0
C  C90  1  0.95082840  0.22408219  0.29788179  1  0  0.046378  0  3.65636  0  0  -0.017756  0  3.923598  0  0  -0.014071  0  3.936735  0  0.242506  0  -0.078799  -0.020009  0  3.914805  0
C  C91  1  0.54917369  0.27591638  0.79787976  1  0  0.046543  0  3.65621  0  0  -0.017524  0  3.923413  0  0  -0.013831  0  3.936544  0  0.242422  0  -0.078671  -0.019769  0  3.914613  0
C  C92  1  0.45082733  0.27591638  0.29788111  1  0  0.046498  0  3.656325  0  0  -0.017604  0  3.923581  0  0  -0.0139  0  3.936697  0  0.242374  0  -0.078694  -0.019852  0  3.91477  0
C  C93  1  0.04917374  0.22408486  0.79787976  1  0  0.046558  0  3.656219  0  0  -0.017525  0  3.923432  0  0  -0.013822  0  3.936543  0  0.24238  0  -0.078672  -0.019767  0  3.914626  0
C  C94  1  0.04917487  0.77591673  0.70212092  1  0  0.046446  0  3.656268  0  0  -0.017601  0  3.923443  0  0  -0.013915  0  3.936596  0  0.242448  0  -0.078704  -0.019854  0  3.914636  0
C  C95  1  0.45082733  0.72408254  0.20211889  1  0  0.046472  0  3.656403  0  0  -0.017577  0  3.92357  0  0  -0.01387  0  3.936683  0  0.242428  0  -0.078728  -0.01984  0  3.91478  0
C  C96  1  0.65358863  0.65039944  0.64261510  1  0  0.057665  0  3.643321  0  0  -0.001354  0  3.917349  0  0  0.005519  0  3.923655  0  0.424849  0  -0.069574  -0.005771  0  3.913034  0
C  C97  1  0.84641233  0.84960072  0.14261374  1  0  0.057644  0  3.643302  0  0  -0.001394  0  3.917327  0  0  0.005475  0  3.923642  0  0.424814  0  -0.069597  -0.00581  0  3.913016  0
C  C98  1  0.84641459  0.15039998  0.35738693  1  0  0.057732  0  3.643385  0  0  -0.00119  0  3.917285  0  0  0.005669  0  3.923603  0  0.424969  0  -0.069535  -0.005592  0  3.91295  0
C  C99  1  0.65358750  0.34959859  0.85738422  1  0  0.057522  0  3.643491  0  0  -0.001451  0  3.917468  0  0  0.005411  0  3.92378  0  0.42485  0  -0.0696  -0.005863  0  3.913147  0
C  C100  1  0.34641012  0.34960037  0.35738761  1  0  0.057401  0  3.643383  0  0  -0.001543  0  3.917345  0  0  0.005309  0  3.923665  0  0.425032  0  -0.069643  -0.00595  0  3.913018  0
C  C101  1  0.15358869  0.15040087  0.85738626  1  0  0.057504  0  3.643403  0  0  -0.001481  0  3.917375  0  0  0.00537  0  3.923692  0  0.424861  0  -0.069626  -0.005889  0  3.913049  0
C  C102  1  0.15358643  0.84959983  0.64261510  1  0  0.057665  0  3.643392  0  0  -0.001376  0  3.917422  0  0  0.005494  0  3.923733  0  0.424849  0  -0.06958  -0.005793  0  3.913111  0
C  C103  1  0.34641238  0.65039766  0.14261307  1  0  0.057515  0  3.643261  0  0  -0.001541  0  3.917328  0  0  0.005318  0  3.92364  0  0.424582  0  -0.069653  -0.005952  0  3.913008  0
C  C104  1  0.51894266  0.56211182  0.51718101  1  0  0.062043  0  3.638999  0  0  0.002459  0  3.907053  0  0  0.008663  0  3.914116  0  0.455745  0  -0.077285  -0.00158  0  3.902193  0
C  C105  1  0.98105491  0.93788923  0.01717898  1  0  0.062145  0  3.638904  0  0  0.002422  0  3.907034  0  0  0.008625  0  3.914083  0  0.4558  0  -0.077283  -0.001619  0  3.902173  0
C  C106  1  0.98105830  0.06210969  0.48282238  1  0  0.061811  0  3.639023  0  0  0.002226  0  3.907111  0  0  0.008408  0  3.914163  0  0.425976  0  -0.077315  -0.001814  0  3.90225  0
C  C107  1  0.51894153  0.43788710  0.98281831  1  0  0.061887  0  3.639243  0  0  0.002423  0  3.907156  0  0  0.008586  0  3.914241  0  0.45574  0  -0.077296  -0.001616  0  3.902293  0
C  C108  1  0.48105497  0.43788888  0.48282238  1  0  0.06187  0  3.638983  0  0  0.002224  0  3.907172  0  0  0.0084  0  3.914236  0  0.425993  0  -0.077314  -0.001812  0  3.902302  0
C  C109  1  0.01893932  0.06211414  0.98282170  1  0  0.061833  0  3.638911  0  0  0.00228  0  3.907011  0  0  0.008468  0  3.914055  0  0.425873  0  -0.077279  -0.001761  0  3.902152  0
C  C110  1  0.01894271  0.93789012  0.51718101  1  0  0.062004  0  3.638914  0  0  0.002339  0  3.907028  0  0  0.008537  0  3.914079  0  0.455712  0  -0.077326  -0.0017  0  3.902167  0
C  C111  1  0.48105497  0.56210915  0.01717830  1  0  0.061919  0  3.638957  0  0  0.002271  0  3.907071  0  0  0.008464  0  3.914127  0  0.425945  0  -0.07732  -0.001769  0  3.902209  0
N  N112  1  0.22971107  0.48175227  0.85100654  1  0  -0.454703  0  3.073272  0  0  -0.37745  0  3.385105  0  0  -0.396128  0  3.39087  0  -1.391648  0  -0.370241  -0.36438  0  3.381419  0
N  N113  1  0.27029340  0.01824719  0.35100993  1  0  -0.454584  0  3.073191  0  0  -0.377317  0  3.384998  0  0  -0.396006  0  3.390788  0  -1.391564  0  -0.370216  -0.364252  0  3.381312  0
N  N114  1  0.27029000  0.98175084  0.14899211  1  0  -0.454591  0  3.073261  0  0  -0.377337  0  3.385099  0  0  -0.396017  0  3.390865  0  -1.391675  0  -0.370195  -0.364278  0  3.381435  0
N  N115  1  0.22970994  0.51824843  0.64899075  1  0  -0.454549  0  3.073332  0  0  -0.377292  0  3.385151  0  0  -0.395973  0  3.390925  0  -1.391617  0  -0.37019  -0.36423  0  3.381468  0
N  N116  1  0.77029108  0.51824487  0.14898804  1  0  -0.454545  0  3.073296  0  0  -0.377283  0  3.385111  0  0  -0.39597  0  3.390896  0  -1.391641  0  -0.370224  -0.364217  0  3.381431  0
N  N117  1  0.72970649  0.98175707  0.64899414  1  0  -0.454685  0  3.073507  0  0  -0.377423  0  3.385306  0  0  -0.396111  0  3.391093  0  -1.39171  0  -0.370283  -0.364358  0  3.38162  0
N  N118  1  0.72970649  0.01825075  0.85100925  1  0  -0.454534  0  3.073305  0  0  -0.377268  0  3.385105  0  0  -0.395957  0  3.390895  0  -1.391483  0  -0.370146  -0.364199  0  3.381421  0
N  N119  1  0.77029560  0.48175405  0.35100722  1  0  -0.454517  0  3.073288  0  0  -0.37726  0  3.385102  0  0  -0.395944  0  3.390878  0  -1.391457  0  -0.370138  -0.364195  0  3.381417  0
N  N120  1  0.18061079  0.32997694  0.11665265  1  0  -0.43318  0  2.797138  0  0  -0.389475  0  3.047616  0  0  -0.403438  0  3.06256  0  -1.336158  0  -0.357212  -0.379052  0  3.037246  0
N  N121  1  0.31939028  0.17001272  0.61665536  1  0  -0.433188  0  2.797633  0  0  -0.389484  0  3.048128  0  0  -0.403444  0  3.063075  0  -1.336503  0  -0.357254  -0.379066  0  3.037754  0
N  N122  1  0.31938350  0.82999065  0.88333650  1  0  -0.433296  0  2.797108  0  0  -0.389596  0  3.047601  0  0  -0.403557  0  3.062546  0  -1.336303  0  -0.35722  -0.379174  0  3.037233  0
N  N123  1  0.18061645  0.67001931  0.38334192  1  0  -0.433312  0  2.797217  0  0  -0.389622  0  3.047711  0  0  -0.403584  0  3.062659  0  -1.336282  0  -0.35728  -0.379201  0  3.03734  0
N  N124  1  0.81939135  0.67001485  0.88334260  1  0  -0.433226  0  2.797104  0  0  -0.389532  0  3.047613  0  0  -0.403492  0  3.062555  0  -1.336215  0  -0.357217  -0.379109  0  3.037243  0
N  N125  1  0.68061639  0.82997818  0.38334803  1  0  -0.4331  0  2.796947  0  0  -0.389395  0  3.047432  0  0  -0.40336  0  3.06238  0  -1.335631  0  -0.35712  -0.378975  0  3.037059  0
N  N126  1  0.68060395  0.17001807  0.11665468  1  0  -0.43305  0  2.797055  0  0  -0.389343  0  3.04755  0  0  -0.403305  0  3.062497  0  -1.335797  0  -0.357117  -0.378919  0  3.03718  0
N  N127  1  0.81939474  0.32997694  0.61664926  1  0  -0.433043  0  2.79703  0  0  -0.389326  0  3.047512  0  0  -0.403289  0  3.06246  0  -1.336046  0  -0.357083  -0.378906  0  3.03714  0
N  N128  1  0.49178605  0.65261958  0.77896375  1  0  -0.635348  0  3.138841  0  0  -0.567463  0  3.398852  0  0  -0.586869  0  3.393358  0  -1.171906  0  -0.630024  -0.55436  0  3.402343  0
N  N129  1  0.00821503  0.84737969  0.27896443  1  0  -0.635366  0  3.138879  0  0  -0.567457  0  3.398854  0  0  -0.586868  0  3.393367  0  -1.171914  0  -0.630018  -0.554361  0  3.402354  0
N  N130  1  0.00821729  0.15261745  0.22103692  1  0  -0.635482  0  3.138934  0  0  -0.567522  0  3.398872  0  0  -0.586928  0  3.393388  0  -1.171999  0  -0.630048  -0.554424  0  3.402368  0
N  N131  1  0.49178605  0.34738023  0.72103489  1  0  -0.635333  0  3.138809  0  0  -0.567472  0  3.398828  0  0  -0.586877  0  3.393345  0  -1.171889  0  -0.630035  -0.55437  0  3.402318  0
N  N132  1  0.50821497  0.34738023  0.22103692  1  0  -0.635412  0  3.138739  0  0  -0.567516  0  3.398736  0  0  -0.586927  0  3.393257  0  -1.171897  0  -0.630046  -0.554419  0  3.402232  0
N  N133  1  0.99178712  0.15261923  0.72103692  1  0  -0.635407  0  3.138811  0  0  -0.567514  0  3.398787  0  0  -0.586928  0  3.39331  0  -1.171923  0  -0.630036  -0.554412  0  3.402279  0
N  N134  1  0.99178825  0.84738147  0.77896511  1  0  -0.635278  0  3.138852  0  0  -0.567359  0  3.398776  0  0  -0.586765  0  3.3933  0  -1.171897  0  -0.629989  -0.554257  0  3.402272  0
N  N135  1  0.50821836  0.65261869  0.27896240  1  0  -0.635384  0  3.138872  0  0  -0.567455  0  3.398781  0  0  -0.586866  0  3.393304  0  -1.171925  0  -0.630042  -0.554357  0  3.402281  0
O  O136  1  0.57902494  0.54797288  0.60648417  1  0  -0.330444  0  2.317716  0  0  -0.24779  0  2.563457  0  0  -0.265816  0  2.567326  0  -1.071711  0  -0.227704  -0.235427  0  2.560334  0
O  O137  1  0.92097376  0.95202817  0.10648417  1  0  -0.330426  0  2.317567  0  0  -0.247772  0  2.563381  0  0  -0.265802  0  2.56725  0  -1.071694  0  -0.227701  -0.235412  0  2.560257  0
O  O138  1  0.92097715  0.04797520  0.39351854  1  0  -0.330239  0  2.317645  0  0  -0.247708  0  2.563453  0  0  -0.265691  0  2.567302  0  -1.071626  0  -0.227676  -0.23535  0  2.560324  0
O  O139  1  0.57902381  0.45202604  0.89351583  1  0  -0.330246  0  2.317774  0  0  -0.247712  0  2.563545  0  0  -0.265694  0  2.567401  0  -1.071679  0  -0.227692  -0.235352  0  2.560419  0
O  O140  1  0.42097495  0.45202693  0.39351854  1  0  -0.330169  0  2.317548  0  0  -0.247603  0  2.563366  0  0  -0.265589  0  2.567223  0  -1.07163  0  -0.227647  -0.235245  0  2.560239  0
O  O141  1  0.07902273  0.04797431  0.89351651  1  0  -0.330324  0  2.317651  0  0  -0.247762  0  2.563444  0  0  -0.265749  0  2.567293  0  -1.071615  0  -0.227733  -0.235403  0  2.560318  0
O  O142  1  0.07902386  0.95202639  0.60648485  1  0  -0.330366  0  2.317612  0  0  -0.247744  0  2.563416  0  0  -0.265756  0  2.567276  0  -1.07171  0  -0.227694  -0.235382  0  2.560293  0
O  O143  1  0.42097495  0.54797199  0.10648146  1  0  -0.330202  0  2.317491  0  0  -0.247641  0  2.563365  0  0  -0.265629  0  2.567206  0  -1.071444  0  -0.227646  -0.235282  0  2.560236  0
