# generated using pymatgen
data_FeCuH12C14IN2
_symmetry_space_group_name_H-M   'P 1'
_cell_length_a   9.41175617
_cell_length_b   12.35184685
_cell_length_c   12.49928269
_cell_angle_alpha   111.86123286
_cell_angle_beta   89.99984908
_cell_angle_gamma   90.00037588
_symmetry_Int_Tables_number   1
_chemical_formula_structural   FeCuH12C14IN2
_chemical_formula_sum   'Fe4 Cu4 H48 C56 I4 N8'
_cell_volume   1348.58090276
_cell_formula_units_Z   4
loop_
 _symmetry_equiv_pos_site_id
 _symmetry_equiv_pos_as_xyz
  1  'x, y, z'
loop_
 _atom_site_type_symbol
 _atom_site_label
 _atom_site_symmetry_multiplicity
 _atom_site_fract_x
 _atom_site_fract_y
 _atom_site_fract_z
 _atom_site_occupancy
 _atom_site_hle17_bader_spin_density
 _atom_site_hle17_ddec_charge
 _atom_site_hle17_ddec_spin_density
 _atom_site_hle17_ddec_sum_bond_order
 _atom_site_hle17_magmom
 _atom_site_hse06_10hf_bader_spin_density
 _atom_site_hse06_10hf_ddec_charge
 _atom_site_hse06_10hf_ddec_spin_density
 _atom_site_hse06_10hf_ddec_sum_bond_order
 _atom_site_hse06_10hf_magmom
 _atom_site_hse06_bader_spin_density
 _atom_site_hse06_ddec_charge
 _atom_site_hse06_ddec_spin_density
 _atom_site_hse06_ddec_sum_bond_order
 _atom_site_hse06_magmom
 _atom_site_pbe_bader_spin_density
 _atom_site_pbe_cm5_charge
 _atom_site_pbe_ddec_charge
 _atom_site_pbe_ddec_spin_density
 _atom_site_pbe_ddec_sum_bond_order
 _atom_site_pbe_magmom
Fe  Fe0  1  0.03106152  0.86404894  0.69800374  1  0  0.090343  0  3.60419  0  0  0.200358  0  4.009406  0  0  0.205613  0  3.996328  0  0  0.524098  0.204304  0  4.011081  0
Fe  Fe1  1  0.46894242  0.86404713  0.19800443  1  0  0.090316  0  3.604223  0  0  0.200277  0  4.009509  0  0  0.205531  0  3.996434  0  0  0.524107  0.204219  0  4.011179  0
Fe  Fe2  1  0.96894037  0.13595115  0.30199188  1  0  0.090399  0  3.604149  0  0  0.200367  0  4.009418  0  0  0.205647  0  3.99634  0  0  0.524121  0.204338  0  4.011067  0
Fe  Fe3  1  0.53105522  0.13595119  0.80199612  1  0  0.090348  0  3.604247  0  0  0.200305  0  4.009487  0  0  0.205609  0  3.996407  0  0  0.524103  0.204283  0  4.011158  0
Cu  Cu4  1  0.94588922  0.50635134  0.11153817  1  0  0.307031  0  2.110489  0  0  0.20404  0  2.600745  0  0  0.206847  0  2.554328  0  0  0.351775  0.206553  0  2.628085  0
Cu  Cu5  1  0.55411129  0.50635151  0.61153922  1  0  0.307027  0  2.110428  0  0  0.204026  0  2.600684  0  0  0.206816  0  2.554258  0  0  0.351773  0.206544  0  2.627989  0
Cu  Cu6  1  0.05411055  0.49364699  0.88846079  1  0  0.307041  0  2.110405  0  0  0.204038  0  2.600642  0  0  0.2068  0  2.554201  0  0  0.351787  0.206546  0  2.627993  0
Cu  Cu7  1  0.44588741  0.49364944  0.38845992  1  0  0.30702  0  2.110452  0  0  0.204015  0  2.600713  0  0  0.206781  0  2.55427  0  0  0.351763  0.206535  0  2.628002  0
H  H8  1  0.92207273  0.71839643  0.32573172  1  0  0.087755  0  0.934306  0  0  0.09729  0  1.000716  0  0  0.101571  0  0.995238  0  0  0.115259  0.094035  0  1.005013  0
H  H9  1  0.57793098  0.71839323  0.82573226  1  0  0.087719  0  0.934314  0  0  0.097261  0  1.000741  0  0  0.101552  0  0.995239  0  0  0.115242  0.094016  0  1.005021  0
H  H10  1  0.07792066  0.28160016  0.67426499  1  0  0.087724  0  0.934389  0  0  0.097241  0  1.00081  0  0  0.10155  0  0.995309  0  0  0.115247  0.09398  0  1.005115  0
H  H11  1  0.42207198  0.28160597  0.17426623  1  0  0.087731  0  0.934334  0  0  0.097282  0  1.000736  0  0  0.101561  0  0.995261  0  0  0.115254  0.094025  0  1.00503  0
H  H12  1  0.29484720  0.70687890  0.52408333  1  0  0.081039  0  0.966197  0  0  0.087765  0  1.037416  0  0  0.091804  0  1.032135  0  0  0.106612  0.084116  0  1.042378  0
H  H13  1  0.20515175  0.70688102  0.02408362  1  0  0.081057  0  0.966167  0  0  0.087777  0  1.037405  0  0  0.091814  0  1.032126  0  0  0.106615  0.084098  0  1.042402  0
H  H14  1  0.70514938  0.29312469  0.47591360  1  0  0.08101  0  0.966176  0  0  0.08774  0  1.037368  0  0  0.091778  0  1.032086  0  0  0.106589  0.084063  0  1.042357  0
H  H15  1  0.79485014  0.29311904  0.97591679  1  0  0.081033  0  0.966153  0  0  0.087754  0  1.037378  0  0  0.091792  0  1.032097  0  0  0.106623  0.08411  0  1.042342  0
H  H16  1  0.20678760  0.44211128  0.20946241  1  0  0.065969  0  0.957522  0  0  0.071073  0  1.030151  0  0  0.074723  0  1.025249  0  0  0.113202  0.068032  0  1.034156  0
H  H17  1  0.29321267  0.44210911  0.70946690  1  0  0.065942  0  0.957542  0  0  0.071045  0  1.030173  0  0  0.074681  0  1.025303  0  0  0.113205  0.067999  0  1.034191  0
H  H18  1  0.79321323  0.55788968  0.79053593  1  0  0.065964  0  0.957509  0  0  0.07108  0  1.030149  0  0  0.074729  0  1.025248  0  0  0.113214  0.068039  0  1.034157  0
H  H19  1  0.70679134  0.55788920  0.29053445  1  0  0.065921  0  0.957547  0  0  0.071027  0  1.030181  0  0  0.074672  0  1.02529  0  0  0.113186  0.067987  0  1.034185  0
H  H20  1  0.82395097  0.84949352  0.53233466  1  0  0.114992  0  0.967169  0  0  0.128903  0  1.026172  0  0  0.132016  0  1.024837  0  0  0.096208  0.126735  0  1.0271  0
H  H21  1  0.67605065  0.84949291  0.03232999  1  0  0.115003  0  0.967156  0  0  0.12892  0  1.026139  0  0  0.132029  0  1.024813  0  0  0.096229  0.126754  0  1.027062  0
H  H22  1  0.17604348  0.15050565  0.46766941  1  0  0.115005  0  0.967197  0  0  0.128915  0  1.02619  0  0  0.132029  0  1.024855  0  0  0.096233  0.12675  0  1.027115  0
H  H23  1  0.32395018  0.15050366  0.96767071  1  0  0.115022  0  0.96716  0  0  0.128934  0  1.026146  0  0  0.132049  0  1.02481  0  0  0.09624  0.126771  0  1.027067  0
H  H24  1  0.85641407  0.05466475  0.71244725  1  0  0.111762  0  0.968614  0  0  0.126429  0  1.026014  0  0  0.128994  0  1.025191  0  0  0.106281  0.124615  0  1.026698  0
H  H25  1  0.64359070  0.05466397  0.21244418  1  0  0.111682  0  0.968817  0  0  0.126463  0  1.02606  0  0  0.129026  0  1.025241  0  0  0.106295  0.124647  0  1.026741  0
H  H26  1  0.14358357  0.94533267  0.28755697  1  0  0.111778  0  0.968612  0  0  0.126451  0  1.026  0  0  0.129014  0  1.02518  0  0  0.10629  0.124637  0  1.026684  0
H  H27  1  0.35641226  0.94533261  0.78755493  1  0  0.111743  0  0.968689  0  0  0.126457  0  1.026024  0  0  0.129022  0  1.025204  0  0  0.106278  0.124642  0  1.026709  0
H  H28  1  0.13681944  0.09223570  0.75656154  1  0  0.112763  0  0.967595  0  0  0.126201  0  1.026102  0  0  0.129024  0  1.025476  0  0  0.097832  0.124271  0  1.026409  0
H  H29  1  0.36318721  0.09223511  0.25656211  1  0  0.112697  0  0.967538  0  0  0.126131  0  1.026077  0  0  0.128959  0  1.025439  0  0  0.097769  0.124193  0  1.026377  0
H  H30  1  0.86317820  0.90776264  0.24343662  1  0  0.112772  0  0.967586  0  0  0.126209  0  1.026088  0  0  0.129035  0  1.025454  0  0  0.097833  0.124273  0  1.026403  0
H  H31  1  0.63681680  0.90776584  0.74343703  1  0  0.112697  0  0.967612  0  0  0.126143  0  1.026114  0  0  0.128966  0  1.025489  0  0  0.097792  0.124208  0  1.026418  0
H  H32  1  0.28047761  0.91010716  0.60125252  1  0  0.113349  0  0.96012  0  0  0.126678  0  1.021482  0  0  0.129915  0  1.019321  0  0  0.1073  0.124359  0  1.023129  0
H  H33  1  0.21952387  0.91010672  0.10125502  1  0  0.113314  0  0.960076  0  0  0.126632  0  1.021453  0  0  0.129869  0  1.019291  0  0  0.107295  0.124312  0  1.0231  0
H  H34  1  0.71951790  0.08989382  0.39874263  1  0  0.113339  0  0.960193  0  0  0.126635  0  1.021578  0  0  0.129871  0  1.019418  0  0  0.107292  0.124314  0  1.023224  0
H  H35  1  0.78047908  0.08989598  0.89874477  1  0  0.113373  0  0.960223  0  0  0.12667  0  1.021592  0  0  0.129909  0  1.019431  0  0  0.107314  0.124352  0  1.02324  0
H  H36  1  0.02649185  0.62021282  0.62346655  1  0  0.109848  0  0.935266  0  0  0.127869  0  0.98395  0  0  0.129815  0  0.984592  0  0  0.10544  0.126443  0  0.983859  0
H  H37  1  0.47350707  0.62021190  0.12346757  1  0  0.109866  0  0.935281  0  0  0.127883  0  0.983968  0  0  0.129829  0  0.984609  0  0  0.105442  0.12646  0  0.983881  0
H  H38  1  0.97351110  0.37978725  0.37653306  1  0  0.109882  0  0.935255  0  0  0.127902  0  0.983938  0  0  0.12985  0  0.984579  0  0  0.105432  0.126475  0  0.983849  0
H  H39  1  0.52648951  0.37978639  0.87653777  1  0  0.109866  0  0.935247  0  0  0.127891  0  0.983942  0  0  0.129841  0  0.984578  0  0  0.105414  0.126469  0  0.983856  0
H  H40  1  0.79502144  0.74058543  0.72952641  1  0  0.098599  0  0.993691  0  0  0.11022  0  1.06012  0  0  0.11295  0  1.058766  0  0  0.088615  0.108191  0  1.061225  0
H  H41  1  0.70497961  0.74058406  0.22952780  1  0  0.098588  0  0.993719  0  0  0.110206  0  1.060151  0  0  0.112938  0  1.058795  0  0  0.088607  0.108179  0  1.061256  0
H  H42  1  0.20498364  0.25941550  0.27047432  1  0  0.098572  0  0.993736  0  0  0.11019  0  1.060167  0  0  0.112922  0  1.058813  0  0  0.088587  0.108162  0  1.061268  0
H  H43  1  0.29501697  0.25941425  0.77047515  1  0  0.098629  0  0.993661  0  0  0.110244  0  1.060091  0  0  0.112977  0  1.058739  0  0  0.088611  0.108217  0  1.061198  0
H  H44  1  0.88348046  0.93177026  0.90961608  1  0  0.10721  0  0.966561  0  0  0.125621  0  1.017095  0  0  0.12792  0  1.016641  0  0  0.10346  0.123965  0  1.017702  0
H  H45  1  0.61652372  0.93176931  0.40961861  1  0  0.107196  0  0.966585  0  0  0.125606  0  1.017121  0  0  0.127904  0  1.016666  0  0  0.10346  0.123949  0  1.017726  0
H  H46  1  0.11652674  0.06823069  0.09038226  1  0  0.107201  0  0.966552  0  0  0.125606  0  1.017094  0  0  0.127904  0  1.01664  0  0  0.103483  0.123949  0  1.017702  0
H  H47  1  0.38347604  0.06822987  0.59038307  1  0  0.10723  0  0.966491  0  0  0.125651  0  1.01702  0  0  0.127952  0  1.016562  0  0  0.103484  0.123995  0  1.017625  0
H  H48  1  0.17170787  0.93064907  0.91066256  1  0  0.10867  0  0.960418  0  0  0.125929  0  1.013527  0  0  0.128343  0  1.01323  0  0  0.104538  0.124152  0  1.014061  0
H  H49  1  0.32829483  0.93064917  0.41066505  1  0  0.108669  0  0.960441  0  0  0.12595  0  1.013528  0  0  0.128363  0  1.013228  0  0  0.104554  0.124172  0  1.014061  0
H  H50  1  0.82829827  0.06935276  0.08933451  1  0  0.108668  0  0.960445  0  0  0.125929  0  1.013553  0  0  0.128343  0  1.013257  0  0  0.104568  0.124152  0  1.014087  0
H  H51  1  0.67170387  0.06935174  0.58934047  1  0  0.108662  0  0.960449  0  0  0.125914  0  1.01357  0  0  0.128329  0  1.013274  0  0  0.104559  0.124137  0  1.014102  0
H  H52  1  0.25985456  0.73756428  0.73350486  1  0  0.103652  0  0.968292  0  0  0.117459  0  1.027591  0  0  0.119004  0  1.028721  0  0  0.101371  0.116552  0  1.026599  0
H  H53  1  0.24014604  0.73756569  0.23350802  1  0  0.103694  0  0.968295  0  0  0.11749  0  1.027584  0  0  0.119036  0  1.028714  0  0  0.10138  0.116584  0  1.026595  0
H  H54  1  0.74014946  0.26243493  0.26649203  1  0  0.10369  0  0.968212  0  0  0.117515  0  1.027484  0  0  0.119061  0  1.028613  0  0  0.101357  0.116607  0  1.02649  0
H  H55  1  0.75985160  0.26243346  0.76649845  1  0  0.103679  0  0.968305  0  0  0.117472  0  1.027599  0  0  0.119017  0  1.028727  0  0  0.101396  0.116568  0  1.02661  0
C  C56  1  0.01802233  0.67757946  0.34226601  1  0  0.106363  0  3.616719  0  0  0.065139  0  3.865647  0  0  0.077119  0  3.875161  0  0  0.052116  0.055477  0  3.862104  0
C  C57  1  0.48198056  0.67757738  0.84226696  1  0  0.106361  0  3.616652  0  0  0.065132  0  3.86559  0  0  0.077109  0  3.875108  0  0  0.052107  0.055467  0  3.862042  0
C  C58  1  0.98197425  0.32241888  0.65773135  1  0  0.10633  0  3.616666  0  0  0.065159  0  3.865641  0  0  0.077107  0  3.875135  0  0  0.052123  0.055495  0  3.862111  0
C  C59  1  0.51802027  0.32242269  0.15773265  1  0  0.106349  0  3.616724  0  0  0.065121  0  3.865668  0  0  0.077095  0  3.875177  0  0  0.052105  0.055458  0  3.862123  0
C  C60  1  0.09915921  0.73085247  0.44188034  1  0  0.003562  0  3.770139  0  0  0.027578  0  3.99798  0  0  0.023321  0  4.018061  0  0  0.009427  0.029605  0  3.986198  0
C  C61  1  0.40084166  0.73085174  0.94188115  1  0  0.003595  0  3.770123  0  0  0.027593  0  3.997958  0  0  0.023334  0  4.018043  0  0  0.009474  0.029623  0  3.986177  0
C  C62  1  0.90083631  0.26914847  0.55811880  1  0  0.003683  0  3.769991  0  0  0.027564  0  3.998009  0  0  0.023308  0  4.018094  0  0  0.00944  0.029585  0  3.986211  0
C  C63  1  0.59915810  0.26914920  0.05811958  1  0  0.003571  0  3.770156  0  0  0.027562  0  3.998033  0  0  0.023305  0  4.018115  0  0  0.009456  0.029576  0  3.986247  0
C  C64  1  0.22282980  0.67154394  0.45083633  1  0  0.13447  0  3.60488  0  0  0.093991  0  3.847362  0  0  0.106632  0  3.85652  0  0  0.061796  0.084339  0  3.843238  0
C  C65  1  0.27717053  0.67154347  0.95083669  1  0  0.134435  0  3.604866  0  0  0.093935  0  3.847363  0  0  0.106577  0  3.856522  0  0  0.061761  0.08431  0  3.843261  0
C  C66  1  0.77716890  0.32845877  0.54916107  1  0  0.134483  0  3.60496  0  0  0.094062  0  3.847432  0  0  0.106709  0  3.856587  0  0  0.061803  0.084429  0  3.843317  0
C  C67  1  0.72283136  0.32845660  0.04916292  1  0  0.134451  0  3.604887  0  0  0.093996  0  3.847352  0  0  0.106638  0  3.856514  0  0  0.061761  0.084338  0  3.843245  0
C  C68  1  0.17672118  0.52453045  0.27698559  1  0  0.270074  0  3.650057  0  0  0.221486  0  3.910161  0  0  0.236961  0  3.918348  0  0  0.163084  0.211396  0  3.905704  0
C  C69  1  0.32327850  0.52452757  0.77698896  1  0  0.27015  0  3.65005  0  0  0.221562  0  3.910158  0  0  0.237032  0  3.918335  0  0  0.163137  0.211475  0  3.905718  0
C  C70  1  0.82327858  0.47547050  0.72301275  1  0  0.270091  0  3.65003  0  0  0.221432  0  3.910206  0  0  0.236906  0  3.918391  0  0  0.163088  0.211341  0  3.905753  0
C  C71  1  0.67672021  0.47547250  0.22301145  1  0  0.270182  0  3.650056  0  0  0.221588  0  3.910164  0  0  0.237058  0  3.918351  0  0  0.163158  0.211499  0  3.905709  0
C  C72  1  0.06331500  0.84291344  0.53131955  1  0  0.019035  0  3.789831  0  0  0.023043  0  4.038579  0  0  0.019238  0  4.062674  0  0  -0.076341  0.025484  0  4.022489  0
C  C73  1  0.43668722  0.84291234  0.03131977  1  0  0.019027  0  3.789922  0  0  0.02312  0  4.03854  0  0  0.019319  0  4.06263  0  0  -0.076305  0.025549  0  4.022472  0
C  C74  1  0.93668051  0.15708752  0.46867799  1  0  0.018974  0  3.789958  0  0  0.023025  0  4.038723  0  0  0.019218  0  4.062825  0  0  -0.076322  0.025497  0  4.022585  0
C  C75  1  0.56331361  0.15708598  0.96868078  1  0  0.019071  0  3.789866  0  0  0.023078  0  4.038618  0  0  0.019268  0  4.062726  0  0  -0.076299  0.025559  0  4.022469  0
C  C76  1  0.92419486  0.89117496  0.56789552  1  0  -0.141491  0  3.676812  0  0  -0.172927  0  3.943085  0  0  -0.175439  0  3.95919  0  0  -0.151233  -0.171657  0  3.932253  0
C  C77  1  0.57580699  0.89117384  0.06789326  1  0  -0.14157  0  3.676852  0  0  -0.173032  0  3.943135  0  0  -0.175546  0  3.95924  0  0  -0.151282  -0.171763  0  3.93231  0
C  C78  1  0.07580065  0.10882772  0.43210667  1  0  -0.14154  0  3.676827  0  0  -0.172968  0  3.943102  0  0  -0.175484  0  3.959209  0  0  -0.151286  -0.171714  0  3.93227  0
C  C79  1  0.42419384  0.10882273  0.93210665  1  0  -0.141568  0  3.676847  0  0  -0.172999  0  3.943133  0  0  -0.175516  0  3.959242  0  0  -0.151301  -0.171747  0  3.932301  0
C  C80  1  0.94175617  0.99902278  0.66373524  1  0  -0.097756  0  3.706411  0  0  -0.124985  0  3.976162  0  0  -0.12757  0  3.993011  0  0  -0.150585  -0.123874  0  3.965041  0
C  C81  1  0.55824733  0.99902157  0.16373378  1  0  -0.097693  0  3.706548  0  0  -0.125003  0  3.976294  0  0  -0.127588  0  3.993148  0  0  -0.150591  -0.123887  0  3.965161  0
C  C82  1  0.05824465  0.00097816  0.33626550  1  0  -0.097714  0  3.706281  0  0  -0.12494  0  3.976029  0  0  -0.127528  0  3.992886  0  0  -0.150568  -0.123833  0  3.964913  0
C  C83  1  0.44175350  0.00097762  0.83626630  1  0  -0.09775  0  3.706469  0  0  -0.125008  0  3.976208  0  0  -0.127601  0  3.993069  0  0  -0.150592  -0.123901  0  3.965089  0
C  C84  1  0.09055583  0.01870987  0.68703875  1  0  -0.104306  0  3.723606  0  0  -0.131197  0  3.99426  0  0  -0.134401  0  4.011498  0  0  -0.153982  -0.129614  0  3.982742  0
C  C85  1  0.40944937  0.01870863  0.18703898  1  0  -0.104161  0  3.723469  0  0  -0.131046  0  3.994114  0  0  -0.134251  0  4.011359  0  0  -0.153899  -0.129449  0  3.982572  0
C  C86  1  0.90944287  0.98129108  0.31296038  1  0  -0.104316  0  3.72353  0  0  -0.131204  0  3.994197  0  0  -0.134409  0  4.011443  0  0  -0.15396  -0.129624  0  3.982681  0
C  C87  1  0.59055358  0.98129144  0.81296063  1  0  -0.104164  0  3.723472  0  0  -0.131049  0  3.994096  0  0  -0.134258  0  4.011345  0  0  -0.153903  -0.129462  0  3.982571  0
C  C88  1  0.16605268  0.92248889  0.60608935  1  0  -0.17104  0  3.726846  0  0  -0.20486  0  4.001931  0  0  -0.208296  0  4.018353  0  0  -0.158089  -0.203122  0  3.991147  0
C  C89  1  0.33394996  0.92248727  0.10609039  1  0  -0.170993  0  3.726749  0  0  -0.204805  0  4.001802  0  0  -0.208241  0  4.018225  0  0  -0.158115  -0.203065  0  3.991017  0
C  C90  1  0.83394390  0.07751295  0.39390692  1  0  -0.171075  0  3.727116  0  0  -0.20486  0  4.002213  0  0  -0.208299  0  4.01864  0  0  -0.158153  -0.203133  0  3.991423  0
C  C91  1  0.66605299  0.07751367  0.89391034  1  0  -0.171112  0  3.726988  0  0  -0.20488  0  4.00206  0  0  -0.208324  0  4.018491  0  0  -0.158132  -0.20316  0  3.991273  0
C  C92  1  0.02684055  0.69977108  0.69999817  1  0  -0.100537  0  3.716403  0  0  -0.131479  0  3.995263  0  0  -0.136222  0  4.016274  0  0  -0.154916  -0.128973  0  3.981334  0
C  C93  1  0.47315878  0.69977015  0.19999919  1  0  -0.100585  0  3.716498  0  0  -0.131525  0  3.995346  0  0  -0.136266  0  4.016356  0  0  -0.15492  -0.129023  0  3.981427  0
C  C94  1  0.97316133  0.30022901  0.29999984  1  0  -0.100664  0  3.716442  0  0  -0.131603  0  3.995322  0  0  -0.136348  0  4.016337  0  0  -0.154976  -0.129101  0  3.981395  0
C  C95  1  0.52683992  0.30022989  0.80000521  1  0  -0.100517  0  3.716375  0  0  -0.131466  0  3.995223  0  0  -0.136213  0  4.016238  0  0  -0.154907  -0.128968  0  3.981312  0
C  C96  1  0.90408296  0.76360328  0.75706657  1  0  -0.113796  0  3.743559  0  0  -0.142726  0  4.018904  0  0  -0.146988  0  4.03837  0  0  -0.158845  -0.140362  0  4.006256  0
C  C97  1  0.59591819  0.76360311  0.25706863  1  0  -0.113777  0  3.74358  0  0  -0.142701  0  4.01892  0  0  -0.146963  0  4.038386  0  0  -0.158868  -0.140338  0  4.006274  0
C  C98  1  0.09592211  0.23639680  0.24293144  1  0  -0.113759  0  3.743509  0  0  -0.142688  0  4.018851  0  0  -0.146954  0  4.038323  0  0  -0.158796  -0.140328  0  4.006202  0
C  C99  1  0.40407945  0.23639694  0.74293498  1  0  -0.113852  0  3.743511  0  0  -0.142777  0  4.018864  0  0  -0.147046  0  4.038334  0  0  -0.158851  -0.140419  0  4.006228  0
C  C100  1  0.95125509  0.86512389  0.85075345  1  0  -0.105179  0  3.728033  0  0  -0.133265  0  3.997592  0  0  -0.136181  0  4.015731  0  0  -0.156879  -0.132029  0  3.985772  0
C  C101  1  0.54874660  0.86512348  0.35075551  1  0  -0.105165  0  3.728156  0  0  -0.133247  0  3.997712  0  0  -0.136163  0  4.015851  0  0  -0.156849  -0.132006  0  3.985882  0
C  C102  1  0.04874999  0.13487707  0.14924409  1  0  -0.105093  0  3.727955  0  0  -0.133173  0  3.997518  0  0  -0.136091  0  4.015659  0  0  -0.156856  -0.131941  0  3.985701  0
C  C103  1  0.45125210  0.13487570  0.64924696  1  0  -0.105183  0  3.727841  0  0  -0.133263  0  3.997375  0  0  -0.136184  0  4.015519  0  0  -0.156892  -0.132027  0  3.985554  0
C  C104  1  0.10337613  0.86439942  0.85163847  1  0  -0.113401  0  3.724735  0  0  -0.142831  0  3.99933  0  0  -0.146709  0  4.017935  0  0  -0.157292  -0.14095  0  3.987237  0
C  C105  1  0.39662621  0.86439899  0.35163983  1  0  -0.113363  0  3.724837  0  0  -0.142802  0  3.999401  0  0  -0.146676  0  4.018003  0  0  -0.157319  -0.140918  0  3.987297  0
C  C106  1  0.89662789  0.13560155  0.14835747  1  0  -0.113382  0  3.724737  0  0  -0.142806  0  3.999329  0  0  -0.146685  0  4.017935  0  0  -0.157346  -0.14093  0  3.987238  0
C  C107  1  0.60337568  0.13560106  0.64836298  1  0  -0.113394  0  3.724738  0  0  -0.142809  0  3.99934  0  0  -0.146692  0  4.017949  0  0  -0.157325  -0.140928  0  3.987243  0
C  C108  1  0.15029483  0.76211329  0.75792828  1  0  -0.125772  0  3.751161  0  0  -0.155118  0  4.028899  0  0  -0.1604  0  4.051539  0  0  -0.162776  -0.151934  0  4.01347  0
C  C109  1  0.34970483  0.76211349  0.25793077  1  0  -0.125826  0  3.751334  0  0  -0.155153  0  4.029062  0  0  -0.160434  0  4.051699  0  0  -0.162789  -0.151974  0  4.013649  0
C  C110  1  0.84970599  0.23788418  0.24206796  1  0  -0.125803  0  3.751305  0  0  -0.155167  0  4.029061  0  0  -0.160451  0  4.051701  0  0  -0.162728  -0.151987  0  4.013635  0
C  C111  1  0.65029387  0.23788742  0.74207396  1  0  -0.125829  0  3.751292  0  0  -0.155151  0  4.029027  0  0  -0.160447  0  4.051693  0  0  -0.162777  -0.151973  0  4.013609  0
I  I112  1  0.90225528  0.67221934  0.03284185  1  0  -0.476479  0  1.392166  0  0  -0.419914  0  1.792731  0  0  -0.437168  0  1.758205  0  0  -0.218962  -0.406098  0  1.813761  0
I  I113  1  0.59774375  0.67222061  0.53284162  1  0  -0.476458  0  1.39213  0  0  -0.419894  0  1.792699  0  0  -0.437143  0  1.75817  0  0  -0.218977  -0.406114  0  1.813732  0
I  I114  1  0.09774767  0.32778072  0.96715936  1  0  -0.476471  0  1.39215  0  0  -0.419912  0  1.792724  0  0  -0.437165  0  1.758199  0  0  -0.218964  -0.406109  0  1.813776  0
I  I115  1  0.40225495  0.32778121  0.46715865  1  0  -0.476445  0  1.392158  0  0  -0.41988  0  1.792724  0  0  -0.437126  0  1.758194  0  0  -0.218964  -0.406094  0  1.813741  0
N  N116  1  0.05758213  0.57538913  0.25957318  1  0  -0.30227  0  3.369846  0  0  -0.228886  0  3.667673  0  0  -0.241242  0  3.671356  0  0  -0.356104  -0.222229  0  3.665827  0
N  N117  1  0.44241804  0.57538597  0.75957541  1  0  -0.302239  0  3.369827  0  0  -0.228869  0  3.667675  0  0  -0.241212  0  3.671339  0  0  -0.356127  -0.222213  0  3.665828  0
N  N118  1  0.94241444  0.42461008  0.74042451  1  0  -0.302249  0  3.369765  0  0  -0.228828  0  3.667574  0  0  -0.241163  0  3.671227  0  0  -0.356144  -0.222169  0  3.665724  0
N  N119  1  0.55758279  0.42461322  0.24042468  1  0  -0.302242  0  3.369912  0  0  -0.228864  0  3.667753  0  0  -0.241196  0  3.671397  0  0  -0.356125  -0.222204  0  3.665892  0
N  N120  1  0.26121022  0.56900805  0.37002751  1  0  -0.294479  0  3.348077  0  0  -0.21891  0  3.639006  0  0  -0.231199  0  3.642955  0  0  -0.352405  -0.211785  0  3.636657  0
N  N121  1  0.23878845  0.56900739  0.87002867  1  0  -0.294517  0  3.348073  0  0  -0.218925  0  3.638997  0  0  -0.231212  0  3.642942  0  0  -0.352426  -0.211803  0  3.636654  0
N  N122  1  0.73878954  0.43099552  0.62997101  1  0  -0.294521  0  3.348224  0  0  -0.218913  0  3.639126  0  0  -0.231217  0  3.643098  0  0  -0.352391  -0.211782  0  3.63677  0
N  N123  1  0.76121238  0.43099268  0.12997094  1  0  -0.294511  0  3.34808  0  0  -0.218937  0  3.638997  0  0  -0.231241  0  3.642976  0  0  -0.352415  -0.211817  0  3.636671  0
