# generated using pymatgen
data_Zn2H4C47N2(O3F5)4
_symmetry_space_group_name_H-M   'P 1'
_cell_length_a   16.70285363
_cell_length_b   17.89847862
_cell_length_c   33.06498863
_cell_angle_alpha   90.27143014
_cell_angle_beta   89.92923813
_cell_angle_gamma   89.94839618
_symmetry_Int_Tables_number   1
_chemical_formula_structural   Zn2H4C47N2(O3F5)4
_chemical_formula_sum   'Zn4 H8 C94 N4 O24 F40'
_cell_volume   9884.84325824
_cell_formula_units_Z   2
loop_
 _symmetry_equiv_pos_site_id
 _symmetry_equiv_pos_as_xyz
  1  'x, y, z'
loop_
 _atom_site_type_symbol
 _atom_site_label
 _atom_site_symmetry_multiplicity
 _atom_site_fract_x
 _atom_site_fract_y
 _atom_site_fract_z
 _atom_site_occupancy
 _atom_site_pbe_bader_charge
 _atom_site_pbe_bader_spin_density
 _atom_site_pbe_cm5_charge
 _atom_site_pbe_ddec_charge
 _atom_site_pbe_ddec_spin_density
 _atom_site_pbe_ddec_sum_bond_order
 _atom_site_pbe_magmom
Zn  Zn0  1  0.58213290  0.50018739  0.50198369  1  1.281122  0  0.677097  0.865417  0  2.361508  0
Zn  Zn1  1  0.41477130  0.49778918  0.50162120  1  1.319732  0  0.676064  0.865057  0  2.349786  0
Zn  Zn2  1  0.41797571  0.50287122  0.96085332  1  1.294584  0  0.677329  0.865646  0  2.362279  0
Zn  Zn3  1  0.58537520  0.50087066  0.96117182  1  1.319758  0  0.675926  0.865348  0  2.348909  0
H  H4  1  0.37322721  0.50332175  0.62802801  1  0.083555  0  0.110688  0.1235  0  1.005712  0
H  H5  1  0.62890735  0.49543755  0.62842128  1  0.110196  0  0.108693  0.119382  0  1.01274  0
H  H6  1  0.62700233  0.50444729  0.83470510  1  0.128375  0  0.110763  0.122818  0  1.004804  0
H  H7  1  0.37130924  0.49688086  0.83431828  1  0.150527  0  0.108559  0.118761  0  1.013088  0
H  H8  1  0.27901331  0.60359875  0.78016446  1  0.620728  0  0.348548  0.384646  0  0.849216  0
H  H9  1  0.27129158  0.39675256  0.69080373  1  0.609324  0  0.346774  0.38402  0  0.851636  0
H  H10  1  0.72883038  0.39677807  0.77162074  1  0.617066  0  0.346682  0.384134  0  0.852902  0
H  H11  1  0.72058680  0.60262592  0.68239698  1  0.625607  0  0.348564  0.384513  0  0.848805  0
C  C12  1  0.49398698  0.64244643  0.50096443  1  1.637725  0  0.216641  0.6329  0  4.155532  0
C  C13  1  0.50119030  0.49752614  0.57945935  1  1.534334  0  0.2175  0.59978  0  4.155857  0
C  C14  1  0.49779179  0.35540318  0.50093511  1  1.588293  0  0.216764  0.634067  0  4.153721  0
C  C15  1  0.50239083  0.50192276  0.42442124  1  1.576108  0  0.217586  0.632502  0  4.153643  0
C  C16  1  0.50553780  0.64527930  0.96163572  1  1.608658  0  0.216846  0.633649  0  4.15553  0
C  C17  1  0.49899462  0.49955977  0.88328182  1  1.617623  0  0.217849  0.599946  0  4.15513  0
C  C18  1  0.50270730  0.35832692  0.96120913  1  1.593339  0  0.21689  0.63398  0  4.154135  0
C  C19  1  0.49769105  0.50523049  0.03842037  1  1.62739  0  0.217029  0.632249  0  4.154905  0
C  C20  1  0.24687701  0.54726265  0.52518731  1  1.203826  0  0.242398  0.337826  0  4.101089  0
C  C21  1  0.16362712  0.55013305  0.52646456  1  0.659104  0  0.117281  0.105882  0  4.049573  0
C  C22  1  0.11887644  0.50062482  0.50220003  1  0.127416  0  0.013206  -0.002587  0  4.147569  0
C  C23  1  0.16232354  0.45053485  0.47758860  1  0.574861  0  0.115136  0.102859  0  4.052151  0
C  C24  1  0.24560522  0.45169929  0.47848961  1  1.2336  0  0.241846  0.338075  0  4.103079  0
C  C25  1  0.03477748  0.50111288  0.50256663  1  -0.058813  0  -0.005476  -0.02085  0  4.048151  0
C  C26  1  0.96197894  0.50120342  0.50294522  1  -0.044185  0  -0.006967  -0.025017  0  4.049021  0
C  C27  1  0.87787490  0.50094986  0.50300793  1  0.11484  0  0.013883  -0.000321  0  4.145872  0
C  C28  1  0.83331364  0.54308411  0.53122444  1  0.650006  0  0.116964  0.105194  0  4.050355  0
C  C29  1  0.75009464  0.54087903  0.52987210  1  1.213469  0  0.242547  0.338592  0  4.100527  0
C  C30  1  0.75093282  0.46000112  0.47570380  1  1.258565  0  0.243592  0.341625  0  4.100422  0
C  C31  1  0.83420169  0.45839977  0.47473015  1  0.566106  0  0.116047  0.103213  0  4.050515  0
C  C32  1  0.49584190  0.72637154  0.49854228  1  0.062302  0  -0.022403  -0.203053  0  3.953757  0
C  C33  1  0.56813864  0.76514252  0.49250227  1  0.620832  0  0.097956  0.169632  0  4.079633  0
C  C34  1  0.57081886  0.84274159  0.49137731  1  0.488041  0  0.096953  0.133073  0  4.06603  0
C  C35  1  0.50121784  0.88628287  0.49612685  1  0.215644  0  -0.010053  -0.038735  0  4.178919  0
C  C36  1  0.42868090  0.84757855  0.50155601  1  0.56082  0  0.097466  0.133437  0  4.060091  0
C  C37  1  0.42616126  0.76993538  0.50277086  1  0.56515  0  0.098647  0.171415  0  4.078127  0
C  C38  1  0.50383012  0.96475087  0.49598237  1  -0.319986  0  -0.028021  -0.046416  0  4.10002  0
C  C39  1  0.50506602  0.03276118  0.49671178  1  0.110707  0  -0.02627  -0.041952  0  4.098455  0
C  C40  1  0.50404716  0.11125039  0.49767512  1  0.146206  0  -0.010295  -0.040145  0  4.181622  0
C  C41  1  0.57395737  0.15364482  0.50382517  1  0.490645  0  0.097003  0.132673  0  4.065369  0
C  C42  1  0.57187674  0.23133308  0.50500410  1  0.660486  0  0.099223  0.171499  0  4.078089  0
C  C43  1  0.49999793  0.27131277  0.49997078  1  0.09484  0  -0.023633  -0.205079  0  3.953879  0
C  C44  1  0.43020751  0.22881493  0.49377168  1  0.606726  0  0.098766  0.170887  0  4.080711  0
C  C45  1  0.43210858  0.15117089  0.49268767  1  0.528576  0  0.097294  0.13468  0  4.063285  0
C  C46  1  0.42834576  0.50139662  0.64559490  1  -0.060478  0  -0.073735  -0.131766  0  3.91165  0
C  C47  1  0.42657711  0.50125213  0.68796787  1  0.076851  0  -0.005127  0.057005  0  4.023297  0
C  C48  1  0.35238176  0.50094644  0.71027499  1  -0.038693  0  -0.012083  -0.127663  0  4.008296  0
C  C49  1  0.57351541  0.49799572  0.64583453  1  -0.056197  0  -0.07677  -0.136427  0  3.915789  0
C  C50  1  0.57455690  0.50014058  0.68823185  1  0.045798  0  -0.005907  0.054924  0  4.029111  0
C  C51  1  0.64827496  0.50015820  0.71091648  1  0.001798  0  -0.015246  -0.138763  0  4.021384  0
C  C52  1  0.57187286  0.50240668  0.81714760  1  0.040924  0  -0.074478  -0.131055  0  3.906478  0
C  C53  1  0.57362790  0.50167120  0.77476984  1  -0.125785  0  -0.004575  0.05756  0  4.023426  0
C  C54  1  0.64780441  0.50090807  0.75245598  1  -0.051915  0  -0.011981  -0.127  0  4.009995  0
C  C55  1  0.42669758  0.49917735  0.81690864  1  -0.003164  0  -0.076496  -0.135795  0  3.915051  0
C  C56  1  0.42565760  0.50081440  0.77450907  1  -0.131858  0  -0.005611  0.055016  0  4.027161  0
C  C57  1  0.35196119  0.50066995  0.75180869  1  -0.018613  0  -0.015486  -0.137064  0  4.018527  0
C  C58  1  0.50107528  0.49902001  0.62481580  1  0.066067  0  -0.010619  -0.006342  0  3.975001  0
C  C59  1  0.50033646  0.50102841  0.70988704  1  0.01198  0  0.007427  0.012228  0  3.919172  0
C  C60  1  0.49914777  0.50037003  0.83793018  1  -0.065571  0  -0.011071  -0.006859  0  3.973175  0
C  C61  1  0.49987443  0.50133118  0.75285810  1  0.058775  0  0.006922  0.011414  0  3.92066  0
C  C62  1  0.49768452  0.50608250  0.08393126  1  0.104073  0  -0.022295  -0.203096  0  3.95441  0
C  C63  1  0.42688243  0.49651092  0.10640488  1  0.61525  0  0.098901  0.171252  0  4.078268  0
C  C64  1  0.42728901  0.49579556  0.14846333  1  0.494513  0  0.097081  0.133272  0  4.06451  0
C  C65  1  0.49862482  0.50475853  0.17054430  1  0.256752  0  -0.009966  -0.039207  0  4.180891  0
C  C66  1  0.56943917  0.51473743  0.14810128  1  0.503185  0  0.097634  0.134193  0  4.064567  0
C  C67  1  0.56891704  0.51545672  0.10605534  1  0.528418  0  0.098809  0.170365  0  4.079632  0
C  C68  1  0.49926777  0.50402054  0.21302983  1  -0.042473  0  -0.026936  -0.04427  0  4.09884  0
C  C69  1  0.50010489  0.50358145  0.24984554  1  -0.226674  0  -0.02725  -0.044378  0  4.09929  0
C  C70  1  0.50086467  0.50345413  0.29233422  1  0.219922  0  -0.009478  -0.037955  0  4.179486  0
C  C71  1  0.43005368  0.51263079  0.31494711  1  0.482091  0  0.097597  0.133984  0  4.064748  0
C  C72  1  0.43075062  0.51259758  0.35699240  1  0.624905  0  0.0979  0.170395  0  4.079076  0
C  C73  1  0.50215720  0.50326876  0.37893058  1  0.178275  0  -0.021835  -0.20312  0  3.954622  0
C  C74  1  0.57293552  0.49445246  0.35629529  1  0.506516  0  0.098294  0.170222  0  4.079122  0
C  C75  1  0.57238407  0.49446497  0.31423893  1  0.607743  0  0.097865  0.133921  0  4.064558  0
C  C76  1  0.75314781  0.54985371  0.93714528  1  1.184751  0  0.243001  0.339739  0  4.096153  0
C  C77  1  0.83640421  0.55223333  0.93557043  1  0.654598  0  0.118021  0.105981  0  4.048802  0
C  C78  1  0.88128821  0.50271854  0.95954521  1  0.142432  0  0.012735  -0.002722  0  4.148633  0
C  C79  1  0.83798499  0.45303591  0.98416301  1  0.546628  0  0.115341  0.103165  0  4.052058  0
C  C80  1  0.75471499  0.45472729  0.98360656  1  1.25803  0  0.241699  0.337427  0  4.104206  0
C  C81  1  0.96537613  0.50296728  0.95896564  1  -0.05582  0  -0.005363  -0.021335  0  4.048164  0
C  C82  1  0.03817029  0.50308569  0.95857605  1  -0.047451  0  -0.006345  -0.02393  0  4.047778  0
C  C83  1  0.12228269  0.50291980  0.95871830  1  0.076337  0  0.013653  -0.000711  0  4.14635  0
C  C84  1  0.16705696  0.54498591  0.93081306  1  0.639942  0  0.116655  0.10462  0  4.052157  0
C  C85  1  0.25025952  0.54313163  0.93253115  1  1.218392  0  0.241498  0.337087  0  4.101025  0
C  C86  1  0.24901486  0.46249406  0.98640315  1  1.265825  0  0.242531  0.339843  0  4.100208  0
C  C87  1  0.16574917  0.46069598  0.98704637  1  0.627119  0  0.11664  0.104512  0  4.049235  0
C  C88  1  0.50381842  0.72930297  0.96311178  1  0.130598  0  -0.022852  -0.203718  0  3.954209  0
C  C89  1  0.43158711  0.76860223  0.96871197  1  0.634008  0  0.098299  0.169789  0  4.079343  0
C  C90  1  0.42890710  0.84623606  0.96866374  1  0.468967  0  0.096949  0.132772  0  4.066358  0
C  C91  1  0.49849399  0.88927789  0.96315191  1  0.179559  0  -0.009327  -0.037869  0  4.178087  0
C  C92  1  0.57097970  0.85007455  0.95813783  1  0.486737  0  0.097315  0.133679  0  4.061654  0
C  C93  1  0.57349803  0.77238928  0.95811411  1  0.618864  0  0.098596  0.17037  0  4.078822  0
C  C94  1  0.49600373  0.96773269  0.96262367  1  -0.103292  0  -0.027411  -0.044898  0  4.099239  0
C  C95  1  0.49472428  0.03574570  0.96205942  1  -0.10669  0  -0.02743  -0.044628  0  4.09966  0
C  C96  1  0.49603407  0.11422815  0.96163942  1  0.150448  0  -0.009903  -0.038878  0  4.180978  0
C  C97  1  0.42625527  0.15697777  0.95583470  1  0.605429  0  0.097366  0.133336  0  4.063597  0
C  C98  1  0.42845799  0.23466576  0.95557261  1  0.492088  0  0.09815  0.169964  0  4.077595  0
C  C99  1  0.50038052  0.27424822  0.96122184  1  0.13559  0  -0.022397  -0.203568  0  3.953525  0
C  C100  1  0.57007438  0.23141704  0.96702373  1  0.481144  0  0.098584  0.169963  0  4.079412  0
C  C101  1  0.56805292  0.15376192  0.96717292  1  0.668477  0  0.097101  0.134194  0  4.064617  0
C  C102  1  0.27384985  0.49661093  0.77454325  1  1.535699  0  0.231864  0.581688  0  4.137495  0
C  C103  1  0.27524332  0.50386507  0.68662260  1  1.540489  0  0.231433  0.579621  0  4.138954  0
C  C104  1  0.72487911  0.50390848  0.77615507  1  1.529318  0  0.231679  0.579705  0  4.139382  0
C  C105  1  0.72631629  0.49576609  0.68809911  1  1.547607  0  0.232382  0.582574  0  4.13581  0
N  N106  1  0.28670230  0.49899470  0.50179227  1  -1.253941  0  -0.303684  -0.340826  0  3.492601  0
N  N107  1  0.71006086  0.50045524  0.50267091  1  -1.215704  0  -0.303764  -0.340419  0  3.494522  0
N  N108  1  0.71346026  0.50204330  0.96059172  1  -1.257898  0  -0.303772  -0.341448  0  3.490152  0
N  N109  1  0.29007394  0.50296402  0.95975380  1  -1.245234  0  -0.30271  -0.338395  0  3.491097  0
O  O110  1  0.55735714  0.61116743  0.51359350  1  -1.149154  0  -0.316798  -0.549916  0  2.343733  0
O  O111  1  0.42964073  0.61010410  0.49034167  1  -1.144076  0  -0.315875  -0.543047  0  2.311937  0
O  O112  1  0.43550107  0.51353919  0.56208043  1  -1.15871  0  -0.315189  -0.547661  0  2.342034  0
O  O113  1  0.56695789  0.48049424  0.56222334  1  -1.15675  0  -0.317501  -0.544301  0  2.324582  0
O  O114  1  0.43249647  0.38559742  0.51200309  1  -1.146897  0  -0.316418  -0.54103  0  2.313318  0
O  O115  1  0.56147960  0.38880880  0.49041081  1  -1.148194  0  -0.315374  -0.549331  0  2.345901  0
O  O116  1  0.56605335  0.52350348  0.44190443  1  -1.145972  0  -0.316009  -0.540428  0  2.317498  0
O  O117  1  0.43887155  0.47900020  0.44139146  1  -1.143127  0  -0.313367  -0.543948  0  2.345236  0
O  O118  1  0.44203042  0.61359173  0.94941205  1  -1.148431  0  -0.316274  -0.54968  0  2.347819  0
O  O119  1  0.56993932  0.61332123  0.97242375  1  -1.145931  0  -0.315675  -0.542275  0  2.31126  0
O  O120  1  0.56458157  0.51598726  0.90070361  1  -1.158348  0  -0.315349  -0.548315  0  2.343193  0
O  O121  1  0.43329593  0.48262921  0.90048893  1  -1.159138  0  -0.317839  -0.544963  0  2.322172  0
O  O122  1  0.56802248  0.38855930  0.95044904  1  -1.140213  0  -0.31673  -0.542077  0  2.314671  0
O  O123  1  0.43906503  0.39170274  0.97209987  1  -1.143037  0  -0.315406  -0.549216  0  2.34701  0
O  O124  1  0.43394891  0.52661537  0.02102215  1  -1.150455  0  -0.315623  -0.539912  0  2.315941  0
O  O125  1  0.56150276  0.48280118  0.02136481  1  -1.14688  0  -0.313333  -0.544047  0  2.346081  0
O  O126  1  0.24510768  0.56249091  0.78932513  1  -1.094398  0  -0.32668  -0.46315  0  2.184709  0
O  O127  1  0.23806207  0.43856521  0.78025595  1  -1.099185  0  -0.275655  -0.438401  0  2.018077  0
O  O128  1  0.24188439  0.43667827  0.67721790  1  -1.082418  0  -0.328894  -0.464321  0  2.180414  0
O  O129  1  0.24485618  0.56175952  0.67535865  1  -1.100358  0  -0.274226  -0.434801  0  2.018517  0
O  O130  1  0.75819134  0.43672431  0.78537720  1  -1.089794  0  -0.329122  -0.464668  0  2.181507  0
O  O131  1  0.75520272  0.56182460  0.78763829  1  -1.096179  0  -0.274337  -0.434833  0  2.01964  0
O  O132  1  0.75465587  0.56142816  0.67321740  1  -1.097469  0  -0.327049  -0.463343  0  2.18352  0
O  O133  1  0.76232196  0.43769294  0.68237405  1  -1.101105  0  -0.276054  -0.438599  0  2.017544  0
F  F134  1  0.28917283  0.59387716  0.54808140  1  -0.604864  0  -0.044772  -0.074434  0  1.401811  0
F  F135  1  0.28675447  0.40428013  0.45543714  1  -0.602446  0  -0.046224  -0.076422  0  1.400593  0
F  F136  1  0.12394192  0.40193130  0.45356787  1  -0.607938  0  -0.067795  -0.076257  0  1.370904  0
F  F137  1  0.12660817  0.59962531  0.55049568  1  -0.600441  0  -0.062972  -0.070278  0  1.37364  0
F  F138  1  0.87050245  0.58495121  0.55908183  1  -0.599972  0  -0.065074  -0.072829  0  1.373919  0
F  F139  1  0.87235147  0.41682402  0.44696894  1  -0.600459  0  -0.067123  -0.075503  0  1.371527  0
F  F140  1  0.70974910  0.41999122  0.44898913  1  -0.597522  0  -0.045806  -0.076207  0  1.409488  0
F  F141  1  0.70788977  0.58053078  0.55657328  1  -0.601041  0  -0.050217  -0.08265  0  1.389862  0
F  F142  1  0.63787326  0.72853638  0.48674223  1  -0.608863  0  -0.09084  -0.101865  0  1.379607  0
F  F143  1  0.35420868  0.73811175  0.50930331  1  -0.608506  0  -0.089066  -0.102712  0  1.392115  0
F  F144  1  0.36027738  0.88674886  0.50621884  1  -0.613036  0  -0.087201  -0.102047  0  1.357004  0
F  F145  1  0.64168218  0.87714206  0.48558140  1  -0.611975  0  -0.087981  -0.103321  0  1.357773  0
F  F146  1  0.64436638  0.11808428  0.50909104  1  -0.609168  0  -0.087883  -0.103209  0  1.357428  0
F  F147  1  0.36349428  0.11321416  0.48650520  1  -0.613236  0  -0.087234  -0.102643  0  1.358686  0
F  F148  1  0.35863544  0.26168984  0.48767124  1  -0.609346  0  -0.089537  -0.103166  0  1.398856  0
F  F149  1  0.64169943  0.26676664  0.51212100  1  -0.611857  0  -0.090581  -0.101702  0  1.378812  0
F  F150  1  0.35579469  0.48573859  0.08805296  1  -0.609957  0  -0.089278  -0.103144  0  1.400557  0
F  F151  1  0.63954168  0.52726576  0.08735762  1  -0.608598  0  -0.090241  -0.101482  0  1.378258  0
F  F152  1  0.63927217  0.52433140  0.16785695  1  -0.608659  0  -0.087482  -0.102774  0  1.357707  0
F  F153  1  0.35784974  0.48578306  0.16853970  1  -0.611077  0  -0.086891  -0.101839  0  1.357656  0
F  F154  1  0.36003907  0.52215162  0.29536863  1  -0.608446  0  -0.087483  -0.10307  0  1.35801  0
F  F155  1  0.64183028  0.48518223  0.29399660  1  -0.608069  0  -0.087326  -0.102156  0  1.358646  0
F  F156  1  0.64419247  0.48381704  0.37446853  1  -0.608817  0  -0.089036  -0.102727  0  1.400625  0
F  F157  1  0.36008727  0.52360760  0.37587593  1  -0.609555  0  -0.090244  -0.101763  0  1.377171  0
F  F158  1  0.71077449  0.59651974  0.91451189  1  -0.591917  0  -0.045178  -0.075141  0  1.401111  0
F  F159  1  0.71369319  0.40775578  0.00671628  1  -0.604329  0  -0.046366  -0.076294  0  1.399388  0
F  F160  1  0.87648481  0.40438573  0.00790549  1  -0.600962  0  -0.067792  -0.076301  0  1.369145  0
F  F161  1  0.87333901  0.60133089  0.91156306  1  -0.597848  0  -0.063468  -0.070631  0  1.372665  0
F  F162  1  0.13008985  0.58654512  0.90294029  1  -0.605817  0  -0.065  -0.072417  0  1.373968  0
F  F163  1  0.12740234  0.41928477  0.01457481  1  -0.603868  0  -0.067411  -0.076203  0  1.370433  0
F  F164  1  0.29000560  0.42275437  0.01314675  1  -0.598507  0  -0.045657  -0.076082  0  1.410229  0
F  F165  1  0.29263370  0.58286361  0.90617435  1  -0.604178  0  -0.04966  -0.08183  0  1.391426  0
F  F166  1  0.36190716  0.73251420  0.97512282  1  -0.609493  0  -0.090945  -0.101872  0  1.379056  0
F  F167  1  0.64542886  0.74002223  0.95204243  1  -0.608193  0  -0.088915  -0.102226  0  1.393548  0
F  F168  1  0.63938397  0.88876707  0.95285088  1  -0.611029  0  -0.086989  -0.101877  0  1.359058  0
F  F169  1  0.35810676  0.88112741  0.97412703  1  -0.610949  0  -0.08831  -0.103443  0  1.357477  0
F  F170  1  0.35581729  0.12172850  0.95012663  1  -0.608795  0  -0.087882  -0.103031  0  1.356139  0
F  F171  1  0.63649299  0.11538557  0.97312467  1  -0.612756  0  -0.087113  -0.102286  0  1.360148  0
F  F172  1  0.64163943  0.26397774  0.97363506  1  -0.609236  0  -0.08987  -0.102958  0  1.395075  0
F  F173  1  0.35876546  0.27051624  0.94873170  1  -0.611338  0  -0.090285  -0.101342  0  1.378167  0
