# generated using pymatgen
data_AgH4C7S2NO2
_symmetry_space_group_name_H-M   'P 1'
_cell_length_a   8.10491457
_cell_length_b   8.08982311
_cell_length_c   12.75455176
_cell_angle_alpha   100.08521368
_cell_angle_beta   90.00073399
_cell_angle_gamma   89.99947474
_symmetry_Int_Tables_number   1
_chemical_formula_structural   AgH4C7S2NO2
_chemical_formula_sum   'Ag4 H16 C28 S8 N4 O8'
_cell_volume   823.35995312
_cell_formula_units_Z   4
loop_
 _symmetry_equiv_pos_site_id
 _symmetry_equiv_pos_as_xyz
  1  'x, y, z'
loop_
 _atom_site_type_symbol
 _atom_site_label
 _atom_site_symmetry_multiplicity
 _atom_site_fract_x
 _atom_site_fract_y
 _atom_site_fract_z
 _atom_site_occupancy
 _atom_site_hle17_bader_spin_density
 _atom_site_hle17_ddec_charge
 _atom_site_hle17_ddec_spin_density
 _atom_site_hle17_ddec_sum_bond_order
 _atom_site_hle17_magmom
 _atom_site_hse06_10hf_bader_spin_density
 _atom_site_hse06_10hf_ddec_charge
 _atom_site_hse06_10hf_ddec_spin_density
 _atom_site_hse06_10hf_ddec_sum_bond_order
 _atom_site_hse06_10hf_magmom
 _atom_site_hse06_bader_spin_density
 _atom_site_hse06_ddec_charge
 _atom_site_hse06_ddec_spin_density
 _atom_site_hse06_ddec_sum_bond_order
 _atom_site_hse06_magmom
 _atom_site_pbe_bader_spin_density
 _atom_site_pbe_cm5_charge
 _atom_site_pbe_ddec_charge
 _atom_site_pbe_ddec_spin_density
 _atom_site_pbe_ddec_sum_bond_order
 _atom_site_pbe_magmom
Ag  Ag0  1  0.14706288  0.59147990  0.53853746  1  0  0.44744  0  1.743269  0  0  0.342187  0  2.241007  0  0  0.364518  0  2.192495  0  0  0.383448  0.327517  0  2.273949  0
Ag  Ag1  1  0.64706350  0.90851655  0.46146677  1  0  0.44741  0  1.74328  0  0  0.34212  0  2.241041  0  0  0.364448  0  2.192532  0  0  0.383434  0.32745  0  2.273973  0
Ag  Ag2  1  0.85293588  0.40852119  0.46146199  1  0  0.447446  0  1.743229  0  0  0.342162  0  2.240941  0  0  0.364492  0  2.192431  0  0  0.383442  0.327493  0  2.273875  0
Ag  Ag3  1  0.35293526  0.09148199  0.53853553  1  0  0.447468  0  1.743266  0  0  0.342206  0  2.241004  0  0  0.364538  0  2.192495  0  0  0.383452  0.32754  0  2.273933  0
H  H4  1  0.49094762  0.82576180  0.72386535  1  0  0.112401  0  0.946907  0  0  0.11927  0  1.014732  0  0  0.123529  0  1.011197  0  0  0.103925  0.116174  0  1.01736  0
H  H5  1  0.99095158  0.67423213  0.27613987  1  0  0.112329  0  0.947023  0  0  0.119271  0  1.014765  0  0  0.123532  0  1.011227  0  0  0.103907  0.116175  0  1.017403  0
H  H6  1  0.50905114  0.17424305  0.27613454  1  0  0.112417  0  0.946836  0  0  0.119289  0  1.014662  0  0  0.123549  0  1.011125  0  0  0.103925  0.116193  0  1.017286  0
H  H7  1  0.00905088  0.32575757  0.72386612  1  0  0.112393  0  0.946879  0  0  0.119271  0  1.014715  0  0  0.123532  0  1.011177  0  0  0.10392  0.116178  0  1.01734  0
H  H8  1  0.41990945  0.03375438  0.88502998  1  0  0.105804  0  0.953434  0  0  0.113979  0  1.015315  0  0  0.117407  0  1.013496  0  0  0.105902  0.111525  0  1.016671  0
H  H9  1  0.91990759  0.46624951  0.11497210  1  0  0.105811  0  0.953432  0  0  0.113983  0  1.015328  0  0  0.117413  0  1.013502  0  0  0.105922  0.111528  0  1.016685  0
H  H10  1  0.58009055  0.96625677  0.11496829  1  0  0.105788  0  0.953468  0  0  0.113978  0  1.015325  0  0  0.117404  0  1.01351  0  0  0.105934  0.111522  0  1.01668  0
H  H11  1  0.08009241  0.53374650  0.88503148  1  0  0.10576  0  0.953496  0  0  0.113952  0  1.015342  0  0  0.117376  0  1.013533  0  0  0.105917  0.111497  0  1.016696  0
H  H12  1  0.64130022  0.18195486  0.00108149  1  0  0.096893  0  0.952256  0  0  0.108269  0  1.011481  0  0  0.11117  0  1.009986  0  0  0.105358  0.106156  0  1.012725  0
H  H13  1  0.14129441  0.31805236  0.99891710  1  0  0.096954  0  0.952228  0  0  0.108333  0  1.011446  0  0  0.111232  0  1.009959  0  0  0.105376  0.106218  0  1.012688  0
H  H14  1  0.35870101  0.81804620  0.99891954  1  0  0.09689  0  0.952243  0  0  0.108271  0  1.011471  0  0  0.111178  0  1.00997  0  0  0.105357  0.106158  0  1.012712  0
H  H15  1  0.85870435  0.68195000  0.00108093  1  0  0.096932  0  0.952283  0  0  0.108319  0  1.011496  0  0  0.111225  0  1.009994  0  0  0.105372  0.106203  0  1.012737  0
H  H16  1  0.93592254  0.13220845  0.95389206  1  0  0.105553  0  0.948035  0  0  0.11638  0  1.008491  0  0  0.119273  0  1.007071  0  0  0.10942  0.114262  0  1.009661  0
H  H17  1  0.43591951  0.36779539  0.04610387  1  0  0.105515  0  0.948054  0  0  0.116347  0  1.008511  0  0  0.119239  0  1.007093  0  0  0.109408  0.114234  0  1.009685  0
H  H18  1  0.06407992  0.86778381  0.04610952  1  0  0.10552  0  0.948034  0  0  0.116313  0  1.008533  0  0  0.119203  0  1.007117  0  0  0.109394  0.114201  0  1.009706  0
H  H19  1  0.56408048  0.63221204  0.95389004  1  0  0.105537  0  0.948089  0  0  0.116365  0  1.008542  0  0  0.119257  0  1.007124  0  0  0.109402  0.114247  0  1.009713  0
C  C20  1  0.82674726  0.74873147  0.65650946  1  0  0.276148  0  3.820858  0  0  0.2522  0  4.093336  0  0  0.27642  0  4.106132  0  0  0.12867  0.236046  0  4.083987  0
C  C21  1  0.32675120  0.75126497  0.34349155  1  0  0.276073  0  3.820773  0  0  0.252133  0  4.093249  0  0  0.276351  0  4.106042  0  0  0.128625  0.236014  0  4.083853  0
C  C22  1  0.17324904  0.25126835  0.34349063  1  0  0.276031  0  3.820867  0  0  0.252082  0  4.093319  0  0  0.276302  0  4.106112  0  0  0.128629  0.235959  0  4.08393  0
C  C23  1  0.67325127  0.24873233  0.65650904  1  0  0.276142  0  3.820838  0  0  0.252185  0  4.093352  0  0  0.276411  0  4.106138  0  0  0.128652  0.236027  0  4.084003  0
C  C24  1  0.75332797  0.86709654  0.74615272  1  0  -0.018509  0  3.825489  0  0  -0.001053  0  4.051672  0  0  -0.007711  0  4.078492  0  0  -0.014214  0.003283  0  4.033667  0
C  C25  1  0.25332995  0.63290167  0.25384868  1  0  -0.018508  0  3.825472  0  0  -0.001087  0  4.051708  0  0  -0.007745  0  4.078527  0  0  -0.014219  0.003235  0  4.033696  0
C  C26  1  0.24667202  0.13290579  0.25384766  1  0  -0.018551  0  3.825312  0  0  -0.001104  0  4.051522  0  0  -0.007764  0  4.078338  0  0  -0.014241  0.003222  0  4.033511  0
C  C27  1  0.74667252  0.36709815  0.74615064  1  0  -0.018422  0  3.825493  0  0  -0.001013  0  4.051755  0  0  -0.007671  0  4.078572  0  0  -0.014213  0.003323  0  4.033748  0
C  C28  1  0.58750527  0.89464444  0.77258928  1  0  -0.051822  0  3.667298  0  0  -0.075533  0  3.918183  0  0  -0.075117  0  3.936012  0  0  -0.074029  -0.075879  0  3.906422  0
C  C29  1  0.08750696  0.60535371  0.22741387  1  0  -0.051742  0  3.667261  0  0  -0.075471  0  3.918079  0  0  -0.075058  0  3.935909  0  0  -0.074002  -0.075823  0  3.906331  0
C  C30  1  0.41249103  0.10535790  0.22741032  1  0  -0.051821  0  3.667289  0  0  -0.075529  0  3.918173  0  0  -0.075112  0  3.935999  0  0  -0.074026  -0.07587  0  3.9064  0
C  C31  1  0.91249427  0.39464609  0.77258779  1  0  -0.051818  0  3.66724  0  0  -0.075532  0  3.918112  0  0  -0.075114  0  3.935936  0  0  -0.074026  -0.075881  0  3.906353  0
C  C32  1  0.54882990  0.00984037  0.86432448  1  0  -0.046681  0  3.697613  0  0  -0.066334  0  3.957284  0  0  -0.067156  0  3.975601  0  0  -0.080325  -0.065829  0  3.945038  0
C  C33  1  0.04882880  0.49015993  0.13567803  1  0  -0.046599  0  3.697503  0  0  -0.066266  0  3.957203  0  0  -0.067086  0  3.975528  0  0  -0.080339  -0.065752  0  3.944948  0
C  C34  1  0.45117133  0.99016193  0.13567825  1  0  -0.046656  0  3.697463  0  0  -0.066326  0  3.957166  0  0  -0.067147  0  3.97548  0  0  -0.080345  -0.065815  0  3.944909  0
C  C35  1  0.95117367  0.50983988  0.86432284  1  0  -0.046555  0  3.697429  0  0  -0.066186  0  3.957115  0  0  -0.067009  0  3.975433  0  0  -0.080292  -0.065682  0  3.944864  0
C  C36  1  0.67280432  0.09466692  0.92882536  1  0  -0.047615  0  3.70446  0  0  -0.064828  0  3.962648  0  0  -0.065756  0  3.98191  0  0  -0.078197  -0.064193  0  3.94965  0
C  C37  1  0.17280146  0.40533503  0.07117445  1  0  -0.04783  0  3.704415  0  0  -0.065049  0  3.962628  0  0  -0.065982  0  3.981889  0  0  -0.078234  -0.064415  0  3.94963  0
C  C38  1  0.32719444  0.90533164  0.07117537  1  0  -0.047633  0  3.704332  0  0  -0.06485  0  3.962523  0  0  -0.065783  0  3.981789  0  0  -0.078192  -0.064218  0  3.949527  0
C  C39  1  0.82719853  0.59466605  0.92882501  1  0  -0.047834  0  3.704376  0  0  -0.065084  0  3.962607  0  0  -0.066014  0  3.981869  0  0  -0.07827  -0.064439  0  3.949601  0
C  C40  1  0.83960545  0.06741463  0.90316776  1  0  -0.048494  0  3.731592  0  0  -0.074295  0  3.984476  0  0  -0.074068  0  4.003552  0  0  -0.077351  -0.074422  0  3.971639  0
C  C41  1  0.33960286  0.43258863  0.09683123  1  0  -0.048283  0  3.731574  0  0  -0.07409  0  3.984453  0  0  -0.073859  0  4.003523  0  0  -0.07731  -0.074235  0  3.971626  0
C  C42  1  0.16039701  0.93258389  0.09683611  1  0  -0.048471  0  3.731793  0  0  -0.074234  0  3.984691  0  0  -0.074008  0  4.003768  0  0  -0.077349  -0.074376  0  3.971869  0
C  C43  1  0.66039590  0.56741373  0.90316681  1  0  -0.048323  0  3.731605  0  0  -0.07411  0  3.984467  0  0  -0.07388  0  4.003537  0  0  -0.077317  -0.074244  0  3.971631  0
C  C44  1  0.87525426  0.95407504  0.81135427  1  0  -0.144449  0  3.76421  0  0  -0.125293  0  4.007908  0  0  -0.130942  0  4.03081  0  0  -0.016688  -0.121597  0  3.992648  0
C  C45  1  0.37525448  0.54592610  0.18864377  1  0  -0.144723  0  3.764472  0  0  -0.125548  0  4.008162  0  0  -0.131198  0  4.031063  0  0  -0.016746  -0.12184  0  3.992882  0
C  C46  1  0.12474327  0.04592229  0.18864397  1  0  -0.14436  0  3.764133  0  0  -0.125219  0  4.007844  0  0  -0.130864  0  4.030744  0  0  -0.016664  -0.121533  0  3.9926  0
C  C47  1  0.62474675  0.45407753  0.81135285  1  0  -0.14473  0  3.764521  0  0  -0.125546  0  4.008201  0  0  -0.131197  0  4.031102  0  0  -0.016723  -0.121846  0  3.992937  0
S  S48  1  0.70375226  0.64168927  0.55974477  1  0  -0.312103  0  2.448527  0  0  -0.266321  0  2.88816  0  0  -0.28823  0  2.873219  0  0  -0.167687  -0.251584  0  2.897957  0
S  S49  1  0.20375841  0.85830679  0.44025753  1  0  -0.3121  0  2.448482  0  0  -0.266344  0  2.888115  0  0  -0.288252  0  2.873173  0  0  -0.167691  -0.251624  0  2.897905  0
S  S50  1  0.29624156  0.35830927  0.44025753  1  0  -0.312065  0  2.448498  0  0  -0.26631  0  2.88815  0  0  -0.288217  0  2.873203  0  0  -0.167691  -0.251585  0  2.897937  0
S  S51  1  0.79624406  0.14169050  0.55974384  1  0  -0.312136  0  2.44847  0  0  -0.266342  0  2.888075  0  0  -0.288252  0  2.87313  0  0  -0.167712  -0.251603  0  2.897868  0
S  S52  1  0.06967118  0.88854476  0.75709224  1  0  1.217363  0  5.309141  0  0  1.135023  0  5.803451  0  0  1.18064  0  5.78865  0  0  0.55604  1.10365  0  5.812794  0
S  S53  1  0.56967133  0.61144595  0.24291304  1  0  1.217755  0  5.309081  0  0  1.135425  0  5.80334  0  0  1.181038  0  5.788536  0  0  0.556248  1.104064  0  5.812667  0
S  S54  1  0.93032635  0.11145506  0.24290707  1  0  1.217421  0  5.309025  0  0  1.135041  0  5.80335  0  0  1.180653  0  5.788552  0  0  0.556088  1.103686  0  5.812678  0
S  S55  1  0.43033113  0.38855516  0.75708406  1  0  1.217687  0  5.309203  0  0  1.135384  0  5.803425  0  0  1.181003  0  5.788613  0  0  0.556204  1.104012  0  5.812766  0
N  N56  1  0.99064047  0.74138541  0.65880743  1  0  -0.538204  0  3.092551  0  0  -0.459467  0  3.393998  0  0  -0.484758  0  3.39665  0  0  -0.386723  -0.44268  0  3.392039  0
N  N57  1  0.49064429  0.75861361  0.34119210  1  0  -0.538173  0  3.092439  0  0  -0.459393  0  3.393815  0  0  -0.484682  0  3.396466  0  0  -0.386682  -0.442618  0  3.391833  0
N  N58  1  0.00935583  0.25861315  0.34119252  1  0  -0.538222  0  3.092588  0  0  -0.459383  0  3.393892  0  0  -0.484675  0  3.396547  0  0  -0.38671  -0.442609  0  3.391922  0
N  N59  1  0.50935940  0.24138369  0.65880848  1  0  -0.538294  0  3.092654  0  0  -0.459519  0  3.394061  0  0  -0.484812  0  3.39671  0  0  -0.386723  -0.44273  0  3.392097  0
O  O60  1  0.16671461  0.81265319  0.83105029  1  0  -0.572156  0  1.942813  0  0  -0.519253  0  2.17954  0  0  -0.542314  0  2.170792  0  0  -0.292537  -0.502899  0  2.184823  0
O  O61  1  0.66672002  0.68734572  0.16894576  1  0  -0.572286  0  1.942266  0  0  -0.519425  0  2.179014  0  0  -0.542488  0  2.170278  0  0  -0.292649  -0.50308  0  2.184293  0
O  O62  1  0.83328539  0.18734539  0.16894887  1  0  -0.572162  0  1.942793  0  0  -0.519257  0  2.179535  0  0  -0.542311  0  2.170785  0  0  -0.292548  -0.502913  0  2.184814  0
O  O63  1  0.33328368  0.31265411  0.83105276  1  0  -0.572214  0  1.9422  0  0  -0.51937  0  2.178944  0  0  -0.542433  0  2.1702  0  0  -0.292596  -0.503016  0  2.184226  0
O  O64  1  0.14883396  0.01622178  0.70807609  1  0  -0.581534  0  1.980481  0  0  -0.534887  0  2.247767  0  0  -0.556862  0  2.234833  0  0  -0.304983  -0.519479  0  2.256072  0
O  O65  1  0.64883177  0.48378159  0.29192446  1  0  -0.581648  0  1.980926  0  0  -0.535007  0  2.248249  0  0  -0.556978  0  2.235303  0  0  -0.305072  -0.519611  0  2.256555  0
O  O66  1  0.85116233  0.98377677  0.29192542  1  0  -0.581555  0  1.980391  0  0  -0.534903  0  2.247701  0  0  -0.556879  0  2.234766  0  0  -0.304999  -0.519498  0  2.255997  0
O  O67  1  0.35116823  0.51621450  0.70807206  1  0  -0.581606  0  1.981123  0  0  -0.534978  0  2.24843  0  0  -0.55695  0  2.23548  0  0  -0.305058  -0.519576  0  2.25674  0
