# generated using pymatgen
data_Zn7H26C46(NO4)10
_symmetry_space_group_name_H-M   'P 1'
_cell_length_a   13.03137449
_cell_length_b   13.03137078
_cell_length_c   14.42764139
_cell_angle_alpha   88.42537576
_cell_angle_beta   88.42455624
_cell_angle_gamma   86.59513346
_symmetry_Int_Tables_number   1
_chemical_formula_structural   Zn7H26C46(NO4)10
_chemical_formula_sum   'Zn7 H26 C46 N10 O40'
_cell_volume   2443.98444484
_cell_formula_units_Z   1
loop_
 _symmetry_equiv_pos_site_id
 _symmetry_equiv_pos_as_xyz
  1  'x, y, z'
loop_
 _atom_site_type_symbol
 _atom_site_label
 _atom_site_symmetry_multiplicity
 _atom_site_fract_x
 _atom_site_fract_y
 _atom_site_fract_z
 _atom_site_occupancy
 _atom_site_pbe_bader_charge
 _atom_site_pbe_bader_spin_density
 _atom_site_pbe_cm5_charge
 _atom_site_pbe_ddec_charge
 _atom_site_pbe_ddec_spin_density
 _atom_site_pbe_ddec_sum_bond_order
 _atom_site_pbe_magmom
Zn  Zn0  1  0.50000135  0.50000208  0.00000323  1  1.326561  0  0.624506  0.9853  0  2.374482  0
Zn  Zn1  1  0.33495886  0.33495942  0.98635161  1  1.361368  0  0.668538  1.001892  0  2.254969  0
Zn  Zn2  1  0.66504308  0.66504334  0.01364731  1  1.361246  0  0.668513  1.001828  0  2.255118  0
Zn  Zn3  1  0.49686014  0.31648412  0.15318981  1  1.309326  0  0.673278  0.967589  0  2.312017  0
Zn  Zn4  1  0.68351602  0.50314125  0.84680459  1  1.309359  0  0.6733  0.967668  0  2.311887  0
Zn  Zn5  1  0.50313797  0.68351424  0.84680940  1  1.309381  0  0.673293  0.967675  0  2.311891  0
Zn  Zn6  1  0.31648361  0.49686240  0.15319439  1  1.309341  0  0.673304  0.967663  0  2.311968  0
H  H7  1  0.00760972  0.46523935  0.23256723  1  0.13794  0  0.12537  0.141916  0  0.99044  0
H  H8  1  0.53475930  0.99238678  0.76744123  1  0.137153  0  0.125362  0.141871  0  0.990338  0
H  H9  1  0.99238999  0.53476052  0.76743742  1  0.13718  0  0.125371  0.141888  0  0.990381  0
H  H10  1  0.46524339  0.00761745  0.23255624  1  0.137123  0  0.125333  0.141837  0  0.990389  0
H  H11  1  0.01101496  0.32882330  0.96423220  1  0.123566  0  0.117106  0.123185  0  0.97532  0
H  H12  1  0.67117463  0.98898794  0.03577516  1  0.123896  0  0.11705  0.123076  0  0.975363  0
H  H13  1  0.98898855  0.67117941  0.03577015  1  0.124146  0  0.117069  0.123125  0  0.975352  0
H  H14  1  0.32882196  0.01100898  0.96422553  1  0.124173  0  0.117049  0.12312  0  0.975349  0
H  H15  1  0.81962040  0.32682388  0.97227312  1  0.12206  0  0.108783  0.123201  0  1.019806  0
H  H16  1  0.67317716  0.18038283  0.02773025  1  0.121958  0  0.108785  0.123193  0  1.019768  0
H  H17  1  0.18038309  0.67317880  0.02772714  1  0.122113  0  0.108814  0.123218  0  1.019797  0
H  H18  1  0.32681718  0.81961426  0.97227537  1  0.121965  0  0.108809  0.123221  0  1.019796  0
H  H19  1  0.38320824  0.38320797  0.76951385  1  0.134406  0  0.130507  0.075113  0  0.999535  0
H  H20  1  0.61679060  0.61679492  0.23048310  1  0.13441  0  0.130521  0.075186  0  0.999553  0
H  H21  1  0.18890484  0.18891924  0.64613310  1  0.081413  0  0.118299  0.132237  0  0.976104  0
H  H22  1  0.81109166  0.81108606  0.35386177  1  0.081486  0  0.118277  0.13224  0  0.976215  0
H  H23  1  0.24280854  0.14322595  0.75341874  1  0.081992  0  0.111733  0.127931  0  0.973884  0
H  H24  1  0.85678316  0.75717980  0.24657633  1  0.081805  0  0.111741  0.127943  0  0.973748  0
H  H25  1  0.75718873  0.85677777  0.24657616  1  0.081872  0  0.111751  0.127952  0  0.973775  0
H  H26  1  0.14321414  0.24282395  0.75342064  1  0.081733  0  0.111722  0.127891  0  0.973765  0
H  H27  1  0.28278270  0.28278929  0.55969844  1  0.061475  0  0.116176  0.140716  0  0.961702  0
H  H28  1  0.71721460  0.71721523  0.44029851  1  0.06098  0  0.116156  0.140669  0  0.96173  0
H  H29  1  0.30471724  0.40597680  0.60193144  1  0.123067  0  0.094402  0.105123  0  1.065883  0
H  H30  1  0.59402603  0.69528555  0.39806465  1  0.123079  0  0.094344  0.105016  0  1.065812  0
H  H31  1  0.69527775  0.59402708  0.39806630  1  0.123145  0  0.094387  0.105075  0  1.065732  0
H  H32  1  0.40597124  0.30472126  0.60193153  1  0.122861  0  0.094377  0.105121  0  1.065715  0
C  C33  1  0.80534289  0.39292719  0.10770027  1  0.042264  0  0.010743  -0.030064  0  3.902777  0
C  C34  1  0.60707485  0.19465566  0.89230237  1  0.041043  0  0.01076  -0.030056  0  3.902887  0
C  C35  1  0.19465752  0.60707181  0.89229884  1  0.0417  0  0.010746  -0.030086  0  3.902913  0
C  C36  1  0.39292252  0.80534353  0.10769961  1  0.040998  0  0.010806  -0.030021  0  3.90292  0
C  C37  1  0.86098586  0.43006494  0.18026698  1  0.190324  0  0.08199  0.040955  0  3.917094  0
C  C38  1  0.56993600  0.13901171  0.81973699  1  0.191853  0  0.08186  0.040911  0  3.917358  0
C  C39  1  0.13901461  0.56993180  0.81973636  1  0.191233  0  0.081949  0.040971  0  3.917314  0
C  C40  1  0.43006518  0.86099110  0.18026335  1  0.191892  0  0.081849  0.040918  0  3.917239  0
C  C41  1  0.96744757  0.43407501  0.17554475  1  0.03169  0  -0.063071  -0.119481  0  3.921551  0
C  C42  1  0.56592609  0.03255041  0.82446200  1  0.033213  0  -0.063026  -0.119464  0  3.921518  0
C  C43  1  0.03255288  0.56592479  0.82445779  1  0.032468  0  -0.063057  -0.119457  0  3.921488  0
C  C44  1  0.43407585  0.96745234  0.17553693  1  0.033039  0  -0.063017  -0.119433  0  3.921404  0
C  C45  1  0.02146481  0.39788931  0.09714662  1  0.010106  0  -0.0108  -0.029451  0  3.967856  0
C  C46  1  0.60211260  0.97853421  0.90285834  1  0.009289  0  -0.010818  -0.029404  0  3.967866  0
C  C47  1  0.97853642  0.60211046  0.90285728  1  0.010102  0  -0.010827  -0.029482  0  3.968054  0
C  C48  1  0.39788703  0.02146635  0.09713936  1  0.009482  0  -0.010804  -0.029376  0  3.967738  0
C  C49  1  0.96785748  0.35731669  0.02497936  1  -0.039366  0  -0.061006  -0.053558  0  3.917573  0
C  C50  1  0.64268338  0.03214289  0.97502546  1  -0.039768  0  -0.060923  -0.053385  0  3.917612  0
C  C51  1  0.03214527  0.64268529  0.97502372  1  -0.039947  0  -0.060935  -0.053431  0  3.91765  0
C  C52  1  0.35731474  0.96785470  0.02497377  1  -0.040088  0  -0.060915  -0.053475  0  3.917547  0
C  C53  1  0.86102703  0.35551408  0.02994433  1  -0.049623  0  -0.080567  -0.104003  0  3.934055  0
C  C54  1  0.64448580  0.13897304  0.97005980  1  -0.049555  0  -0.080603  -0.104081  0  3.934107  0
C  C55  1  0.13897419  0.64448491  0.97005752  1  -0.049738  0  -0.080643  -0.104104  0  3.93401  0
C  C56  1  0.35551313  0.86102379  0.02994359  1  -0.049482  0  -0.080624  -0.104105  0  3.934151  0
C  C57  1  0.68951101  0.39562665  0.10744993  1  1.633189  0  0.222919  0.604824  0  4.209447  0
C  C58  1  0.60436962  0.31048797  0.89255366  1  1.633397  0  0.222875  0.604739  0  4.209611  0
C  C59  1  0.31048945  0.60437239  0.89255333  1  1.633355  0  0.222897  0.604855  0  4.209528  0
C  C60  1  0.39562774  0.68951275  0.10744758  1  1.633369  0  0.222901  0.604794  0  4.209503  0
C  C61  1  0.13575059  0.40519680  0.09028566  1  1.603371  0  0.223766  0.596849  0  4.188947  0
C  C62  1  0.59480018  0.86424900  0.90972015  1  1.60371  0  0.22387  0.597011  0  4.188687  0
C  C63  1  0.86425217  0.59480365  0.90971748  1  1.603589  0  0.223883  0.596949  0  4.188852  0
C  C64  1  0.40519866  0.13575005  0.09027624  1  1.603829  0  0.223844  0.597011  0  4.18883  0
C  C65  1  0.42978421  0.42978517  0.32250965  1  1.673772  0  0.235223  0.612357  0  4.165126  0
C  C66  1  0.57022158  0.57021044  0.67748732  1  1.673908  0  0.235316  0.612513  0  4.165135  0
C  C67  1  0.45912192  0.45911952  0.41886226  1  0.149627  0  0.017737  -0.076846  0  3.855673  0
C  C68  1  0.54088314  0.54087463  0.58113755  1  0.149697  0  0.017666  -0.076961  0  3.855764  0
C  C69  1  0.54571943  0.41177909  0.46164858  1  0.243595  0  0.103454  0.034377  0  3.861146  0
C  C70  1  0.58822535  0.45428148  0.53834183  1  0.194597  0  0.103567  0.034453  0  3.861134  0
C  C71  1  0.45428637  0.58821576  0.53834910  1  0.244571  0  0.103548  0.034555  0  3.861106  0
C  C72  1  0.41178198  0.54571251  0.46165513  1  0.194307  0  0.103541  0.034405  0  3.861241  0
C  C73  1  0.32573005  0.32573593  0.78010856  1  1.36177  0  0.168522  0.290279  0  4.069552  0
C  C74  1  0.67426725  0.67426551  0.21988849  1  1.361756  0  0.168549  0.290213  0  4.069453  0
C  C75  1  0.21121326  0.21122519  0.71488267  1  0.221956  0  -0.12298  -0.262977  0  3.889139  0
C  C76  1  0.78878482  0.78877852  0.28511498  1  0.221952  0  -0.123004  -0.263073  0  3.889181  0
C  C77  1  0.32335168  0.32335768  0.61160770  1  0.177759  0  -0.142933  -0.291195  0  3.889227  0
C  C78  1  0.67664484  0.67664919  0.38838920  1  0.177986  0  -0.142828  -0.290902  0  3.889  0
N  N79  1  0.80692553  0.46749435  0.26430801  1  0.37828  0  0.058983  0.515417  0  4.185105  0
N  N80  1  0.53250144  0.19306979  0.73569820  1  0.378099  0  0.058918  0.515309  0  4.185745  0
N  N81  1  0.19307338  0.53250321  0.73569328  1  0.377891  0  0.05908  0.515501  0  4.185305  0
N  N82  1  0.46749286  0.80693420  0.26430580  1  0.377715  0  0.058993  0.515314  0  4.18537  0
N  N83  1  0.58968106  0.30889107  0.43191582  1  0.473115  0  0.062619  0.511551  0  4.264133  0
N  N84  1  0.69111418  0.41031848  0.56807089  1  0.471787  0  0.062568  0.511853  0  4.263803  0
N  N85  1  0.41032093  0.69110094  0.56808347  1  0.472068  0  0.062609  0.511394  0  4.264495  0
N  N86  1  0.30889466  0.58968003  0.43192518  1  0.472848  0  0.062446  0.511521  0  4.264285  0
N  N87  1  0.28824738  0.28825506  0.70418185  1  -1.177317  0  -0.271845  0.041971  0  3.687745  0
N  N88  1  0.71175069  0.71174866  0.29581579  1  -1.177287  0  -0.271877  0.041892  0  3.687626  0
O  O89  1  0.41081434  0.41081741  0.07772515  1  -1.201777  0  -0.562766  -0.995237  0  2.467242  0
O  O90  1  0.58918534  0.58918398  0.92227806  1  -1.201742  0  -0.562713  -0.995259  0  2.467202  0
O  O91  1  0.64262788  0.47789393  0.07917821  1  -1.186463  0  -0.300749  -0.568373  0  2.379254  0
O  O92  1  0.52210326  0.35736983  0.92082969  1  -1.186672  0  -0.300763  -0.568375  0  2.37923  0
O  O93  1  0.35737488  0.52210575  0.92082426  1  -1.186611  0  -0.300734  -0.568421  0  2.379234  0
O  O94  1  0.47789495  0.64262862  0.07917783  1  -1.186486  0  -0.300762  -0.568384  0  2.379306  0
O  O95  1  0.64802706  0.31162144  0.12920519  1  -1.157839  0  -0.308112  -0.531737  0  2.309392  0
O  O96  1  0.68837411  0.35197473  0.87079528  1  -1.157933  0  -0.308055  -0.531672  0  2.309375  0
O  O97  1  0.35197263  0.68837687  0.87079743  1  -1.157967  0  -0.308086  -0.531731  0  2.309442  0
O  O98  1  0.31161936  0.64802925  0.12920321  1  -1.158009  0  -0.308086  -0.531734  0  2.309378  0
O  O99  1  0.17434881  0.45779234  0.15289445  1  -1.163684  0  -0.31522  -0.538752  0  2.326258  0
O  O100  1  0.54221088  0.82565052  0.84710778  1  -1.163952  0  -0.315255  -0.538851  0  2.32616  0
O  O101  1  0.82565083  0.54221209  0.84710658  1  -1.163947  0  -0.315278  -0.538806  0  2.326172  0
O  O102  1  0.45778948  0.17435073  0.15288710  1  -1.164031  0  -0.315337  -0.538905  0  2.326189  0
O  O103  1  0.18350172  0.36060871  0.02368049  1  -1.182229  0  -0.307688  -0.551541  0  2.342531  0
O  O104  1  0.63938197  0.81649740  0.97632841  1  -1.182219  0  -0.307748  -0.551614  0  2.342473  0
O  O105  1  0.81649952  0.63938877  0.97632349  1  -1.182157  0  -0.307732  -0.551556  0  2.342538  0
O  O106  1  0.36061535  0.18350097  0.02366875  1  -1.182303  0  -0.307622  -0.551532  0  2.34262  0
O  O107  1  0.71211154  0.46004081  0.26952217  1  -0.471325  0  -0.114297  -0.328761  0  2.047709  0
O  O108  1  0.53996589  0.28788085  0.73048017  1  -0.471138  0  -0.114182  -0.328588  0  2.047866  0
O  O109  1  0.28788504  0.53995763  0.73047778  1  -0.471232  0  -0.114304  -0.328739  0  2.047885  0
O  O110  1  0.46003610  0.71212042  0.26952366  1  -0.471073  0  -0.114163  -0.328551  0  2.04779  0
O  O111  1  0.85741501  0.50535136  0.32492495  1  -0.439126  0  -0.117114  -0.311228  0  1.898532  0
O  O112  1  0.49463620  0.14257803  0.67508847  1  -0.439497  0  -0.117077  -0.311232  0  1.898755  0
O  O113  1  0.14258083  0.49464793  0.67507847  1  -0.439174  0  -0.117154  -0.311293  0  1.898533  0
O  O114  1  0.50535199  0.85742481  0.32491994  1  -0.439206  0  -0.117201  -0.311289  0  1.898552  0
O  O115  1  0.48492001  0.35776332  0.28609005  1  -1.153254  0  -0.291713  -0.511889  0  2.36223  0
O  O116  1  0.64224823  0.51507554  0.71390312  1  -1.153122  0  -0.291826  -0.512071  0  2.36228  0
O  O117  1  0.51507205  0.64222081  0.71391263  1  -1.153526  0  -0.291729  -0.511908  0  2.36226  0
O  O118  1  0.35776445  0.48492662  0.28609408  1  -1.153273  0  -0.291738  -0.511918  0  2.362305  0
O  O119  1  0.67792399  0.30243142  0.39942261  1  -0.408215  0  -0.105087  -0.284992  0  1.941402  0
O  O120  1  0.69757035  0.32207698  0.60056771  1  -0.40802  0  -0.105071  -0.285145  0  1.941355  0
O  O121  1  0.32207410  0.69755534  0.60057006  1  -0.408105  0  -0.105073  -0.284967  0  1.941535  0
O  O122  1  0.30244240  0.67792447  0.39943505  1  -0.408566  0  -0.105036  -0.285031  0  1.941529  0
O  O123  1  0.53305587  0.23797206  0.44914156  1  -0.406703  0  -0.100878  -0.281246  0  1.897205  0
O  O124  1  0.76203385  0.46694139  0.55084164  1  -0.405789  0  -0.100847  -0.281373  0  1.89703  0
O  O125  1  0.46694621  0.76202313  0.55086802  1  -0.406535  0  -0.100882  -0.281152  0  1.897373  0
O  O126  1  0.23797183  0.53305797  0.44914688  1  -0.406658  0  -0.100749  -0.281151  0  1.897161  0
O  O127  1  0.29622431  0.29623551  0.86033759  1  -1.149671  0  -0.304535  -0.456747  0  2.419794  0
O  O128  1  0.70377376  0.70376821  0.13966005  1  -1.149736  0  -0.304562  -0.456723  0  2.419755  0
