# generated using pymatgen
data_ZnH17C24N2O5
_symmetry_space_group_name_H-M   'P 1'
_cell_length_a   9.26954693
_cell_length_b   9.64779041
_cell_length_c   11.83813374
_cell_angle_alpha   81.50435917
_cell_angle_beta   80.94320839
_cell_angle_gamma   68.99663988
_symmetry_Int_Tables_number   1
_chemical_formula_structural   ZnH17C24N2O5
_chemical_formula_sum   'Zn2 H34 C48 N4 O10'
_cell_volume   971.23045077
_cell_formula_units_Z   2
loop_
 _symmetry_equiv_pos_site_id
 _symmetry_equiv_pos_as_xyz
  1  'x, y, z'
loop_
 _atom_site_type_symbol
 _atom_site_label
 _atom_site_symmetry_multiplicity
 _atom_site_fract_x
 _atom_site_fract_y
 _atom_site_fract_z
 _atom_site_occupancy
 _atom_site_pbe_bader_spin_density
 _atom_site_pbe_cm5_charge
 _atom_site_pbe_ddec_charge
 _atom_site_pbe_ddec_spin_density
 _atom_site_pbe_ddec_sum_bond_order
 _atom_site_pbe_magmom
Zn  Zn0  1  0.78677090  0.16383161  0.62289866  1  0  0.683514  0.824343  0  2.331812  0
Zn  Zn1  1  0.21322818  0.83616957  0.37710017  1  0  0.683515  0.824351  0  2.331841  0
H  H2  1  0.71971127  0.99233090  0.52003592  1  0  0.280713  0.364486  0  0.996593  0
H  H3  1  0.28028821  0.00766916  0.47996300  1  0  0.280708  0.364471  0  0.996622  0
H  H4  1  0.85314344  0.03053567  0.42536013  1  0  0.285403  0.381803  0  0.965195  0
H  H5  1  0.14685604  0.96946440  0.57463879  1  0  0.285413  0.381817  0  0.965177  0
H  H6  1  0.30528106  0.07747966  0.65573461  1  0  0.104602  0.107767  0  1.020382  0
H  H7  1  0.69472031  0.92251818  0.34426521  1  0  0.10459  0.107786  0  1.020406  0
H  H8  1  0.35189426  0.75365792  0.02388702  1  0  0.103463  0.110893  0  1.01143  0
H  H9  1  0.64810222  0.24634442  0.97611451  1  0  0.10344  0.110874  0  1.011407  0
H  H10  1  0.09276281  0.90069937  0.96664184  1  0  0.102519  0.106558  0  1.048001  0
H  H11  1  0.90723368  0.09930295  0.03335885  1  0  0.102517  0.106569  0  1.048027  0
H  H12  1  0.69370083  0.91861868  0.95794397  1  0  0.09954  0.108768  0  1.024173  0
H  H13  1  0.30629607  0.08138251  0.04205512  1  0  0.099529  0.108751  0  1.024231  0
H  H14  1  0.94133676  0.75479191  0.02355120  1  0  0.097364  0.096886  0  1.057131  0
H  H15  1  0.05866043  0.24521152  0.97644841  1  0  0.097367  0.096907  0  1.057129  0
H  H16  1  0.86189705  0.37452169  0.92669654  1  0  0.10024  0.111676  0  1.053184  0
H  H17  1  0.13810490  0.62548062  0.07330264  1  0  0.100238  0.111676  0  1.053176  0
H  H18  1  0.60875037  0.53875961  0.87166783  1  0  0.093151  0.094536  0  1.04458  0
H  H19  1  0.39124910  0.46124047  0.12833194  1  0  0.093144  0.094545  0  1.044562  0
H  H20  1  0.04257760  0.19599598  0.41441736  1  0  0.11919  0.089444  0  1.007762  0
H  H21  1  0.95742265  0.80400189  0.58558429  1  0  0.119187  0.089427  0  1.007773  0
H  H22  1  0.09098064  0.40385404  0.27907937  1  0  0.10855  0.116968  0  1.021071  0
H  H23  1  0.90902262  0.59614156  0.72091967  1  0  0.108546  0.116994  0  1.021052  0
H  H24  1  0.91064172  0.66568428  0.30308598  1  0  0.110119  0.108656  0  1.002599  0
H  H25  1  0.08936303  0.33431020  0.69691302  1  0  0.110102  0.108596  0  1.002633  0
H  H26  1  0.68898897  0.70943937  0.46084480  1  0  0.112062  0.126405  0  1.018235  0
H  H27  1  0.31101518  0.29056293  0.53915412  1  0  0.112036  0.126348  0  1.018271  0
H  H28  1  0.49940801  0.72721713  0.58321980  1  0  0.109921  0.128135  0  1.031526  0
H  H29  1  0.50058997  0.27278408  0.41678085  1  0  0.109925  0.128118  0  1.031568  0
H  H30  1  0.28227803  0.72786800  0.73335658  1  0  0.10862  0.106699  0  1.013869  0
H  H31  1  0.71772293  0.27213097  0.26664400  1  0  0.108632  0.106698  0  1.013809  0
H  H32  1  0.28318955  0.48549262  0.84892561  1  0  0.104972  0.111459  0  1.039785  0
H  H33  1  0.71680992  0.51450746  0.15107416  1  0  0.104957  0.111427  0  1.039767  0
H  H34  1  0.50333332  0.25045364  0.80063056  1  0  0.120195  0.096816  0  1.016743  0
H  H35  1  0.49666508  0.74954641  0.19936765  1  0  0.120187  0.096783  0  1.016766  0
C  C36  1  0.02171429  0.08080703  0.76842908  1  0  0.210642  0.574808  0  4.201935  0
C  C37  1  0.97828449  0.91919192  0.23157007  1  0  0.210639  0.574804  0  4.202065  0
C  C38  1  0.18018098  0.99905862  0.80633575  1  0  -0.020583  -0.039679  0  4.013034  0
C  C39  1  0.81981631  0.00094144  0.19366343  1  0  -0.020614  -0.03963  0  4.013226  0
C  C40  1  0.31425792  0.00995460  0.73836930  1  0  -0.088192  -0.135439  0  3.966019  0
C  C41  1  0.68574166  0.99004213  0.26163089  1  0  -0.088132  -0.135499  0  3.966152  0
C  C42  1  0.46182204  0.93267351  0.77367824  1  0  -0.009277  -0.058269  0  3.936508  0
C  C43  1  0.53817524  0.06732659  0.22632264  1  0  -0.009289  -0.05826  0  3.936551  0
C  C44  1  0.47745758  0.83652734  0.87618750  1  0  -0.001144  0.042798  0  3.979313  0
C  C45  1  0.52254079  0.16347275  0.12381324  1  0  -0.001107  0.04281  0  3.979476  0
C  C46  1  0.34221439  0.82630644  0.94357502  1  0  -0.085697  -0.120817  0  3.971084  0
C  C47  1  0.65778289  0.17369365  0.05642585  1  0  -0.085741  -0.120814  0  3.971163  0
C  C48  1  0.19514155  0.90875205  0.91086274  1  0  -0.088771  -0.106495  0  3.980544  0
C  C49  1  0.80485682  0.09124804  0.08913801  1  0  -0.088736  -0.106534  0  3.980645  0
C  C50  1  0.59906707  0.95335955  0.69539131  1  0  0.214804  0.592406  0  4.186339  0
C  C51  1  0.40093172  0.04663940  0.30460784  1  0  0.21473  0.5924  0  4.186446  0
C  C52  1  0.63211877  0.74060310  0.91096912  1  0  -0.011607  0.061037  0  4.011575  0
C  C53  1  0.36788209  0.25939922  0.08903104  1  0  -0.011581  0.061097  0  4.011482  0
C  C54  1  0.72964066  0.79893093  0.95270602  1  0  -0.089408  -0.112833  0  3.961282  0
C  C55  1  0.27036101  0.20106913  0.04729264  1  0  -0.089372  -0.11277  0  3.961268  0
C  C56  1  0.87163820  0.70500098  0.98844331  1  0  -0.09336  -0.127992  0  3.962166  0
C  C57  1  0.12836387  0.29499797  0.01155545  1  0  -0.093371  -0.128069  0  3.962239  0
C  C58  1  0.92428137  0.54983699  0.98105504  1  0  -0.014823  0.050903  0  4.00861  0
C  C59  1  0.07571958  0.45016200  0.01894638  1  0  -0.014854  0.050904  0  4.008682  0
C  C60  1  0.82668170  0.49282660  0.93691238  1  0  -0.097371  -0.142108  0  3.986575  0
C  C61  1  0.17331697  0.50717572  0.06308804  1  0  -0.097376  -0.14209  0  3.986577  0
C  C62  1  0.68279780  0.58614107  0.90418030  1  0  -0.096009  -0.133763  0  3.993789  0
C  C63  1  0.31720017  0.41386015  0.09582119  1  0  -0.096026  -0.133832  0  3.993769  0
C  C64  1  0.96629175  0.31127639  0.42131261  1  0  0.055845  0.114227  0  3.926061  0
C  C65  1  0.03371099  0.68872371  0.57868845  1  0  0.055847  0.114253  0  3.926006  0
C  C66  1  0.99309569  0.42739828  0.34628961  1  0  -0.076165  -0.114471  0  3.930971  0
C  C67  1  0.00690962  0.57260071  0.65371213  1  0  -0.076214  -0.1146  0  3.931131  0
C  C68  1  0.89214043  0.57258573  0.36012228  1  0  -0.062732  -0.017711  0  3.945366  0
C  C69  1  0.10786419  0.42741214  0.63987884  1  0  -0.062666  -0.017524  0  3.945523  0
C  C70  1  0.76778008  0.59708591  0.44689037  1  0  -0.075461  -0.154896  0  3.927775  0
C  C71  1  0.23222046  0.40291421  0.55311180  1  0  -0.075477  -0.154914  0  3.927985  0
C  C72  1  0.74710100  0.47442541  0.51775403  1  0  0.120549  0.165474  0  3.996115  0
C  C73  1  0.25290065  0.52557469  0.48224716  1  0  0.12056  0.165434  0  3.996116  0
C  C74  1  0.61532328  0.48716763  0.60954292  1  0  0.11973  0.162735  0  3.972742  0
C  C75  1  0.38467689  0.51283357  0.39045747  1  0  0.119734  0.162768  0  3.972746  0
C  C76  1  0.49726531  0.62260268  0.63108017  1  0  -0.074107  -0.144673  0  3.903088  0
C  C77  1  0.50273266  0.37739854  0.36892133  1  0  -0.074093  -0.144653  0  3.903118  0
C  C78  1  0.37546968  0.62320265  0.71673459  1  0  -0.060909  -0.010425  0  3.938668  0
C  C79  1  0.62452976  0.37679747  0.28326771  1  0  -0.060944  -0.010405  0  3.93858  0
C  C80  1  0.37520537  0.48972749  0.78043988  1  0  -0.080635  -0.126627  0  3.960175  0
C  C81  1  0.62479408  0.51027262  0.21956158  1  0  -0.080655  -0.126665  0  3.960142  0
C  C82  1  0.49666793  0.35890817  0.75497128  1  0  0.051244  0.097909  0  3.932782  0
C  C83  1  0.50333045  0.64109191  0.24502861  1  0  0.051299  0.098015  0  3.932805  0
N  N84  1  0.84704023  0.33461102  0.50474151  1  0  -0.319758  -0.279565  0  3.526786  0
N  N85  1  0.15296181  0.66538797  0.49525978  1  0  -0.319734  -0.279506  0  3.526735  0
N  N86  1  0.61265100  0.35770778  0.67096329  1  0  -0.324019  -0.270469  0  3.552373  0
N  N87  1  0.38734738  0.64229230  0.32903661  1  0  -0.324023  -0.270501  0  3.552407  0
O  O88  1  0.00285253  0.05525458  0.66701856  1  0  -0.324867  -0.568172  0  2.369305  0
O  O89  1  0.99714806  0.94474547  0.33297939  1  0  -0.324871  -0.568203  0  2.369432  0
O  O90  1  0.91695271  0.16626630  0.83069868  1  0  -0.301306  -0.521439  0  2.146309  0
O  O91  1  0.08304568  0.83373376  0.16930038  1  0  -0.301301  -0.521428  0  2.146342  0
O  O92  1  0.63441214  0.89513221  0.60094850  1  0  -0.316339  -0.547772  0  2.173829  0
O  O93  1  0.36558843  0.10486786  0.39905030  1  0  -0.316322  -0.547761  0  2.17376  0
O  O94  1  0.66403579  0.03479950  0.72813359  1  0  -0.317879  -0.555543  0  2.28899  0
O  O95  1  0.33596299  0.96519946  0.27186641  1  0  -0.317818  -0.555516  0  2.2891  0
O  O96  1  0.76388149  0.07366904  0.48461314  1  0  -0.586523  -0.765436  0  2.210947  0
O  O97  1  0.23611840  0.92632991  0.51538588  1  0  -0.586535  -0.765449  0  2.210953  0
