# generated using pymatgen
data_Pr2B5H7(C2O7)2
_symmetry_space_group_name_H-M   'P 1'
_cell_length_a   6.42448932
_cell_length_b   10.94617419
_cell_length_c   11.48603908
_cell_angle_alpha   61.54547717
_cell_angle_beta   89.62447753
_cell_angle_gamma   89.20646956
_symmetry_Int_Tables_number   1
_chemical_formula_structural   Pr2B5H7(C2O7)2
_chemical_formula_sum   'Pr4 B10 H14 C8 O28'
_cell_volume   710.09277305
_cell_formula_units_Z   2
loop_
 _symmetry_equiv_pos_site_id
 _symmetry_equiv_pos_as_xyz
  1  'x, y, z'
loop_
 _atom_site_type_symbol
 _atom_site_label
 _atom_site_symmetry_multiplicity
 _atom_site_fract_x
 _atom_site_fract_y
 _atom_site_fract_z
 _atom_site_occupancy
 _atom_site_hle17_bader_spin_density
 _atom_site_hle17_ddec_charge
 _atom_site_hle17_ddec_spin_density
 _atom_site_hle17_ddec_sum_bond_order
 _atom_site_hle17_magmom
 _atom_site_hse06_10hf_bader_spin_density
 _atom_site_hse06_10hf_ddec_charge
 _atom_site_hse06_10hf_ddec_spin_density
 _atom_site_hse06_10hf_ddec_sum_bond_order
 _atom_site_hse06_10hf_magmom
 _atom_site_hse06_bader_spin_density
 _atom_site_hse06_ddec_charge
 _atom_site_hse06_ddec_spin_density
 _atom_site_hse06_ddec_sum_bond_order
 _atom_site_hse06_magmom
 _atom_site_pbe_bader_spin_density
 _atom_site_pbe_cm5_charge
 _atom_site_pbe_ddec_charge
 _atom_site_pbe_ddec_spin_density
 _atom_site_pbe_ddec_sum_bond_order
 _atom_site_pbe_magmom
Pr  Pr0  1  0.82368869  0.38590463  0.48595628  1  0  2.366292  0  1.56732  0  0  2.241372  0  1.924164  0  0  2.279408  0  1.883032  0  0  1.734441  2.166087  0  2.040327  0
Pr  Pr1  1  0.32367552  0.87190518  0.51394865  1  0  2.366029  0  1.566613  0  0  2.241318  0  1.923319  0  0  2.2793  0  1.882222  0  0  1.734249  2.16662  0  2.038507  0
Pr  Pr2  1  0.65963905  0.78780752  0.13522510  1  0  2.36999  0  1.539051  0  0  2.208669  0  1.970624  0  0  2.289814  0  1.8515  0  0  1.652164  2.177154  0  2.005402  0
Pr  Pr3  1  0.15970669  0.92306456  0.86477404  1  0  2.369935  0  1.539172  0  0  2.208125  0  1.971724  0  0  2.289749  0  1.851674  0  0  1.65213  2.176687  0  2.006417  0
B  B4  1  0.31317949  0.58793441  0.41651700  1  0  1.302539  0  2.632764  0  0  1.140014  0  2.961969  0  0  1.17256  0  2.934224  0  0  0.086662  1.116277  0  2.982642  0
B  B5  1  0.81321273  0.00446464  0.58346963  1  0  1.303327  0  2.631778  0  0  1.141752  0  2.959333  0  0  1.175139  0  2.929072  0  0  0.086856  1.117895  0  2.980298  0
B  B6  1  0.21016216  0.78349661  0.19175760  1  0  1.200762  0  2.901065  0  0  1.047399  0  3.230898  0  0  1.088682  0  3.19321  0  0  0.040164  1.016593  0  3.263597  0
B  B7  1  0.71018059  0.97528251  0.80826226  1  0  1.200188  0  2.903896  0  0  1.046018  0  3.235743  0  0  1.087454  0  3.197762  0  0  0.040261  1.015084  0  3.268696  0
B  B8  1  0.96433256  0.69476359  0.38140083  1  0  1.212803  0  2.791806  0  0  1.048026  0  3.129898  0  0  1.080181  0  3.10417  0  0  0.018868  1.025713  0  3.146149  0
B  B9  1  0.46434002  0.07616072  0.61857248  1  0  1.213593  0  2.789453  0  0  1.049367  0  3.126999  0  0  1.081427  0  3.101443  0  0  0.019044  1.027173  0  3.143032  0
B  B10  1  0.36272231  0.32835850  0.48421082  1  0  1.19504  0  2.856133  0  0  1.039206  0  3.180011  0  0  1.082036  0  3.135308  0  0  0.096454  1.010031  0  3.205853  0
B  B11  1  0.86274677  0.81255539  0.51581673  1  0  1.194672  0  2.856209  0  0  1.038632  0  3.181349  0  0  1.08129  0  3.136934  0  0  0.095731  1.009596  0  3.206873  0
B  B12  1  0.62400406  0.63996548  0.51192487  1  0  1.218627  0  2.768668  0  0  1.057961  0  3.10413  0  0  1.090205  0  3.077195  0  0  0.009943  1.035973  0  3.119374  0
B  B13  1  0.12399380  0.15191556  0.48803278  1  0  1.217361  0  2.770457  0  0  1.058185  0  3.101937  0  0  1.090481  0  3.074877  0  0  0.009871  1.035776  0  3.118284  0
H  H14  1  0.05727834  0.34550665  0.19744919  1  0  0.151142  0  0.956764  0  0  0.167366  0  1.017799  0  0  0.170662  0  1.015889  0  0  0.107642  0.164929  0  1.01925  0
H  H15  1  0.55695120  0.54299368  0.80245323  1  0  0.151387  0  0.956771  0  0  0.16765  0  1.017707  0  0  0.170952  0  1.015791  0  0  0.107759  0.1652  0  1.019186  0
H  H16  1  0.24941866  0.47931127  0.13760210  1  0  0.152369  0  0.921897  0  0  0.173094  0  0.97772  0  0  0.176196  0  0.975982  0  0  0.115333  0.170811  0  0.979098  0
H  H17  1  0.74924743  0.61686291  0.86227324  1  0  0.152498  0  0.920824  0  0  0.173091  0  0.976832  0  0  0.176187  0  0.97512  0  0  0.115275  0.170829  0  0.978193  0
H  H18  1  0.08234752  0.46445283  0.02332886  1  0  0.13437  0  0.945759  0  0  0.154365  0  1.006086  0  0  0.156055  0  1.006186  0  0  0.102512  0.153053  0  1.006122  0
H  H19  1  0.58220520  0.48774273  0.97657451  1  0  0.134049  0  0.946724  0  0  0.154052  0  1.006776  0  0  0.155714  0  1.006903  0  0  0.102341  0.152748  0  1.00681  0
H  H20  1  0.75140625  0.24486513  0.11248413  1  0  0.141023  0  0.935102  0  0  0.163411  0  0.98573  0  0  0.165445  0  0.985401  0  0  0.103321  0.161837  0  0.98615  0
H  H21  1  0.25149396  0.35728906  0.88775095  1  0  0.140813  0  0.935193  0  0  0.163727  0  0.985264  0  0  0.165762  0  0.984943  0  0  0.103422  0.162155  0  0.985686  0
H  H22  1  0.69791795  0.18444130  0.28476972  1  0  0.155091  0  0.940883  0  0  0.170072  0  1.006519  0  0  0.174115  0  1.003161  0  0  0.115417  0.167219  0  1.008662  0
H  H23  1  0.19798274  0.46930454  0.71546454  1  0  0.154594  0  0.940763  0  0  0.169863  0  1.006286  0  0  0.173987  0  1.002822  0  0  0.115094  0.167009  0  1.008437  0
H  H24  1  0.49156416  0.25023702  0.16585876  1  0  0.120078  0  0.953006  0  0  0.141726  0  1.011613  0  0  0.143624  0  1.010852  0  0  0.100453  0.140248  0  1.012427  0
H  H25  1  0.99163905  0.41608215  0.83436056  1  0  0.120773  0  0.952065  0  0  0.142076  0  1.011164  0  0  0.143966  0  1.010426  0  0  0.10061  0.140592  0  1.011986  0
H  H26  1  0.80571141  0.50129921  0.67059471  1  0  0.404269  0  0.864066  0  0  0.383345  0  0.927949  0  0  0.3911  0  0.918868  0  0  0.329983  0.37812  0  0.933123  0
H  H27  1  0.30579789  0.17203760  0.32937919  1  0  0.404312  0  0.864337  0  0  0.383292  0  0.928418  0  0  0.391027  0  0.919372  0  0  0.33004  0.378093  0  0.933553  0
C  C28  1  0.94328280  0.55527352  0.13365265  1  0  0.810725  0  3.789163  0  0  0.776114  0  4.078176  0  0  0.810018  0  4.07026  0  0  0.237377  0.752797  0  4.083807  0
C  C29  1  0.44318698  0.68892304  0.86636973  1  0  0.809561  0  3.791294  0  0  0.775536  0  4.079437  0  0  0.809421  0  4.071637  0  0  0.236873  0.752219  0  4.085054  0
C  C30  1  0.09034290  0.45260380  0.12364371  1  0  -0.460885  0  3.617997  0  0  -0.537705  0  3.847003  0  0  -0.544864  0  3.848351  0  0  -0.234448  -0.532262  0  3.845694  0
C  C31  1  0.59013779  0.57623050  0.87627977  1  0  -0.460689  0  3.618299  0  0  -0.53762  0  3.847243  0  0  -0.544744  0  3.848574  0  0  -0.234256  -0.532177  0  3.845874  0
C  C32  1  0.60068842  0.04577275  0.21226153  1  0  0.81985  0  3.790968  0  0  0.78816  0  4.073044  0  0  0.821975  0  4.064673  0  0  0.248172  0.764858  0  4.0786  0
C  C33  1  0.10075400  0.25820303  0.78772470  1  0  0.819416  0  3.792842  0  0  0.789284  0  4.07256  0  0  0.823038  0  4.064297  0  0  0.248233  0.765995  0  4.078091  0
C  C34  1  0.63910797  0.19069631  0.19231408  1  0  -0.46145  0  3.631288  0  0  -0.534543  0  3.853622  0  0  -0.541204  0  3.854584  0  0  -0.229744  -0.529596  0  3.853092  0
C  C35  1  0.13921722  0.38304975  0.80788989  1  0  -0.461055  0  3.630293  0  0  -0.535034  0  3.852157  0  0  -0.541738  0  3.853064  0  0  -0.229611  -0.530088  0  3.851643  0
O  O36  1  0.42992631  0.45827894  0.44971648  1  0  -0.921562  0  2.186388  0  0  -0.813049  0  2.451837  0  0  -0.839207  0  2.427641  0  0  -0.21685  -0.790004  0  2.467117  0
O  O37  1  0.92997113  0.90797928  0.55031949  1  0  -0.921763  0  2.186215  0  0  -0.813703  0  2.451819  0  0  -0.839763  0  2.427398  0  0  -0.217098  -0.790799  0  2.467217  0
O  O38  1  0.35089466  0.68027942  0.27333201  1  0  -0.972977  0  2.176413  0  0  -0.862222  0  2.445291  0  0  -0.89233  0  2.421032  0  0  -0.2696  -0.843707  0  2.461701  0
O  O39  1  0.85094168  0.95374928  0.72664141  1  0  -0.972921  0  2.176762  0  0  -0.861889  0  2.445287  0  0  -0.892243  0  2.42084  0  0  -0.269451  -0.843278  0  2.461764  0
O  O40  1  0.08900494  0.56595242  0.44000875  1  0  -1.012207  0  2.107102  0  0  -0.910177  0  2.376509  0  0  -0.933965  0  2.357074  0  0  -0.295686  -0.887264  0  2.388638  0
O  O41  1  0.58901666  0.00593142  0.55997835  1  0  -1.011991  0  2.105015  0  0  -0.910919  0  2.374905  0  0  -0.934847  0  2.35535  0  0  -0.295947  -0.888061  0  2.387078  0
O  O42  1  0.28450480  0.87521555  0.07267066  1  0  -1.121696  0  1.894866  0  0  -1.033748  0  2.173678  0  0  -1.070969  0  2.145408  0  0  -0.526205  -1.014125  0  2.192525  0
O  O43  1  0.78449480  0.94789006  0.92737438  1  0  -1.121267  0  1.89475  0  0  -1.033392  0  2.173991  0  0  -1.07061  0  2.145631  0  0  -0.525823  -1.013763  0  2.192949  0
O  O44  1  0.00959690  0.78166814  0.23822652  1  0  -0.929  0  2.151354  0  0  -0.814929  0  2.409902  0  0  -0.844952  0  2.387102  0  0  -0.244307  -0.796335  0  2.425038  0
O  O45  1  0.50960511  0.01988357  0.76176269  1  0  -0.928954  0  2.151111  0  0  -0.815085  0  2.410317  0  0  -0.845097  0  2.387317  0  0  -0.244325  -0.796537  0  2.425517  0
O  O46  1  0.51131447  0.22737014  0.55024114  1  0  -0.928754  0  2.168869  0  0  -0.820902  0  2.432254  0  0  -0.845322  0  2.406172  0  0  -0.240667  -0.797796  0  2.447918  0
O  O47  1  0.01129930  0.77764185  0.44974732  1  0  -0.928546  0  2.169186  0  0  -0.820252  0  2.432406  0  0  -0.844642  0  2.406385  0  0  -0.240523  -0.79724  0  2.448032  0
O  O48  1  0.74199137  0.66303485  0.39036091  1  0  -1.055776  0  2.189076  0  0  -0.947863  0  2.452089  0  0  -0.975591  0  2.433437  0  0  -0.299517  -0.92756  0  2.464174  0
O  O49  1  0.24198874  0.05339290  0.60958950  1  0  -1.055936  0  2.189709  0  0  -0.948357  0  2.452609  0  0  -0.976091  0  2.433807  0  0  -0.299607  -0.928103  0  2.464907  0
O  O50  1  0.67403890  0.74866516  0.55098711  1  0  -0.937698  0  2.184191  0  0  -0.827665  0  2.446055  0  0  -0.85405  0  2.423134  0  0  -0.247027  -0.804396  0  2.460691  0
O  O51  1  0.17398787  0.29965043  0.44904475  1  0  -0.937559  0  2.184352  0  0  -0.827448  0  2.44584  0  0  -0.85378  0  2.422829  0  0  -0.247462  -0.804155  0  2.460736  0
O  O52  1  0.68759458  0.49903283  0.61932951  1  0  -0.902507  0  1.962407  0  0  -0.835972  0  2.18795  0  0  -0.854699  0  2.167192  0  0  -0.462274  -0.817756  0  2.202131  0
O  O53  1  0.18767366  0.11847892  0.38058168  1  0  -0.902389  0  1.963169  0  0  -0.836149  0  2.188637  0  0  -0.854924  0  2.167927  0  0  -0.462318  -0.817917  0  2.202842  0
O  O54  1  0.40198109  0.65010877  0.49367897  1  0  -0.9746  0  2.072948  0  0  -0.877602  0  2.346218  0  0  -0.901079  0  2.325515  0  0  -0.273337  -0.855538  0  2.359411  0
O  O55  1  0.90195170  0.14378098  0.50623928  1  0  -0.974816  0  2.07364  0  0  -0.878129  0  2.346187  0  0  -0.90189  0  2.325508  0  0  -0.273389  -0.855831  0  2.359356  0
O  O56  1  0.94475898  0.68157828  0.04271427  1  0  -0.787773  0  2.000542  0  0  -0.735016  0  2.246406  0  0  -0.767437  0  2.235347  0  0  -0.360465  -0.718083  0  2.253723  0
O  O57  1  0.44477312  0.72423347  0.95735398  1  0  -0.787666  0  2.000942  0  0  -0.735154  0  2.246688  0  0  -0.767588  0  2.235666  0  0  -0.360782  -0.718255  0  2.254056  0
O  O58  1  0.81711674  0.51678574  0.23223520  1  0  -0.816535  0  1.931249  0  0  -0.77121  0  2.181357  0  0  -0.79672  0  2.165475  0  0  -0.393501  -0.74914  0  2.193474  0
O  O59  1  0.31705761  0.74914202  0.76776595  1  0  -0.815753  0  1.932516  0  0  -0.770476  0  2.182156  0  0  -0.79606  0  2.166335  0  0  -0.392775  -0.748503  0  2.194254  0
O  O60  1  0.69358382  0.00687862  0.13860696  1  0  -0.671617  0  1.93469  0  0  -0.622612  0  2.164774  0  0  -0.650235  0  2.15131  0  0  -0.37045  -0.606976  0  2.173239  0
O  O61  1  0.19335951  0.14551970  0.86135907  1  0  -0.671366  0  1.935445  0  0  -0.622799  0  2.164932  0  0  -0.65048  0  2.151446  0  0  -0.370483  -0.607186  0  2.173404  0
O  O62  1  0.47477678  0.96819070  0.30429207  1  0  -0.799795  0  2.005304  0  0  -0.754939  0  2.264065  0  0  -0.779524  0  2.249985  0  0  -0.434285  -0.731143  0  2.276433  0
O  O63  1  0.97507633  0.27293634  0.69549028  1  0  -0.799972  0  2.006842  0  0  -0.75571  0  2.264969  0  0  -0.780323  0  2.250942  0  0  -0.434483  -0.731797  0  2.277377  0
