# generated using pymatgen
data_CoH52C60S2N8(Cl2O)2
_symmetry_space_group_name_H-M   'P 1'
_cell_length_a   10.32714473
_cell_length_b   16.21583099
_cell_length_c   18.67408495
_cell_angle_alpha   90.00002964
_cell_angle_beta   89.99928065
_cell_angle_gamma   108.78679235
_symmetry_Int_Tables_number   1
_chemical_formula_structural   CoH52C60S2N8(Cl2O)2
_chemical_formula_sum   'Co2 H104 C120 S4 N16 Cl8 O4'
_cell_volume   2960.61524393
_cell_formula_units_Z   2
loop_
 _symmetry_equiv_pos_site_id
 _symmetry_equiv_pos_as_xyz
  1  'x, y, z'
loop_
 _atom_site_type_symbol
 _atom_site_label
 _atom_site_symmetry_multiplicity
 _atom_site_fract_x
 _atom_site_fract_y
 _atom_site_fract_z
 _atom_site_occupancy
 _atom_site_pbe_bader_charge
 _atom_site_pbe_bader_spin_density
 _atom_site_pbe_cm5_charge
 _atom_site_pbe_ddec_charge
 _atom_site_pbe_ddec_spin_density
 _atom_site_pbe_ddec_sum_bond_order
 _atom_site_pbe_magmom
Co  Co0  1  0.00000442  0.00000096  0.49999987  1  1.117771  0.909251  0.734916  0.572585  1.069874  3.322936  0.9
Co  Co1  1  0.99999987  0.50000117  0.00000116  1  1.117736  -0.909247  0.734917  0.572648  -1.069872  3.322866  -0.9
H  H2  1  0.21850137  0.91090943  0.45179879  1  0.104914  0.001736  0.106987  0.073419  0.000659  1.040898  0.001
H  H3  1  0.78150089  0.58908428  0.95180682  1  0.10436  -0.001736  0.107034  0.073431  -0.000659  1.040776  -0.001
H  H4  1  0.78151379  0.08908797  0.54820517  1  0.104964  0.001736  0.107005  0.07343  0.000659  1.040865  0.001
H  H5  1  0.21849442  0.41091614  0.04819445  1  0.104938  -0.001736  0.107046  0.073484  -0.000659  1.040854  -0.001
H  H6  1  0.30184641  0.79153870  0.49077227  1  0.095174  0.000863  0.089821  0.095224  0.000354  1.085256  0.0
H  H7  1  0.69815616  0.70845550  0.99078040  1  0.095062  -0.000863  0.089826  0.095229  -0.000354  1.085397  0.0
H  H8  1  0.69816458  0.20845607  0.50923168  1  0.095351  0.000863  0.08981  0.095263  0.000354  1.085242  0.0
H  H9  1  0.30184499  0.29154498  0.00922730  1  0.095066  -0.000863  0.089793  0.095224  -0.000354  1.085321  0.0
H  H10  1  0.93480273  0.69219088  0.61752166  1  0.106809  0.000987  0.107836  0.111664  0.000427  1.027811  0.0
H  H11  1  0.06518598  0.80779499  0.11753392  1  0.107059  -0.000987  0.107789  0.111641  -0.000427  1.027926  0.0
H  H12  1  0.06518534  0.30779650  0.38246301  1  0.106997  0.000987  0.107765  0.111538  0.000427  1.028073  0.0
H  H13  1  0.93482657  0.19220303  0.88246200  1  0.106628  -0.000987  0.107772  0.111606  -0.000427  1.028077  0.0
H  H14  1  0.86494990  0.81680775  0.57247768  1  0.109722  0.001745  0.112799  0.083458  0.000634  1.030429  0.001
H  H15  1  0.13503514  0.68317437  0.07249477  1  0.109286  -0.001746  0.112789  0.083518  -0.000634  1.030335  -0.001
H  H16  1  0.13504019  0.18317576  0.42750003  1  0.1099  0.001745  0.112819  0.083561  0.000634  1.030269  0.001
H  H17  1  0.86496771  0.31682160  0.92750168  1  0.108529  -0.001746  0.112795  0.083551  -0.000634  1.030321  -0.001
H  H18  1  0.29233620  0.65222395  0.49200715  1  0.104841  3.7e-05  0.107638  0.122201  2.4e-05  1.003314  0.0
H  H19  1  0.70766665  0.84777089  0.99200936  1  0.104864  -3.7e-05  0.107588  0.122213  -2.4e-05  1.003389  0.0
H  H20  1  0.70766157  0.34776548  0.50799627  1  0.105046  3.7e-05  0.107583  0.122165  2.4e-05  1.003324  0.0
H  H21  1  0.29233227  0.15222697  0.00799566  1  0.105053  -3.7e-05  0.107613  0.122214  -2.4e-05  1.003304  0.0
H  H22  1  0.31318834  0.49556075  0.67469712  1  0.110706  -0.0  0.108854  0.118206  -1e-06  1.030328  0.0
H  H23  1  0.68681896  0.00444348  0.17469213  1  0.110793  0.0  0.108888  0.118293  1e-06  1.030279  0.0
H  H24  1  0.68682188  0.50444049  0.32531058  1  0.110839  -0.0  0.108898  0.118277  -1e-06  1.030282  0.0
H  H25  1  0.31319154  0.99556035  0.82530861  1  0.110702  0.0  0.108895  0.118279  1e-06  1.030304  0.0
H  H26  1  0.93962333  0.57288103  0.74275989  1  0.109418  9.2e-05  0.107927  0.109865  1.9e-05  1.042055  0.0
H  H27  1  0.06037435  0.92711738  0.24275562  1  0.109575  -9.2e-05  0.107889  0.109818  -1.9e-05  1.0421  0.0
H  H28  1  0.06038199  0.42712209  0.25724299  1  0.109512  9.2e-05  0.107938  0.10987  1.9e-05  1.042059  0.0
H  H29  1  0.93962781  0.07288117  0.75724297  1  0.109552  -9.2e-05  0.107907  0.109833  -1.9e-05  1.042141  0.0
H  H30  1  0.86940590  0.53725435  0.86950154  1  0.105582  0.000101  0.117576  0.086068  6.5e-05  1.03636  0.0
H  H31  1  0.13059257  0.96273966  0.36949681  1  0.105391  -0.000102  0.117578  0.086087  -6.5e-05  1.036276  0.0
H  H32  1  0.13059295  0.46274741  0.13050187  1  0.105412  0.000101  0.117596  0.08609  6.5e-05  1.036288  0.0
H  H33  1  0.86941257  0.03725504  0.63050286  1  0.105532  -0.000101  0.11754  0.086016  -6.5e-05  1.036354  0.0
H  H34  1  0.22969000  0.48737815  0.91577375  1  0.132977  3.5e-05  0.117594  0.090287  9.4e-05  1.029056  0.0
H  H35  1  0.77031127  0.01262501  0.41577300  1  0.133086  -3.5e-05  0.117526  0.090205  -9.4e-05  1.028956  0.0
H  H36  1  0.77029689  0.51260274  0.08422806  1  0.132532  3.5e-05  0.11757  0.090239  9.4e-05  1.029057  0.0
H  H37  1  0.22969669  0.98737555  0.58422881  1  0.132886  -3.5e-05  0.117552  0.090245  -9.4e-05  1.029011  0.0
H  H38  1  0.30899575  0.51407100  0.79091221  1  0.066779  4.5e-05  0.10303  0.109632  -5e-06  1.037497  0.0
H  H39  1  0.69100709  0.98593439  0.29091110  1  0.066752  -4.5e-05  0.103031  0.109636  5e-06  1.037523  0.0
H  H40  1  0.69099590  0.48591577  0.20909174  1  0.066673  4.5e-05  0.103024  0.109619  -5e-06  1.037458  0.0
H  H41  1  0.30899889  0.01406809  0.70909017  1  0.066705  -4.5e-05  0.103027  0.109631  5e-06  1.037394  0.0
H  H42  1  0.47879290  0.34312003  0.50643125  1  0.097156  -7.4e-05  0.09532  0.104308  -4.9e-05  1.078884  0.0
H  H43  1  0.52120672  0.15687832  0.00642531  1  0.097221  7.4e-05  0.095331  0.104329  4.9e-05  1.078862  0.0
H  H44  1  0.52120512  0.65687394  0.49357109  1  0.097278  -7.4e-05  0.09538  0.104371  -4.9e-05  1.07886  0.0
H  H45  1  0.47879731  0.84312414  0.99357489  1  0.097276  7.4e-05  0.095347  0.104322  4.9e-05  1.078816  0.0
H  H46  1  0.27580095  0.27024848  0.53698391  1  0.055409  1.6e-05  0.093893  0.059445  6e-06  1.01883  0.0
H  H47  1  0.72420427  0.22975694  0.03697820  1  0.055355  -1.6e-05  0.093824  0.059331  -6e-06  1.018917  0.0
H  H48  1  0.72419248  0.72974803  0.46301415  1  0.055521  1.6e-05  0.093883  0.059488  6e-06  1.018755  0.0
H  H49  1  0.27578484  0.77024471  0.96302308  1  0.055371  -1.6e-05  0.093863  0.059359  -6e-06  1.018903  0.0
H  H50  1  0.35592808  0.29191315  0.62280096  1  0.059508  2e-06  0.089261  0.058201  1e-06  0.99716  0.0
H  H51  1  0.64405339  0.20808322  0.12279151  1  0.060981  -2e-06  0.089223  0.058148  -1e-06  0.997136  0.0
H  H52  1  0.64405863  0.70807745  0.37719978  1  0.060256  2e-06  0.08928  0.058286  1e-06  0.997132  0.0
H  H53  1  0.35594254  0.79191850  0.87721083  1  0.060441  -2e-06  0.089234  0.058162  -1e-06  0.997221  0.0
H  H54  1  0.05803191  0.27353556  0.58765542  1  0.015587  -2e-06  0.088787  0.085988  -1e-06  1.016125  0.0
H  H55  1  0.94196797  0.22647931  0.08766052  1  0.015981  2e-06  0.088711  0.086009  1e-06  1.015889  0.0
H  H56  1  0.94196211  0.72646420  0.41234050  1  0.01573  -2e-06  0.088729  0.085978  -1e-06  1.016096  0.0
H  H57  1  0.05802619  0.77353082  0.91233701  1  0.015746  2e-06  0.088726  0.08598  1e-06  1.016084  0.0
H  H58  1  0.10965310  0.18973145  0.62528759  1  0.013202  -2.5e-05  0.08892  0.089008  -2.9e-05  1.024064  0.0
H  H59  1  0.89031813  0.31027193  0.12529522  1  0.01301  2.5e-05  0.08895  0.089037  2.9e-05  1.024287  0.0
H  H60  1  0.89033025  0.81026624  0.37470994  1  0.013198  -2.5e-05  0.088914  0.08905  -2.9e-05  1.024127  0.0
H  H61  1  0.10967189  0.68973361  0.87470391  1  0.013188  2.5e-05  0.088934  0.089037  2.9e-05  1.02417  0.0
H  H62  1  0.17434194  0.36607697  0.70020994  1  0.000763  -4e-06  0.081483  0.071414  -3e-06  1.028897  0.0
H  H63  1  0.82563051  0.13391640  0.20020618  1  0.000908  4e-06  0.081539  0.071379  3e-06  1.028938  0.0
H  H64  1  0.82565180  0.63392020  0.29978491  1  0.000687  -4e-06  0.081443  0.071365  -3e-06  1.02889  0.0
H  H65  1  0.17437286  0.86608670  0.79979081  1  0.000807  4e-06  0.08154  0.071429  3e-06  1.029064  0.0
H  H66  1  0.17061717  0.26556360  0.73836763  1  0.020411  1e-06  0.081018  0.074467  1e-06  1.008127  0.0
H  H67  1  0.82934692  0.23442627  0.23836923  1  0.020515  -1e-06  0.080987  0.074463  -1e-06  1.008006  0.0
H  H68  1  0.82937070  0.73443543  0.26162882  1  0.020235  1e-06  0.080982  0.074394  1e-06  1.008113  0.0
H  H69  1  0.17065580  0.76557747  0.76162990  1  0.020594  -1e-06  0.081002  0.074477  -1e-06  1.007942  0.0
H  H70  1  0.91435718  0.21016889  0.72226145  1  0.006944  -1.3e-05  0.079378  0.069192  -7e-06  1.001107  0.0
H  H71  1  0.08561269  0.28982824  0.22228053  1  0.006463  1.3e-05  0.07935  0.069245  7e-06  1.001119  0.0
H  H72  1  0.08563378  0.78983860  0.27773179  1  0.006843  -1.3e-05  0.079337  0.069183  -7e-06  1.001068  0.0
H  H73  1  0.91439151  0.71018265  0.77771700  1  0.006686  1.3e-05  0.079367  0.069299  7e-06  1.000993  0.0
H  H74  1  0.97254682  0.30189644  0.77829185  1  0.024588  3.1e-05  0.080961  0.070027  2.2e-05  1.002538  0.0
H  H75  1  0.02740284  0.19808145  0.27829845  1  0.024263  -3.1e-05  0.081009  0.070141  -2.2e-05  1.002375  0.0
H  H76  1  0.02744166  0.69810391  0.22170192  1  0.02436  3.1e-05  0.080949  0.07005  2.2e-05  1.002495  0.0
H  H77  1  0.97260116  0.80192295  0.72169747  1  0.024739  -3.1e-05  0.08096  0.070073  -2.2e-05  1.002286  0.0
H  H78  1  0.79441392  0.32100013  0.69866126  1  0.038412  4e-06  0.069033  0.092474  1e-06  1.066779  0.0
H  H79  1  0.20556139  0.17899910  0.19867572  1  0.03797  -4e-06  0.068963  0.092302  -1e-06  1.066845  0.0
H  H80  1  0.20558128  0.67900611  0.30132877  1  0.038319  4e-06  0.068935  0.092333  1e-06  1.0668  0.0
H  H81  1  0.79444668  0.82101377  0.80131913  1  0.03823  -4e-06  0.068966  0.092297  -1e-06  1.066869  0.0
H  H82  1  0.88071441  0.30368564  0.62120121  1  0.013682  8e-06  0.074328  0.100939  1e-06  1.045231  0.0
H  H83  1  0.11929528  0.19633308  0.12121038  1  0.013911  -8e-06  0.074379  0.100961  -1e-06  1.045134  0.0
H  H84  1  0.11929276  0.69632333  0.37879203  1  0.013991  8e-06  0.074341  0.100956  1e-06  1.045144  0.0
H  H85  1  0.88071053  0.80367911  0.87878286  1  0.014246  -8e-06  0.074385  0.101015  -1e-06  1.045226  0.0
H  H86  1  0.95328908  0.39856156  0.67360301  1  0.03671  2.1e-05  0.076856  0.107711  1.4e-05  1.024405  0.0
H  H87  1  0.04669746  0.10144373  0.17359765  1  0.036936  -2.1e-05  0.076824  0.107698  -1.5e-05  1.024392  0.0
H  H88  1  0.04671162  0.60144604  0.32639345  1  0.036614  2.1e-05  0.076846  0.10767  1.4e-05  1.02442  0.0
H  H89  1  0.95331169  0.89856332  0.82639666  1  0.037228  -2.1e-05  0.076804  0.107616  -1.5e-05  1.024424  0.0
H  H90  1  0.38095735  0.82011998  0.14219803  1  0.119851  7e-05  0.097328  0.110939  4.5e-05  1.031177  0.0
H  H91  1  0.61904908  0.67989384  0.64218848  1  0.119531  -7e-05  0.097392  0.111105  -4.5e-05  1.0314  0.0
H  H92  1  0.61904081  0.17988435  0.85780003  1  0.119013  7e-05  0.097379  0.11103  4.5e-05  1.031303  0.0
H  H93  1  0.38095043  0.32010728  0.35781761  1  0.119493  -7e-05  0.097407  0.111103  -4.5e-05  1.031418  0.0
H  H94  1  0.30707967  0.94970447  0.11770608  1  0.103026  -2e-05  0.10328  0.106017  -1.2e-05  0.999294  0.0
H  H95  1  0.69291220  0.55030410  0.61770026  1  0.103293  2e-05  0.103287  0.10602  1.2e-05  0.999244  0.0
H  H96  1  0.69291362  0.05029981  0.88229841  1  0.103166  -2e-05  0.103287  0.106053  -1.2e-05  0.999276  0.0
H  H97  1  0.30708891  0.44969833  0.38230048  1  0.103245  2e-05  0.103272  0.106024  1.2e-05  0.999305  0.0
H  H98  1  0.31392137  0.05597593  0.21620443  1  0.096234  -0.0  0.102038  0.103177  1e-06  1.009013  0.0
H  H99  1  0.68605513  0.44404073  0.71620576  1  0.096159  0.0  0.101958  0.103117  -1e-06  1.008942  0.0
H  H100  1  0.68606277  0.94403149  0.78379738  1  0.096096  -0.0  0.101972  0.103178  1e-06  1.008888  0.0
H  H101  1  0.31394084  0.55595904  0.28379444  1  0.096133  0.0  0.101938  0.103102  -1e-06  1.008879  0.0
H  H102  1  0.39227346  0.03130286  0.33789794  1  0.125588  -5e-05  0.094146  0.108594  -3.2e-05  1.051417  0.0
H  H103  1  0.60771512  0.46872056  0.83790035  1  0.125165  5e-05  0.094088  0.108525  3.2e-05  1.051527  0.0
H  H104  1  0.60772469  0.96870147  0.66210119  1  0.125432  -5e-05  0.094127  0.108598  -3.2e-05  1.05151  0.0
H  H105  1  0.39228064  0.53127274  0.16210253  1  0.122148  5e-05  0.094137  0.10859  3.2e-05  1.051535  0.0
C  C106  1  0.70800162  0.89352451  0.54050505  1  0.514799  -0.00771  0.134709  0.241491  -0.004526  4.338498  -0.005
C  C107  1  0.29199208  0.60647209  0.04050550  1  0.51571  0.007707  0.134745  0.241494  0.004523  4.338989  0.005
C  C108  1  0.29199640  0.10646946  0.45949408  1  0.515899  -0.007705  0.134803  0.24159  -0.004522  4.338706  -0.005
C  C109  1  0.70800583  0.39352771  0.95949310  1  0.516432  0.007707  0.134812  0.241537  0.004524  4.338853  0.005
C  C110  1  0.15557732  0.85991602  0.48684275  1  0.46015  0.000771  0.042083  0.081294  0.000848  3.975405  0.0
C  C111  1  0.84442434  0.64008013  0.98684876  1  0.461056  -0.000767  0.042032  0.081293  -0.000846  3.975224  0.0
C  C112  1  0.84442581  0.14008255  0.51315746  1  0.460586  0.000766  0.042012  0.081184  0.000846  3.97536  0.0
C  C113  1  0.15557722  0.35991517  0.01315626  1  0.460418  -0.000768  0.041993  0.081185  -0.000847  3.975358  0.0
C  C114  1  0.20192442  0.79240914  0.50858608  1  -0.059354  0.003283  -0.087552  -0.173827  0.001889  3.971108  0.002
C  C115  1  0.79807370  0.70758506  0.00859806  1  -0.059639  -0.003285  -0.087503  -0.173858  -0.001891  3.971061  -0.002
C  C116  1  0.79808420  0.20759078  0.49141306  1  -0.059772  0.003286  -0.087429  -0.173708  0.00189  3.97089  0.002
C  C117  1  0.20192943  0.29241351  0.99140375  1  -0.059605  -0.003285  -0.087478  -0.173808  -0.001891  3.971063  -0.002
C  C118  1  0.12311014  0.73004191  0.55662617  1  0.011472  -0.000807  0.011845  0.085022  -0.000484  3.964713  -0.001
C  C119  1  0.87688904  0.76995275  0.05663495  1  0.01225  0.000813  0.011833  0.085248  0.000488  3.964612  0.001
C  C120  1  0.87689536  0.26995150  0.44336600  1  0.011674  -0.000815  0.011763  0.085108  -0.000489  3.964689  -0.001
C  C121  1  0.12311180  0.23004708  0.94336471  1  0.011836  0.000814  0.011831  0.085181  0.000488  3.964706  0.001
C  C122  1  0.99877924  0.73858344  0.57952387  1  -0.070022  0.003377  -0.078394  -0.154927  0.001921  3.933113  0.002
C  C123  1  0.00121331  0.76140457  0.07953495  1  -0.071419  -0.003382  -0.078375  -0.155106  -0.001922  3.933444  -0.002
C  C124  1  0.00122086  0.26140278  0.42046402  1  -0.070464  0.003381  -0.078323  -0.154927  0.001922  3.93365  0.002
C  C125  1  0.99878589  0.23859589  0.92046525  1  -0.07067  -0.003382  -0.078365  -0.155074  -0.001922  3.933602  -0.002
C  C126  1  0.96019210  0.80800386  0.55473083  1  0.496349  0.000429  0.044287  0.085899  0.000631  3.950552  0.0
C  C127  1  0.03979850  0.69198294  0.05474269  1  0.497839  -0.00042  0.044379  0.086001  -0.000628  3.950436  0.0
C  C128  1  0.03980734  0.19198300  0.44526187  1  0.496678  0.000422  0.044312  0.08591  0.000628  3.950371  0.0
C  C129  1  0.96020714  0.30802084  0.94525804  1  0.498915  -0.000419  0.044393  0.085995  -0.000628  3.950377  0.0
C  C130  1  0.17269719  0.66081935  0.58534172  1  0.525047  -0.000138  0.118996  0.209422  -8.1e-05  4.023161  0.0
C  C131  1  0.82730899  0.83917916  0.08534230  1  0.525091  0.000138  0.11899  0.209379  8.1e-05  4.023187  0.0
C  C132  1  0.82730660  0.33917857  0.41466009  1  0.525027  -0.000138  0.119003  0.209432  -8.1e-05  4.022987  0.0
C  C133  1  0.17269866  0.16082075  0.91466005  1  0.524971  0.000138  0.118992  0.209443  8.1e-05  4.023148  0.0
C  C134  1  0.26370572  0.62980455  0.54652933  1  -0.064256  0.001549  -0.080356  -0.201522  0.000863  3.869016  0.001
C  C135  1  0.73630337  0.87019415  0.04652894  1  -0.064368  -0.001548  -0.080315  -0.201664  -0.000863  3.86895  -0.001
C  C136  1  0.73629522  0.37018945  0.45347463  1  -0.064401  0.001548  -0.08036  -0.201707  0.000863  3.868918  0.001
C  C137  1  0.26370229  0.12980768  0.95347394  1  -0.064611  -0.001549  -0.080383  -0.201747  -0.000863  3.869034  -0.001
C  C138  1  0.31399121  0.56747170  0.57740027  1  -0.016972  0.000118  0.011723  0.141441  5.2e-05  3.982782  0.0
C  C139  1  0.68601131  0.93252486  0.07739810  1  -0.01665  -0.000118  0.011821  0.141811  -5.2e-05  3.9827  0.0
C  C140  1  0.68601199  0.43252298  0.42260315  1  -0.016711  0.000118  0.01178  0.141779  5.2e-05  3.982686  0.0
C  C141  1  0.31398855  0.06747497  0.92260210  1  -0.016589  -0.000118  0.011817  0.141853  -5.2e-05  3.982804  0.0
C  C142  1  0.27321595  0.54161045  0.64777922  1  0.017847  0.001529  -0.077716  -0.204342  0.00084  3.902652  0.001
C  C143  1  0.72679210  0.95839494  0.14777197  1  0.017722  -0.001528  -0.077797  -0.204649  -0.000839  3.902919  -0.001
C  C144  1  0.72679524  0.45839079  0.35222795  1  0.017708  0.001528  -0.077853  -0.204608  0.000839  3.902923  0.001
C  C145  1  0.27321388  0.04160754  0.85222770  1  0.017773  -0.001528  -0.077779  -0.204624  -0.000839  3.902722  -0.001
C  C146  1  0.17924418  0.57398778  0.68200559  1  0.5036  -7.1e-05  0.115543  0.193691  -4.8e-05  4.049435  0.0
C  C147  1  0.82075784  0.92601676  0.18200089  1  0.503523  7.1e-05  0.115573  0.193852  4.8e-05  4.04941  0.0
C  C148  1  0.82076024  0.42601145  0.31799675  1  0.503363  -7.1e-05  0.115673  0.193864  -4.8e-05  4.049745  0.0
C  C149  1  0.17924682  0.07398700  0.81799824  1  0.50357  7.1e-05  0.11554  0.193837  4.8e-05  4.049294  0.0
C  C150  1  0.13162941  0.54775533  0.75563292  1  0.034472  0.007544  0.015074  0.084428  0.004141  3.972247  0.005
C  C151  1  0.86836725  0.95224561  0.25562843  1  0.034155  -0.007544  0.015058  0.084445  -0.004141  3.972192  -0.005
C  C152  1  0.86836732  0.45223798  0.24436889  1  0.03439  0.007546  0.015117  0.084463  0.004142  3.972455  0.005
C  C153  1  0.13163421  0.04775553  0.74437177  1  0.034215  -0.007546  0.01507  0.084393  -0.004142  3.97229  -0.005
C  C154  1  0.00566826  0.55277843  0.77939409  1  -0.023724  -0.001498  -0.075902  -0.15388  -0.000753  3.94412  -0.001
C  C155  1  0.99433355  0.94722830  0.27938713  1  -0.023677  0.001498  -0.075888  -0.153888  0.000753  3.943848  0.001
C  C156  1  0.99433734  0.44722729  0.22061093  1  -0.023976  -0.001498  -0.075951  -0.153952  -0.000753  3.944118  -0.001
C  C157  1  0.00566889  0.05277285  0.72061093  1  -0.023531  0.001498  -0.075846  -0.153775  0.000753  3.943806  0.001
C  C158  1  0.96680232  0.53411935  0.85006839  1  0.418441  0.005742  0.047963  0.083334  0.003206  3.91512  0.004
C  C159  1  0.03319473  0.96587278  0.35006487  1  0.418838  -0.005742  0.047998  0.083366  -0.003206  3.914879  -0.004
C  C160  1  0.03319375  0.46587460  0.14993395  1  0.418739  0.005743  0.047984  0.083382  0.003207  3.915  0.004
C  C161  1  0.96681201  0.03412324  0.64993373  1  0.418747  -0.005743  0.048006  0.083403  -0.003207  3.914871  -0.004
C  C162  1  0.16677336  0.50471685  0.87571471  1  0.404623  0.006491  0.045488  0.088771  0.003661  3.913002  0.004
C  C163  1  0.83323477  0.99529149  0.37571263  1  0.404637  -0.006491  0.045608  0.088902  -0.003662  3.912821  -0.004
C  C164  1  0.83322209  0.49527579  0.12428871  1  0.405393  0.006492  0.045513  0.088784  0.003662  3.91307  0.004
C  C165  1  0.16677639  0.00471170  0.62428918  1  0.405025  -0.006492  0.045523  0.088817  -0.003662  3.913102  -0.004
C  C166  1  0.21042283  0.52017634  0.80534271  1  0.039605  -0.001557  -0.082333  -0.16476  -0.000775  3.952423  -0.001
C  C167  1  0.78957808  0.97982573  0.30534145  1  0.039371  0.001557  -0.082366  -0.164843  0.000775  3.952599  0.001
C  C168  1  0.78956878  0.47981238  0.19465964  1  0.039759  -0.001557  -0.082357  -0.164742  -0.000775  3.952581  -0.001
C  C169  1  0.21042790  0.02017675  0.69466143  1  0.039315  0.001557  -0.082382  -0.164795  0.000775  3.952644  0.001
C  C170  1  0.40795022  0.53224667  0.53783548  1  0.024267  4.6e-05  -0.018331  -0.02163  1.9e-05  3.99969  0.0
C  C171  1  0.59205294  0.96775135  0.03783452  1  0.024233  -4.6e-05  -0.018341  -0.021731  -1.9e-05  3.999937  0.0
C  C172  1  0.59204620  0.46774598  0.46216526  1  0.024359  4.6e-05  -0.01832  -0.021778  1.9e-05  3.999907  0.0
C  C173  1  0.40794817  0.03225108  0.96216729  1  0.024194  -4.6e-05  -0.018332  -0.021715  -1.9e-05  3.999941  0.0
C  C174  1  0.39704706  0.44307057  0.54238459  1  0.465217  1e-06  0.077483  0.198835  1e-06  4.075165  0.0
C  C175  1  0.60295684  0.05692834  0.04237805  1  0.465487  -1e-06  0.077473  0.198726  -1e-06  4.075238  0.0
C  C176  1  0.60295290  0.55692342  0.45762097  1  0.465084  1e-06  0.07744  0.198697  1e-06  4.075244  0.0
C  C177  1  0.39704782  0.94307543  0.95762376  1  0.465538  -1e-06  0.077358  0.198508  -1e-06  4.075349  0.0
C  C178  1  0.48930034  0.41219741  0.50511336  1  -0.041848  -3.4e-05  -0.110507  -0.256022  -2.5e-05  4.017724  0.0
C  C179  1  0.51069643  0.08779897  0.00511282  1  -0.042315  3.4e-05  -0.110578  -0.256069  2.5e-05  4.017777  0.0
C  C180  1  0.51069445  0.58779587  0.49488845  1  -0.041865  -3.4e-05  -0.110597  -0.256109  -2.5e-05  4.017724  0.0
C  C181  1  0.48930179  0.91220148  0.99489273  1  -0.042345  3.4e-05  -0.110566  -0.255964  2.5e-05  4.01772  0.0
C  C182  1  0.27225863  0.30005218  0.58967620  1  0.368671  2e-06  -0.06693  0.040727  -2e-06  3.873143  0.0
C  C183  1  0.72773397  0.19994964  0.08967153  1  0.367111  -2e-06  -0.066806  0.040971  3e-06  3.873013  0.0
C  C184  1  0.72773000  0.69994039  0.41032347  1  0.367786  2e-06  -0.066937  0.04067  -2e-06  3.873374  0.0
C  C185  1  0.27226450  0.80005534  0.91033028  1  0.367704  -2e-06  -0.06691  0.040901  2e-06  3.873414  0.0
C  C186  1  0.13308340  0.26069636  0.62403070  1  0.033863  -3.3e-05  -0.173468  -0.176997  -2.2e-05  3.937779  0.0
C  C187  1  0.86690013  0.23931040  0.12403311  1  0.034008  3.3e-05  -0.173414  -0.177053  2.2e-05  3.937983  0.0
C  C188  1  0.86690446  0.73930268  0.37596736  1  0.034  -3.3e-05  -0.173441  -0.177198  -2.2e-05  3.937902  0.0
C  C189  1  0.13309604  0.76069586  0.87596816  1  0.034146  3.3e-05  -0.173403  -0.177122  2.3e-05  3.938018  0.0
C  C190  1  0.11994757  0.29550594  0.69897525  1  0.011797  6e-06  -0.171175  -0.143469  6e-06  3.918644  0.0
C  C191  1  0.88002616  0.20449004  0.19897649  1  0.011636  -6e-06  -0.171241  -0.143487  -6e-06  3.91869  0.0
C  C192  1  0.88004193  0.70449247  0.30102227  1  0.011926  6e-06  -0.171116  -0.143332  6e-06  3.918551  0.0
C  C193  1  0.11997815  0.79551502  0.80102264  1  0.01144  -6e-06  -0.171276  -0.143516  -6e-06  3.918818  0.0
C  C194  1  0.97166674  0.28049231  0.72229446  1  -0.018068  1.5e-05  -0.169952  -0.085522  1e-05  3.943986  0.0
C  C195  1  0.02830154  0.21950351  0.22230427  1  -0.017633  -1.5e-05  -0.169929  -0.085655  -1e-05  3.943869  0.0
C  C196  1  0.02832328  0.71951323  0.27769878  1  -0.01786  1.5e-05  -0.169794  -0.085403  1e-05  3.943629  0.0
C  C197  1  0.97170566  0.78050352  0.77769164  1  -0.018393  -1.5e-05  -0.169841  -0.085554  -1e-05  3.943788  0.0
C  C198  1  0.89601003  0.32850925  0.67638941  1  -0.109944  2.3e-05  -0.255929  -0.351214  1.5e-05  3.958078  0.0
C  C199  1  0.10397483  0.17149472  0.17639493  1  -0.109673  -2.3e-05  -0.255898  -0.351059  -1.5e-05  3.957663  0.0
C  C200  1  0.10398646  0.67149766  0.32360437  1  -0.109904  2.3e-05  -0.255896  -0.351115  1.5e-05  3.957706  0.0
C  C201  1  0.89603299  0.82851362  0.82359939  1  -0.11048  -2.3e-05  -0.255925  -0.351066  -1.5e-05  3.957893  0.0
C  C202  1  0.42606736  0.91119004  0.30869119  1  0.029871  -1.8e-05  0.001872  0.064034  -4e-06  4.054417  0.0
C  C203  1  0.57394022  0.58883412  0.80868513  1  0.030317  1.8e-05  0.001847  0.064069  4e-06  4.055195  0.0
C  C204  1  0.57394074  0.08882088  0.69131062  1  0.02989  -1.8e-05  0.001934  0.064155  -4e-06  4.054823  0.0
C  C205  1  0.42605902  0.41116440  0.19131828  1  0.02993  1.8e-05  0.001764  0.063936  4e-06  4.05519  0.0
C  C206  1  0.42529675  0.85268588  0.25295940  1  0.075054  -9e-06  0.006876  0.08086  -3e-06  4.041697  0.0
C  C207  1  0.57471024  0.64734045  0.75295872  1  0.075029  9e-06  0.006843  0.080837  3e-06  4.04218  0.0
C  C208  1  0.57470749  0.14732306  0.74704080  1  0.075448  -9e-06  0.006738  0.080715  -3e-06  4.041974  0.0
C  C209  1  0.42529348  0.35266136  0.24704631  1  0.075978  9e-06  0.006901  0.08095  3e-06  4.042028  0.0
C  C210  1  0.38060358  0.86631826  0.18463760  1  -0.016306  1.3e-05  -0.09308  -0.134085  3e-06  3.979867  0.0
C  C211  1  0.61937515  0.63369637  0.68463178  1  -0.016015  -1.3e-05  -0.093138  -0.134458  -3e-06  3.980754  0.0
C  C212  1  0.61938585  0.13368404  0.81536260  1  -0.015264  1.3e-05  -0.093111  -0.134185  3e-06  3.980266  0.0
C  C213  1  0.38062148  0.36630276  0.31537270  1  -0.016605  -1.3e-05  -0.093119  -0.134463  -3e-06  3.980723  0.0
C  C214  1  0.33972769  0.93897044  0.17145318  1  -0.045368  -8.5e-05  -0.089703  -0.074541  -5e-05  4.00072  0.0
C  C215  1  0.66026680  0.56105219  0.67144544  1  -0.0462  8.5e-05  -0.089756  -0.074353  5e-05  4.000627  0.0
C  C216  1  0.66027269  0.06103651  0.82854756  1  -0.04599  -8.5e-05  -0.089659  -0.07444  -5e-05  4.000771  0.0
C  C217  1  0.33973368  0.43894893  0.32855690  1  -0.046243  8.5e-05  -0.089775  -0.074376  5e-05  4.000773  0.0
C  C218  1  0.34385522  0.99837981  0.22634903  1  -0.061571  -3.3e-05  -0.092286  -0.074766  -1.7e-05  4.004907  0.0
C  C219  1  0.65613919  0.50164324  0.72634238  1  -0.0611  3.3e-05  -0.092164  -0.074861  1.7e-05  4.00462  0.0
C  C220  1  0.65614092  0.00162839  0.77365170  1  -0.061198  -3.3e-05  -0.092287  -0.074917  -1.7e-05  4.00497  0.0
C  C221  1  0.34386196  0.49835724  0.27366050  1  -0.061037  3.3e-05  -0.092099  -0.074721  1.7e-05  4.004641  0.0
C  C222  1  0.38660404  0.98455062  0.29492520  1  -0.041789  -3.8e-05  -0.097625  -0.143729  -2.2e-05  3.991688  0.0
C  C223  1  0.61337520  0.51546227  0.79491778  1  -0.041289  3.7e-05  -0.097551  -0.143582  2.2e-05  3.991878  0.0
C  C224  1  0.61338407  0.01545296  0.70507607  1  -0.041685  -3.8e-05  -0.097567  -0.143709  -2.2e-05  3.991862  0.0
C  C225  1  0.38661986  0.48453361  0.20508510  1  -0.037552  3.7e-05  -0.097628  -0.143751  2.2e-05  3.992156  0.0
S  S226  1  0.56232943  0.82559066  0.56522322  1  0.063748  -0.005084  -0.189666  -0.355685  -0.002757  2.300081  -0.002
S  S227  1  0.43766553  0.67440975  0.06522750  1  0.063064  0.00508  -0.189698  -0.355701  0.002755  2.29991  0.002
S  S228  1  0.43767857  0.17440796  0.43477431  1  0.062794  -0.005078  -0.189726  -0.355807  -0.002754  2.299707  -0.002
S  S229  1  0.56233040  0.32559197  0.93476895  1  0.062244  0.00508  -0.189749  -0.355763  0.002756  2.299872  0.002
N  N230  1  0.03695842  0.86864743  0.50920088  1  -1.205102  0.072257  -0.307813  -0.227133  0.042519  3.506151  0.062
N  N231  1  0.96303200  0.63134085  0.00921223  1  -1.205782  -0.072261  -0.307853  -0.227175  -0.042522  3.505955  -0.062
N  N232  1  0.96303515  0.13134131  0.49079343  1  -1.206002  0.072264  -0.307831  -0.227205  0.042522  3.505942  0.062
N  N233  1  0.03697301  0.36866162  0.99079119  1  -1.206014  -0.072265  -0.307847  -0.227209  -0.042523  3.505936  -0.062
N  N234  1  0.12736830  0.63131298  0.65090385  1  -1.180525  0.001885  -0.306036  -0.330329  0.001012  3.282823  0.001
N  N235  1  0.87263328  0.86868714  0.15090359  1  -1.18055  -0.001884  -0.306074  -0.330391  -0.001011  3.282809  -0.001
N  N236  1  0.87263480  0.36868752  0.34909903  1  -1.18058  0.001884  -0.306036  -0.330308  0.001011  3.282808  0.001
N  N237  1  0.12737145  0.13131273  0.84909768  1  -1.180459  -0.001884  -0.306024  -0.33037  -0.001011  3.282739  -0.001
N  N238  1  0.04751756  0.51289891  0.89890180  1  -1.172451  0.008384  -0.328135  -0.16408  0.003378  3.639104  0.005
N  N239  1  0.95248752  0.98710218  0.39889996  1  -1.172356  -0.008383  -0.328197  -0.164107  -0.003378  3.639124  -0.005
N  N240  1  0.95247531  0.48709241  0.10109894  1  -1.172374  0.008383  -0.328206  -0.164149  0.003378  3.639186  0.005
N  N241  1  0.04752406  0.01289583  0.60109810  1  -1.172676  -0.008384  -0.328163  -0.164148  -0.003378  3.639044  -0.005
N  N242  1  0.81566042  0.94367944  0.52374349  1  -1.307496  0.00247  -0.418704  -0.466883  0.00309  3.551857  0.003
N  N243  1  0.18434500  0.55632061  0.02374360  1  -1.307725  -0.002472  -0.418753  -0.466908  -0.00309  3.552406  -0.003
N  N244  1  0.18435338  0.05632119  0.47625296  1  -1.307596  0.002465  -0.41881  -0.466938  0.003087  3.552452  0.003
N  N245  1  0.81565263  0.44367660  0.97625661  1  -1.307645  -0.002469  -0.418779  -0.466922  -0.003089  3.552266  -0.003
Cl  Cl246  1  0.47751002  0.89444349  0.39398301  1  -0.195866  -2.7e-05  0.02315  -0.053838  -8e-06  1.700752  0.0
Cl  Cl247  1  0.52249751  0.60559068  0.89397410  1  -0.196135  2.7e-05  0.023147  -0.053875  8e-06  1.700853  0.0
Cl  Cl248  1  0.52249975  0.10556486  0.60602095  1  -0.19576  -2.7e-05  0.023137  -0.053875  -8e-06  1.70089  0.0
Cl  Cl249  1  0.47750211  0.39440461  0.10602985  1  -0.196343  2.7e-05  0.023163  -0.053813  8e-06  1.700818  0.0
Cl  Cl250  1  0.48362729  0.76538893  0.26686080  1  -0.206542  5.9e-05  0.011557  -0.065862  3.5e-05  1.597733  0.0
Cl  Cl251  1  0.51638607  0.73464324  0.76684877  1  -0.206629  -5.9e-05  0.011605  -0.065756  -3.5e-05  1.597684  0.0
Cl  Cl252  1  0.51637334  0.23462256  0.73313833  1  -0.20697  5.9e-05  0.011615  -0.065794  3.5e-05  1.597549  0.0
Cl  Cl253  1  0.48361247  0.26535787  0.23315893  1  -0.206952  -5.9e-05  0.011628  -0.065743  -3.5e-05  1.597802  0.0
O  O254  1  0.29063385  0.39146570  0.58144871  1  -1.094681  3.8e-05  -0.180588  -0.198373  2.2e-05  2.608822  0.0
O  O255  1  0.70936448  0.10853557  0.08144199  1  -1.094804  -3.8e-05  -0.180527  -0.198331  -2.2e-05  2.608651  0.0
O  O256  1  0.70935996  0.60852758  0.41855150  1  -1.094763  3.8e-05  -0.180479  -0.19824  2.2e-05  2.60889  0.0
O  O257  1  0.29063239  0.89146810  0.91856304  1  -1.09465  -3.8e-05  -0.18041  -0.198199  -2.2e-05  2.608907  0.0
