# generated using pymatgen
data_Zn4H12C44Br8O21
_symmetry_space_group_name_H-M   'P 1'
_cell_length_a   23.73137400
_cell_length_b   23.73244247
_cell_length_c   23.73083458
_cell_angle_alpha   65.76824088
_cell_angle_beta   72.85862965
_cell_angle_gamma   107.14662221
_symmetry_Int_Tables_number   1
_chemical_formula_structural   Zn4H12C44Br8O21
_chemical_formula_sum   'Zn8 H24 C88 Br16 O42'
_cell_volume   10235.04501214
_cell_formula_units_Z   2
loop_
 _symmetry_equiv_pos_site_id
 _symmetry_equiv_pos_as_xyz
  1  'x, y, z'
loop_
 _atom_site_type_symbol
 _atom_site_label
 _atom_site_symmetry_multiplicity
 _atom_site_fract_x
 _atom_site_fract_y
 _atom_site_fract_z
 _atom_site_occupancy
 _atom_site_pbe_bader_charge
 _atom_site_pbe_bader_spin_density
 _atom_site_pbe_cm5_charge
 _atom_site_pbe_ddec_charge
 _atom_site_pbe_ddec_spin_density
 _atom_site_pbe_ddec_sum_bond_order
 _atom_site_pbe_magmom
Zn  Zn0  1  0.05918187  0.95882024  0.48463254  1  1.322042  0  0.681737  0.972116  0  2.348696  0
Zn  Zn1  1  0.05917858  0.10037279  0.45618228  1  1.320686  0  0.681687  0.972159  0  2.348858  0
Zn  Zn2  1  0.94081516  0.98464680  0.45880362  1  1.322148  0  0.681761  0.972252  0  2.348432  0
Zn  Zn3  1  0.94082053  0.95617861  0.60037142  1  1.32053  0  0.681706  0.972116  0  2.349064  0
Zn  Zn4  1  0.94344686  0.54382014  0.01535885  1  1.32194  0  0.681729  0.972125  0  2.348952  0
Zn  Zn5  1  0.05654838  0.51535793  0.04382589  1  1.32217  0  0.681772  0.972177  0  2.348732  0
Zn  Zn6  1  0.94344644  0.39963643  0.04118931  1  1.320762  0  0.681696  0.972078  0  2.349047  0
Zn  Zn7  1  0.05654293  0.54118496  0.89962985  1  1.321034  0  0.681708  0.972182  0  2.348623  0
H  H8  1  0.92047075  0.64962767  0.11613784  1  0.121684  0  0.113915  0.137081  0  0.987125  0
H  H9  1  0.07946817  0.61605845  0.14971954  1  0.120108  0  0.114002  0.137136  0  0.986952  0
H  H10  1  0.93178043  0.89986535  0.33848510  1  0.128107  0  0.116274  0.141776  0  0.982158  0
H  H11  1  0.06815607  0.83846473  0.39992094  1  0.127634  0  0.116295  0.141901  0  0.982071  0
H  H12  1  0.07953556  0.46337206  0.77085659  1  0.147852  0  0.113889  0.136941  0  0.987084  0
H  H13  1  0.92051816  0.27081495  0.96341873  1  0.148488  0  0.113991  0.137109  0  0.98705  0
H  H14  1  0.06811825  0.22970743  0.53193003  1  0.166766  0  0.116299  0.141766  0  0.982086  0
H  H15  1  0.93179753  0.03190918  0.72972712  1  0.165076  0  0.11629  0.141838  0  0.982047  0
H  H16  1  0.73836244  0.46808861  0.10006767  1  0.130319  0  0.116356  0.141993  0  0.982128  0
H  H17  1  0.73835695  0.27029469  0.16157876  1  0.128709  0  0.116311  0.14181  0  0.982212  0
H  H18  1  0.26577257  0.22919041  0.35030552  1  0.132763  0  0.113971  0.137151  0  0.987039  0
H  H19  1  0.26576515  0.03663457  0.38384423  1  0.115281  0  0.1139  0.136918  0  0.987147  0
H  H20  1  0.26162814  0.60001428  0.96810124  1  0.129623  0  0.116309  0.141836  0  0.982057  0
H  H21  1  0.26163202  0.66152423  0.77029178  1  0.128467  0  0.116287  0.141952  0  0.982127  0
H  H22  1  0.73423220  0.85030814  0.72917980  1  0.132956  0  0.113971  0.137054  0  0.987056  0
H  H23  1  0.73422108  0.88387932  0.53661181  1  0.116862  0  0.11388  0.137017  0  0.987175  0
H  H24  1  0.83724175  0.73469384  0.80967165  1  0.623079  0  0.349618  0.386694  0  0.844961  0
H  H25  1  0.04439649  0.64694383  0.69029751  1  0.623253  0  0.34973  0.3866  0  0.844594  0
H  H26  1  0.95560997  0.76529441  0.89746602  1  0.609926  0  0.349656  0.38647  0  0.844863  0
H  H27  1  0.16278101  0.85307601  0.60256184  1  0.615577  0  0.349609  0.386688  0  0.84471  0
H  H28  1  0.83724316  0.10254134  0.35306207  1  0.616026  0  0.349729  0.386596  0  0.844741  0
H  H29  1  0.04438584  0.39745894  0.26530281  1  0.609978  0  0.349667  0.386481  0  0.844968  0
H  H30  1  0.95563911  0.19031434  0.14691348  1  0.622355  0  0.349645  0.386685  0  0.84461  0
H  H31  1  0.16276908  0.30970188  0.23467833  1  0.623476  0  0.349703  0.386731  0  0.84487  0
C  C32  1  0.18359756  0.09181828  0.40817647  1  1.51388  0  0.22916  0.603826  0  4.160002  0
C  C33  1  0.99999867  0.13739520  0.36258929  1  1.586081  0  0.231925  0.604435  0  4.162272  0
C  C34  1  0.99997380  0.91019344  0.41020846  1  1.56673  0  0.233915  0.608505  0  4.149715  0
C  C35  1  0.81639618  0.90818608  0.59180580  1  1.515496  0  0.229215  0.604079  0  4.159884  0
C  C36  1  0.00001464  0.86261301  0.63738728  1  1.585841  0  0.231717  0.603922  0  4.162721  0
C  C37  1  0.99997919  0.08979611  0.58980824  1  1.573029  0  0.233839  0.608444  0  4.149565  0
C  C38  1  0.99998033  0.59177359  0.09182919  1  1.522603  0  0.22924  0.603887  0  4.160152  0
C  C39  1  0.00001657  0.36261364  0.13738813  1  1.563189  0  0.231686  0.603231  0  4.162829  0
C  C40  1  0.82039501  0.41020719  0.08980591  1  1.55554  0  0.233936  0.608423  0  4.149228  0
C  C41  1  0.00000820  0.40818667  0.90821203  1  1.525159  0  0.229326  0.60409  0  4.159663  0
C  C42  1  0.00000000  0.63740038  0.86259917  1  1.563073  0  0.23186  0.603556  0  4.162561  0
C  C43  1  0.17959569  0.58978228  0.91020897  1  1.555324  0  0.233874  0.608644  0  4.14948  0
C  C44  1  0.00001640  0.80442852  0.69557201  1  0.07547  0  0.001216  -0.041572  0  3.908694  0
C  C45  1  0.00000930  0.69558915  0.80440730  1  0.047743  0  0.000955  -0.040346  0  3.906361  0
C  C46  1  0.95734172  0.77782961  0.76597391  1  -0.020235  0  -0.001181  -0.087358  0  3.957506  0
C  C47  1  0.04381879  0.72333126  0.73401037  1  0.041188  0  -0.001125  -0.08769  0  3.957277  0
C  C48  1  0.95619501  0.72217899  0.82047992  1  -0.064988  0  -0.001105  -0.087766  0  3.956759  0
C  C49  1  0.04267797  0.77669696  0.67949974  1  -0.037809  0  -0.001233  -0.087497  0  3.95822  0
C  C50  1  0.00000488  0.19558296  0.30440311  1  0.073903  0  0.001192  -0.041824  0  3.909318  0
C  C51  1  0.00001174  0.30442258  0.19557074  1  0.047387  0  0.001183  -0.03984  0  3.906117  0
C  C52  1  0.95734720  0.17952401  0.27665518  1  -0.033831  0  -0.001172  -0.087838  0  3.958474  0
C  C53  1  0.04381889  0.32048853  0.22217323  1  -0.059959  0  -0.001022  -0.087655  0  3.957379  0
C  C54  1  0.95620186  0.23403025  0.22329608  1  0.03815  0  -0.001332  -0.087802  0  3.95739  0
C  C55  1  0.04267090  0.26597756  0.27782341  1  -0.024177  0  -0.001352  -0.087374  0  3.957957  0
C  C56  1  0.99996588  0.62917395  0.12926327  1  0.023985  0  -0.014379  -0.006936  0  3.982994  0
C  C57  1  0.95517476  0.65621539  0.13718727  1  0.043322  0  -0.087927  -0.151963  0  3.96979  0
C  C58  1  0.95563873  0.69127757  0.17173558  1  -0.059715  0  -0.004365  0.087532  0  3.916244  0
C  C59  1  0.99998954  0.70033523  0.20037205  1  0.084901  0  -0.00325  0.049541  0  4.060812  0
C  C60  1  0.04432920  0.67169435  0.19132900  1  -0.060166  0  -0.004245  0.087677  0  3.91609  0
C  C61  1  0.04477453  0.63710815  0.15629813  1  0.045799  0  -0.088227  -0.152247  0  3.968567  0
C  C62  1  0.99999730  0.73567712  0.23570064  1  -0.058  0  -0.040717  -0.07143  0  4.116854  0
C  C63  1  0.99999231  0.76635974  0.26637498  1  -0.198171  0  -0.038878  -0.063903  0  4.110147  0
C  C64  1  0.99998904  0.80169145  0.30172487  1  0.218275  0  -0.00275  0.047802  0  4.058826  0
C  C65  1  0.96123305  0.83721972  0.30383526  1  -0.16143  0  -0.003461  0.08917  0  3.914689  0
C  C66  1  0.96130321  0.87246078  0.33820526  1  0.13343  0  -0.086035  -0.150439  0  3.955677  0
C  C67  1  0.99997284  0.87276222  0.37279816  1  -0.051443  0  -0.011023  -0.004097  0  3.973436  0
C  C68  1  0.03863473  0.83817174  0.37251087  1  0.133681  0  -0.08594  -0.150764  0  3.955946  0
C  C69  1  0.03872157  0.80380166  0.33726391  1  -0.161455  0  -0.003415  0.089451  0  3.914736  0
C  C70  1  0.00002775  0.37076389  0.87080021  1  -0.034526  0  -0.014333  -0.007071  0  3.982928  0
C  C71  1  0.04483053  0.40762332  0.79896927  1  0.046823  0  -0.088  -0.151848  0  3.969287  0
C  C72  1  0.04436815  0.37260942  0.76436985  1  -0.09281  0  -0.004178  0.087815  0  3.915785  0
C  C73  1  0.00000642  0.29963358  0.79966182  1  0.147285  0  -0.003299  0.049488  0  4.060614  0
C  C74  1  0.95566607  0.26434224  0.87264432  1  -0.093757  0  -0.004288  0.087655  0  3.915832  0
C  C75  1  0.95521778  0.29892810  0.90767495  1  0.046881  0  -0.088104  -0.152133  0  3.968944  0
C  C76  1  0.99998376  0.26429467  0.76433043  1  -0.058444  0  -0.040721  -0.071403  0  4.11673  0
C  C77  1  0.99997995  0.23362443  0.73363940  1  -0.199468  0  -0.038931  -0.064042  0  4.110118  0
C  C78  1  0.99997782  0.19829042  0.69829331  1  0.308669  0  -0.002746  0.047608  0  4.059101  0
C  C79  1  0.03869969  0.23492468  0.62402507  1  -0.204946  0  -0.003463  0.08951  0  3.914887  0
C  C80  1  0.03861713  0.20047170  0.58885786  1  -0.029231  0  -0.085981  -0.150539  0  3.955581  0
C  C81  1  0.99996542  0.12721777  0.62722889  1  0.194848  0  -0.011053  -0.00422  0  3.973449  0
C  C82  1  0.96131257  0.08884260  0.70048963  1  -0.028336  0  -0.085916  -0.150448  0  3.955795  0
C  C83  1  0.96123468  0.12400534  0.73493620  1  -0.205567  0  -0.003425  0.08938  0  3.914611  0
C  C84  1  0.74554941  0.37278293  0.12722817  1  0.023245  0  -0.010836  -0.003915  0  3.972928  0
C  C85  1  0.71067217  0.41116263  0.12748576  1  0.14137  0  -0.086144  -0.150845  0  3.955702  0
C  C86  1  0.64105515  0.37599337  0.16272836  1  -0.165677  0  -0.003466  0.089506  0  3.914571  0
C  C87  1  0.60341340  0.30171980  0.19828064  1  0.197318  0  -0.002736  0.047472  0  4.059491  0
C  C88  1  0.64105117  0.26508091  0.19619889  1  -0.180103  0  -0.003481  0.089445  0  3.914593  0
C  C89  1  0.71066371  0.29952793  0.16184412  1  0.079505  0  -0.086082  -0.150647  0  3.955954  0
C  C90  1  0.53273449  0.26637933  0.23362344  1  -0.124636  0  -0.03897  -0.063944  0  4.11034  0
C  C91  1  0.47137560  0.23570856  0.26429282  1  -0.088916  0  -0.040612  -0.071241  0  4.116927  0
C  C92  1  0.40070696  0.20036953  0.29962397  1  0.074482  0  -0.00333  0.049284  0  4.060573  0
C  C93  1  0.36301608  0.23566133  0.30868284  1  -0.046833  0  -0.004163  0.087984  0  3.915673  0
C  C94  1  0.29340212  0.20107704  0.34371662  1  0.016404  0  -0.088134  -0.152307  0  3.968993  0
C  C95  1  0.25843138  0.12923926  0.37074262  1  0.013589  0  -0.014355  -0.007095  0  3.982912  0
C  C96  1  0.29340286  0.09238071  0.36280095  1  0.021283  0  -0.087942  -0.151644  0  3.968739  0
C  C97  1  0.36302197  0.12739514  0.32824380  1  -0.027308  0  -0.004306  0.087542  0  3.915699  0
C  C98  1  0.25443775  0.62717719  0.87279455  1  0.021507  0  -0.011018  -0.004453  0  3.973242  0
C  C99  1  0.28931882  0.62744111  0.91117296  1  0.143169  0  -0.085949  -0.150318  0  3.955066  0
C  C100  1  0.35894323  0.66268222  0.87600750  1  -0.167626  0  -0.003618  0.089144  0  3.915101  0
C  C101  1  0.39657867  0.69823839  0.80174223  1  0.196878  0  -0.002756  0.047656  0  4.059993  0
C  C102  1  0.35893594  0.69614984  0.76509145  1  -0.179455  0  -0.003438  0.089336  0  3.915104  0
C  C103  1  0.28932517  0.66178787  0.79953363  1  0.081239  0  -0.085983  -0.150578  0  3.956051  0
C  C104  1  0.46725665  0.73358957  0.76639076  1  -0.12467  0  -0.039106  -0.064238  0  4.110357  0
C  C105  1  0.52862214  0.76427762  0.73570191  1  -0.088317  0  -0.04049  -0.071073  0  4.116592  0
C  C106  1  0.59928974  0.79962460  0.70036492  1  0.074988  0  -0.003239  0.049323  0  4.06112  0
C  C107  1  0.63698052  0.80867664  0.73565672  1  -0.047426  0  -0.00424  0.08786  0  3.916245  0
C  C108  1  0.70659458  0.84372310  0.70106627  1  0.016191  0  -0.08814  -0.15214  0  3.969137  0
C  C109  1  0.74156131  0.87075783  0.62922899  1  0.013466  0  -0.014375  -0.006949  0  3.982773  0
C  C110  1  0.70658636  0.86282701  0.59236088  1  0.018859  0  -0.088037  -0.152253  0  3.969316  0
C  C111  1  0.63697711  0.82827176  0.62737522  1  -0.027444  0  -0.004336  0.08783  0  3.916013  0
C  C112  1  0.91704711  0.81225453  0.78508292  1  1.573978  0  0.226734  0.571828  0  4.178029  0
C  C113  1  0.09735504  0.70214572  0.71490004  1  1.56156  0  0.226723  0.572078  0  4.178021  0
C  C114  1  0.90265683  0.68775023  0.89520014  1  1.583721  0  0.226787  0.572024  0  4.178015  0
C  C115  1  0.08298916  0.79789795  0.60476885  1  1.568133  0  0.2266  0.57163  0  4.178583  0
C  C116  1  0.91704889  0.10480302  0.29783255  1  1.570079  0  0.227003  0.572613  0  4.177727  0
C  C117  1  0.09735154  0.39520218  0.18775660  1  1.583793  0  0.226685  0.571871  0  4.178056  0
C  C118  1  0.90267433  0.21492630  0.20209318  1  1.562151  0  0.226644  0.571407  0  4.178274  0
C  C119  1  0.08296702  0.28507978  0.31225570  1  1.574336  0  0.226673  0.571488  0  4.178  0
Br  Br120  1  0.10519909  0.68065657  0.22767178  1  -0.031754  0  0.029008  -0.055115  0  1.41572  0
Br  Br121  1  0.89477678  0.72762933  0.18067464  1  -0.031939  0  0.028973  -0.055151  0  1.41566  0
Br  Br122  1  0.09230160  0.75847553  0.33742047  1  -0.035419  0  0.029144  -0.055082  0  1.414829  0
Br  Br123  1  0.90766773  0.83736403  0.25849024  1  -0.034863  0  0.029133  -0.055065  0  1.415153  0
Br  Br124  1  0.89479063  0.16713617  0.92455510  1  -0.030772  0  0.029014  -0.055101  0  1.415638  0
Br  Br125  1  0.10526221  0.42452402  0.66716109  1  -0.031139  0  0.028848  -0.055317  0  1.415385  0
Br  Br126  1  0.90767326  0.07028575  0.83384908  1  -0.035133  0  0.029041  -0.055164  0  1.414828  0
Br  Br127  1  0.09225108  0.33382923  0.57029715  1  -0.035647  0  0.029224  -0.055038  0  1.415044  0
Br  Br128  1  0.59586532  0.16617163  0.24156142  1  -0.033866  0  0.029178  -0.05507  0  1.41479  0
Br  Br129  1  0.59587296  0.42972254  0.16254486  1  -0.031265  0  0.029114  -0.055142  0  1.414703  0
Br  Br130  1  0.40830670  0.07547446  0.31927098  1  -0.029965  0  0.028932  -0.055166  0  1.415496  0
Br  Br131  1  0.40831438  0.33286247  0.27237247  1  -0.032138  0  0.028927  -0.055231  0  1.415581  0
Br  Br132  1  0.40412673  0.74151591  0.66617869  1  -0.033615  0  0.029146  -0.055047  0  1.415116  0
Br  Br133  1  0.40411691  0.66247264  0.92975182  1  -0.030888  0  0.029185  -0.054985  0  1.414844  0
Br  Br134  1  0.59167946  0.81931618  0.57545854  1  -0.029789  0  0.029  -0.055132  0  1.415641  0
Br  Br135  1  0.59168929  0.77232795  0.83286922  1  -0.031921  0  0.028995  -0.055179  0  1.415682  0
O  O136  1  0.99999878  0.00000548  0.49999812  1  -1.235638  0  -0.573458  -1.039732  0  2.53257  0
O  O137  1  0.15456431  0.02792110  0.42638148  1  -1.170858  0  -0.311588  -0.539225  0  2.331621  0
O  O138  1  0.05152229  0.15355672  0.37111847  1  -1.155784  0  -0.295317  -0.524919  0  2.355403  0
O  O139  1  0.96573109  0.94299520  0.40631204  1  -1.178298  0  -0.310496  -0.537809  0  2.337081  0
O  O140  1  0.15456445  0.12668899  0.41900950  1  -1.167829  0  -0.311692  -0.539495  0  2.331573  0
O  O141  1  0.03422288  0.90630565  0.44301292  1  -1.176691  0  -0.31058  -0.537963  0  2.337307  0
O  O142  1  0.94848027  0.07736186  0.39793446  1  -1.174295  0  -0.2952  -0.524799  0  2.356277  0
O  O143  1  0.84542771  0.92641991  0.52789657  1  -1.171219  0  -0.311629  -0.539429  0  2.331795  0
O  O144  1  0.94848627  0.87112628  0.65354922  1  -1.155627  0  -0.295226  -0.524677  0  2.355625  0
O  O145  1  0.84543098  0.91899486  0.62669031  1  -1.168566  0  -0.311707  -0.539614  0  2.331546  0
O  O146  1  0.05153589  0.89797283  0.57734850  1  -1.174361  0  -0.295138  -0.524581  0  2.35622  0
O  O147  1  0.03421818  0.12792540  0.52276471  1  -1.179589  0  -0.310465  -0.537763  0  2.33735  0
O  O148  1  0.96574546  0.02274242  0.62794811  1  -1.179686  0  -0.310534  -0.537864  0  2.33692  0
O  O149  1  0.99999600  0.50000215  0.00000008  1  -1.234109  0  -0.573537  -1.039786  0  2.532739  0
O  O150  1  0.95429455  0.58096893  0.07359600  1  -1.170498  0  -0.311706  -0.539385  0  2.331332  0
O  O151  1  0.02470028  0.42264449  0.12887784  1  -1.154329  0  -0.295198  -0.524549  0  2.356777  0
O  O152  1  0.84931021  0.37207094  0.09370450  1  -1.179803  0  -0.310537  -0.537863  0  2.336894  0
O  O153  1  0.04566369  0.57355229  0.08102200  1  -1.17154  0  -0.311623  -0.539479  0  2.332107  0
O  O154  1  0.84930780  0.47725285  0.05699139  1  -1.17656  0  -0.310599  -0.537847  0  2.337255  0
O  O155  1  0.97532861  0.34645348  0.10202339  1  -1.154688  0  -0.295131  -0.524588  0  2.355626  0
O  O156  1  0.95430356  0.37332242  0.97211482  1  -1.16911  0  -0.311756  -0.539559  0  2.331557  0
O  O157  1  0.02468173  0.60204239  0.84643522  1  -1.154836  0  -0.29521  -0.524691  0  2.356044  0
O  O158  1  0.04569281  0.47209184  0.87333806  1  -1.171012  0  -0.3117  -0.539431  0  2.331614  0
O  O159  1  0.97531562  0.62887914  0.92264168  1  -1.154346  0  -0.295175  -0.524664  0  2.35618  0
O  O160  1  0.15068350  0.55698466  0.97725393  1  -1.176744  0  -0.310572  -0.53797  0  2.337383  0
O  O161  1  0.15068722  0.59368691  0.87206188  1  -1.180014  0  -0.310445  -0.537823  0  2.336971  0
O  O162  1  0.84990857  0.77727373  0.81067802  1  -1.08929  0  -0.319813  -0.44819  0  2.204294  0
O  O163  1  0.94320533  0.86592485  0.78306186  1  -1.09824  0  -0.275453  -0.439077  0  2.042261  0
O  O164  1  0.08798144  0.66061819  0.68929883  1  -1.087958  0  -0.319714  -0.447924  0  2.204658  0
O  O165  1  0.14900380  0.72627845  0.71694443  1  -1.100021  0  -0.275554  -0.439365  0  2.041748  0
O  O166  1  0.91202378  0.72271257  0.92737095  1  -1.078194  0  -0.319684  -0.447819  0  2.204584  0
O  O167  1  0.85100370  0.63406958  0.92270574  1  -1.101497  0  -0.275673  -0.43943  0  2.041793  0
O  O168  1  0.15011942  0.83942298  0.57263264  1  -1.084202  0  -0.319705  -0.448053  0  2.204459  0
O  O169  1  0.05682611  0.77376518  0.57725273  1  -1.09969  0  -0.275312  -0.438929  0  2.042219  0
O  O170  1  0.84991931  0.07264393  0.33936923  1  -1.085445  0  -0.319716  -0.447983  0  2.204822  0
O  O171  1  0.94321915  0.07730202  0.27368191  1  -1.101023  0  -0.275805  -0.439588  0  2.041688  0
O  O172  1  0.08797834  0.42736057  0.22272869  1  -1.078509  0  -0.319596  -0.447726  0  2.204827  0
O  O173  1  0.14901002  0.42271293  0.13407874  1  -1.101597  0  -0.27563  -0.439384  0  2.041537  0
O  O174  1  0.91206008  0.18932899  0.16055646  1  -1.087339  0  -0.319696  -0.447962  0  2.204203  0
O  O175  1  0.85102368  0.21695745  0.22622370  1  -1.10085  0  -0.275419  -0.438886  0  2.041851  0
O  O176  1  0.15010660  0.31068678  0.27727331  1  -1.089644  0  -0.31989  -0.448115  0  2.204093  0
O  O177  1  0.05680284  0.28304085  0.36593862  1  -1.098086  0  -0.275315  -0.43882  0  2.042195  0
