# generated using pymatgen
data_BaH4C8(N3O)2
_symmetry_space_group_name_H-M   'P 1'
_cell_length_a   6.76703373
_cell_length_b   10.89908902
_cell_length_c   17.61308912
_cell_angle_alpha   90.00014175
_cell_angle_beta   96.92748448
_cell_angle_gamma   90.00009458
_symmetry_Int_Tables_number   1
_chemical_formula_structural   BaH4C8(N3O)2
_chemical_formula_sum   'Ba4 H16 C32 N24 O8'
_cell_volume   1289.56108736
_cell_formula_units_Z   4
loop_
 _symmetry_equiv_pos_site_id
 _symmetry_equiv_pos_as_xyz
  1  'x, y, z'
loop_
 _atom_site_type_symbol
 _atom_site_label
 _atom_site_symmetry_multiplicity
 _atom_site_fract_x
 _atom_site_fract_y
 _atom_site_fract_z
 _atom_site_occupancy
 _atom_site_hle17_bader_spin_density
 _atom_site_hle17_ddec_charge
 _atom_site_hle17_ddec_spin_density
 _atom_site_hle17_ddec_sum_bond_order
 _atom_site_hle17_magmom
 _atom_site_hse06_10hf_bader_spin_density
 _atom_site_hse06_10hf_ddec_charge
 _atom_site_hse06_10hf_ddec_spin_density
 _atom_site_hse06_10hf_ddec_sum_bond_order
 _atom_site_hse06_10hf_magmom
 _atom_site_hse06_bader_spin_density
 _atom_site_hse06_ddec_charge
 _atom_site_hse06_ddec_spin_density
 _atom_site_hse06_ddec_sum_bond_order
 _atom_site_hse06_magmom
 _atom_site_pbe_bader_spin_density
 _atom_site_pbe_cm5_charge
 _atom_site_pbe_ddec_charge
 _atom_site_pbe_ddec_spin_density
 _atom_site_pbe_ddec_sum_bond_order
 _atom_site_pbe_magmom
Ba  Ba0  1  0.75317527  0.85326264  0.97339892  1  0  1.615508  0  1.155  0  0  1.456442  0  1.570252  0  0  1.493572  0  1.528666  0  0  0.970546  1.429091  0  1.599627  0
Ba  Ba1  1  0.74682478  0.35326399  0.52660116  1  0  1.615522  0  1.154998  0  0  1.456491  0  1.570198  0  0  1.49359  0  1.528661  0  0  0.970571  1.429143  0  1.599572  0
Ba  Ba2  1  0.24682607  0.14673630  0.02660134  1  0  1.61551  0  1.154991  0  0  1.456426  0  1.570265  0  0  1.493573  0  1.528651  0  0  0.970569  1.429077  0  1.599638  0
Ba  Ba3  1  0.25317507  0.64673862  0.47339847  1  0  1.615535  0  1.154974  0  0  1.456499  0  1.570188  0  0  1.493608  0  1.528632  0  0  0.970566  1.429149  0  1.599559  0
H  H4  1  0.11223963  0.98150862  0.87845122  1  0  0.422437  0  0.876841  0  0  0.391714  0  0.940053  0  0  0.401676  0  0.925669  0  0  0.307782  0.384686  0  0.950179  0
H  H5  1  0.38776019  0.48150958  0.62154911  1  0  0.422451  0  0.876846  0  0  0.391726  0  0.940058  0  0  0.401689  0  0.925672  0  0  0.307796  0.384699  0  0.950183  0
H  H6  1  0.88776020  0.01849124  0.12155010  1  0  0.422412  0  0.876906  0  0  0.391687  0  0.940117  0  0  0.401648  0  0.925736  0  0  0.307772  0.384659  0  0.950244  0
H  H7  1  0.61223965  0.51849303  0.37845165  1  0  0.422464  0  0.876839  0  0  0.391743  0  0.940042  0  0  0.401704  0  0.925661  0  0  0.307795  0.384716  0  0.950168  0
H  H8  1  0.20414145  0.87685415  0.93097728  1  0  0.422477  0  0.882789  0  0  0.391647  0  0.946511  0  0  0.402005  0  0.931628  0  0  0.307656  0.384269  0  0.957084  0
H  H9  1  0.29585803  0.37685756  0.56902288  1  0  0.422446  0  0.882819  0  0  0.391622  0  0.946539  0  0  0.401981  0  0.931654  0  0  0.307639  0.384244  0  0.957113  0
H  H10  1  0.79586286  0.12314479  0.06902313  1  0  0.422484  0  0.882768  0  0  0.391646  0  0.946508  0  0  0.402004  0  0.931625  0  0  0.307648  0.384268  0  0.957082  0
H  H11  1  0.70414331  0.62314780  0.43097682  1  0  0.422479  0  0.88277  0  0  0.391636  0  0.946518  0  0  0.401995  0  0.931633  0  0  0.307628  0.384257  0  0.957095  0
H  H12  1  0.45146210  0.06341279  0.87527585  1  0  0.419216  0  0.881775  0  0  0.386593  0  0.948161  0  0  0.396938  0  0.933124  0  0  0.303451  0.379304  0  0.958728  0
H  H13  1  0.04853789  0.56341350  0.62472329  1  0  0.419298  0  0.881686  0  0  0.386687  0  0.948058  0  0  0.397032  0  0.93302  0  0  0.303495  0.3794  0  0.958624  0
H  H14  1  0.54853774  0.93658707  0.12472434  1  0  0.419327  0  0.881634  0  0  0.386722  0  0.948002  0  0  0.397068  0  0.932963  0  0  0.303503  0.379432  0  0.958572  0
H  H15  1  0.95146345  0.43658819  0.37527641  1  0  0.419251  0  0.88173  0  0  0.386651  0  0.948091  0  0  0.396996  0  0.933053  0  0  0.303494  0.379363  0  0.958657  0
H  H16  1  0.63921164  0.13059841  0.91986421  1  0  0.416382  0  0.885395  0  0  0.387253  0  0.946187  0  0  0.397024  0  0.932161  0  0  0.305325  0.380321  0  0.956118  0
H  H17  1  0.86078919  0.63060018  0.58013614  1  0  0.416412  0  0.885346  0  0  0.387279  0  0.946146  0  0  0.397052  0  0.932119  0  0  0.305326  0.380346  0  0.956078  0
H  H18  1  0.36078970  0.86940053  0.08013606  1  0  0.416375  0  0.885405  0  0  0.387246  0  0.946196  0  0  0.397017  0  0.932172  0  0  0.305312  0.380315  0  0.956126  0
H  H19  1  0.13921213  0.36940151  0.41986469  1  0  0.416374  0  0.885408  0  0  0.387242  0  0.946205  0  0  0.397014  0  0.932178  0  0  0.305328  0.380311  0  0.956134  0
C  C20  1  0.66560639  0.91260822  0.66307419  1  0  -0.247575  0  4.051707  0  0  -0.223031  0  4.295855  0  0  -0.236954  0  4.312382  0  0  -0.0384  -0.213517  0  4.284563  0
C  C21  1  0.83438936  0.41260815  0.83692690  1  0  -0.247698  0  4.051523  0  0  -0.223214  0  4.295774  0  0  -0.237142  0  4.312301  0  0  -0.038406  -0.213695  0  4.284477  0
C  C22  1  0.33439790  0.08738980  0.33692735  1  0  -0.247781  0  4.051913  0  0  -0.223305  0  4.296167  0  0  -0.237228  0  4.312694  0  0  -0.038458  -0.213774  0  4.284854  0
C  C23  1  0.16560453  0.58738987  0.16307300  1  0  -0.247733  0  4.051753  0  0  -0.223226  0  4.295954  0  0  -0.237152  0  4.312478  0  0  -0.038435  -0.213702  0  4.284649  0
C  C24  1  0.69376256  0.90224790  0.74316494  1  0  0.333474  0  3.850673  0  0  0.313579  0  4.113042  0  0  0.328184  0  4.131271  0  0  0.195322  0.303682  0  4.10058  0
C  C25  1  0.80623171  0.40225023  0.75683380  1  0  0.333487  0  3.850379  0  0  0.313615  0  4.112762  0  0  0.32822  0  4.130987  0  0  0.195304  0.303717  0  4.100298  0
C  C26  1  0.30624172  0.09774921  0.25683774  1  0  0.333459  0  3.850706  0  0  0.313586  0  4.113091  0  0  0.32819  0  4.131323  0  0  0.195297  0.303683  0  4.100625  0
C  C27  1  0.19376370  0.59774871  0.24316391  1  0  0.333542  0  3.850711  0  0  0.313667  0  4.113073  0  0  0.328272  0  4.131299  0  0  0.195357  0.303766  0  4.100607  0
C  C28  1  0.65984826  0.02787641  0.62722527  1  0  0.329397  0  3.864369  0  0  0.305929  0  4.136831  0  0  0.320214  0  4.156103  0  0  0.195174  0.296166  0  4.123813  0
C  C29  1  0.84015076  0.52787474  0.87277483  1  0  0.329456  0  3.864423  0  0  0.306008  0  4.1369  0  0  0.320296  0  4.156174  0  0  0.195174  0.296242  0  4.123882  0
C  C30  1  0.34015752  0.97212712  0.37277635  1  0  0.329427  0  3.864427  0  0  0.305984  0  4.1369  0  0  0.320271  0  4.156175  0  0  0.195092  0.296211  0  4.12388  0
C  C31  1  0.15984465  0.47212328  0.12722344  1  0  0.329325  0  3.864292  0  0  0.305865  0  4.136766  0  0  0.320152  0  4.156039  0  0  0.195077  0.2961  0  4.123748  0
C  C32  1  0.64144498  0.80638456  0.61870263  1  0  0.347524  0  3.844732  0  0  0.322744  0  4.104293  0  0  0.338493  0  4.122329  0  0  0.212331  0.312141  0  4.091826  0
C  C33  1  0.85854749  0.30637461  0.88129644  1  0  0.347718  0  3.84462  0  0  0.322955  0  4.104188  0  0  0.338704  0  4.122219  0  0  0.212496  0.312351  0  4.091724  0
C  C34  1  0.35855930  0.19362264  0.38130005  1  0  0.347612  0  3.844759  0  0  0.322845  0  4.10433  0  0  0.33859  0  4.122362  0  0  0.212469  0.312236  0  4.09187  0
C  C35  1  0.14144195  0.69361700  0.11870211  1  0  0.347562  0  3.844733  0  0  0.322792  0  4.104303  0  0  0.338541  0  4.12234  0  0  0.212356  0.312185  0  4.091834  0
C  C36  1  0.32783779  0.54586768  0.84982610  1  0  -0.245253  0  4.060005  0  0  -0.219417  0  4.303496  0  0  -0.23405  0  4.320896  0  0  -0.031498  -0.209341  0  4.29159  0
C  C37  1  0.17216066  0.04587220  0.65017350  1  0  -0.245151  0  4.060043  0  0  -0.219349  0  4.303576  0  0  -0.23399  0  4.320977  0  0  -0.03146  -0.209278  0  4.291678  0
C  C38  1  0.67215908  0.45413218  0.15017394  1  0  -0.245118  0  4.060079  0  0  -0.219315  0  4.303612  0  0  -0.233963  0  4.321008  0  0  -0.031454  -0.209241  0  4.291709  0
C  C39  1  0.82783624  0.95413225  0.34982485  1  0  -0.245048  0  4.059917  0  0  -0.219348  0  4.3036  0  0  -0.234002  0  4.321003  0  0  -0.031484  -0.209275  0  4.291695  0
C  C40  1  0.29262679  0.54323425  0.77006419  1  0  0.341507  0  3.841949  0  0  0.315095  0  4.10503  0  0  0.329823  0  4.123442  0  0  0.202481  0.305135  0  4.092485  0
C  C41  1  0.20736869  0.04323913  0.72993413  1  0  0.34138  0  3.841956  0  0  0.314973  0  4.105052  0  0  0.329705  0  4.123466  0  0  0.202401  0.305012  0  4.092509  0
C  C42  1  0.70736862  0.45676469  0.22993409  1  0  0.3414  0  3.841894  0  0  0.314998  0  4.104999  0  0  0.329737  0  4.123409  0  0  0.202403  0.305037  0  4.092451  0
C  C43  1  0.79263267  0.95675981  0.27006443  1  0  0.341357  0  3.842139  0  0  0.314982  0  4.105259  0  0  0.329722  0  4.123669  0  0  0.202382  0.30502  0  4.092714  0
C  C44  1  0.34844495  0.65918824  0.88648638  1  0  0.369676  0  3.828009  0  0  0.341239  0  4.088556  0  0  0.357552  0  4.106449  0  0  0.223987  0.330116  0  4.076342  0
C  C45  1  0.15155238  0.15919168  0.61351220  1  0  0.369637  0  3.8281  0  0  0.34121  0  4.088656  0  0  0.357528  0  4.106544  0  0  0.224014  0.330092  0  4.076443  0
C  C46  1  0.65155046  0.34080978  0.11351189  1  0  0.369632  0  3.828012  0  0  0.341204  0  4.088568  0  0  0.357525  0  4.106455  0  0  0.22403  0.330084  0  4.076355  0
C  C47  1  0.84844746  0.84081185  0.38648856  1  0  0.369528  0  3.828106  0  0  0.341127  0  4.088695  0  0  0.357451  0  4.106579  0  0  0.223995  0.330008  0  4.07648  0
C  C48  1  0.33442769  0.43708345  0.89277555  1  0  0.335375  0  3.846481  0  0  0.312091  0  4.116327  0  0  0.326454  0  4.135455  0  0  0.199769  0.302225  0  4.103459  0
C  C49  1  0.16557495  0.93708604  0.60722542  1  0  0.335501  0  3.846212  0  0  0.312232  0  4.116062  0  0  0.326596  0  4.135186  0  0  0.199821  0.302368  0  4.103194  0
C  C50  1  0.66557067  0.56291550  0.10722457  1  0  0.335364  0  3.846383  0  0  0.312092  0  4.116236  0  0  0.326461  0  4.135359  0  0  0.199764  0.302229  0  4.103366  0
C  C51  1  0.83442045  0.06291382  0.39277342  1  0  0.335397  0  3.846321  0  0  0.312159  0  4.116193  0  0  0.326531  0  4.135312  0  0  0.19975  0.302296  0  4.103327  0
N  N52  1  0.71766646  0.89161504  0.80984747  1  0  -0.508185  0  2.695021  0  0  -0.470828  0  2.938464  0  0  -0.486058  0  2.948944  0  0  -0.364084  -0.46026  0  2.931282  0
N  N53  1  0.78233077  0.39161617  0.69015026  1  0  -0.508228  0  2.694816  0  0  -0.470878  0  2.938267  0  0  -0.486104  0  2.948744  0  0  -0.364112  -0.460309  0  2.931087  0
N  N54  1  0.28234081  0.10838206  0.19015422  1  0  -0.508136  0  2.694818  0  0  -0.47077  0  2.938249  0  0  -0.486003  0  2.948729  0  0  -0.364061  -0.460202  0  2.93107  0
N  N55  1  0.21766764  0.60838277  0.30984646  1  0  -0.508186  0  2.695002  0  0  -0.470834  0  2.938432  0  0  -0.486062  0  2.948911  0  0  -0.364097  -0.460264  0  2.93125  0
N  N56  1  0.65311879  0.12375591  0.59685024  1  0  -0.512204  0  2.679606  0  0  -0.476566  0  2.92632  0  0  -0.492354  0  2.93849  0  0  -0.363286  -0.46556  0  2.918102  0
N  N57  1  0.84688198  0.62375530  0.90315293  1  0  -0.512276  0  2.679527  0  0  -0.476636  0  2.926245  0  0  -0.492425  0  2.938403  0  0  -0.363318  -0.465627  0  2.91803  0
N  N58  1  0.34688847  0.87624028  0.40315259  1  0  -0.512249  0  2.679419  0  0  -0.476613  0  2.926132  0  0  -0.492401  0  2.938293  0  0  -0.363276  -0.465604  0  2.917917  0
N  N59  1  0.15311489  0.37624181  0.09684711  1  0  -0.512113  0  2.679444  0  0  -0.476473  0  2.926171  0  0  -0.492262  0  2.938328  0  0  -0.363213  -0.465464  0  2.917957  0
N  N60  1  0.62137637  0.71641549  0.58153431  1  0  -0.526297  0  2.696867  0  0  -0.476552  0  2.92988  0  0  -0.492945  0  2.939615  0  0  -0.339912  -0.465121  0  2.923165  0
N  N61  1  0.87860993  0.21641671  0.91845978  1  0  -0.526323  0  2.697078  0  0  -0.476577  0  2.930085  0  0  -0.492971  0  2.939816  0  0  -0.340021  -0.465148  0  2.923375  0
N  N62  1  0.37862501  0.28358437  0.41846312  1  0  -0.526204  0  2.697228  0  0  -0.476445  0  2.930213  0  0  -0.492833  0  2.939947  0  0  -0.339941  -0.465018  0  2.923505  0
N  N63  1  0.12137511  0.78358590  0.08153458  1  0  -0.52625  0  2.696963  0  0  -0.476503  0  2.92997  0  0  -0.492899  0  2.939708  0  0  -0.339897  -0.465071  0  2.923255  0
N  N64  1  0.26173091  0.54329741  0.70304357  1  0  -0.486105  0  2.735295  0  0  -0.441475  0  2.962277  0  0  -0.456705  0  2.970876  0  0  -0.305116  -0.431033  0  2.956488  0
N  N65  1  0.23826601  0.04329800  0.79695766  1  0  -0.486091  0  2.735154  0  0  -0.441456  0  2.962124  0  0  -0.456688  0  2.970724  0  0  -0.305104  -0.431014  0  2.956333  0
N  N66  1  0.73826742  0.45670429  0.29695825  1  0  -0.486115  0  2.735086  0  0  -0.441489  0  2.96207  0  0  -0.456723  0  2.970669  0  0  -0.305118  -0.431045  0  2.956277  0
N  N67  1  0.76173981  0.95669819  0.20304169  1  0  -0.486029  0  2.735373  0  0  -0.441396  0  2.962331  0  0  -0.45663  0  2.970929  0  0  -0.305027  -0.430954  0  2.95654  0
N  N68  1  0.36673165  0.75534130  0.91662130  1  0  -0.531624  0  2.763505  0  0  -0.481046  0  3.008367  0  0  -0.498488  0  3.017322  0  0  -0.359728  -0.468926  0  3.002321  0
N  N69  1  0.13326893  0.25534276  0.58337929  1  0  -0.531604  0  2.763593  0  0  -0.481028  0  3.008453  0  0  -0.498465  0  3.017403  0  0  -0.35976  -0.46891  0  3.002409  0
N  N70  1  0.63327117  0.24465948  0.08337904  1  0  -0.531592  0  2.763576  0  0  -0.481005  0  3.008439  0  0  -0.498451  0  3.01739  0  0  -0.359745  -0.468885  0  3.002395  0
N  N71  1  0.86673240  0.74466352  0.41662154  1  0  -0.531514  0  2.763656  0  0  -0.48092  0  3.008496  0  0  -0.498362  0  3.017446  0  0  -0.35969  -0.468802  0  3.002451  0
N  N72  1  0.33975634  0.34689800  0.92911098  1  0  -0.503154  0  2.689705  0  0  -0.468402  0  2.937995  0  0  -0.484187  0  2.950058  0  0  -0.359926  -0.457495  0  2.929879  0
N  N73  1  0.16024752  0.84690228  0.57088934  1  0  -0.503246  0  2.689574  0  0  -0.468501  0  2.937862  0  0  -0.48428  0  2.949925  0  0  -0.359949  -0.457595  0  2.929745  0
N  N74  1  0.66024202  0.65310002  0.07088913  1  0  -0.503153  0  2.689595  0  0  -0.468404  0  2.937882  0  0  -0.484187  0  2.949944  0  0  -0.359912  -0.457495  0  2.929762  0
N  N75  1  0.83974787  0.15309849  0.42911007  1  0  -0.503253  0  2.689596  0  0  -0.468507  0  2.937872  0  0  -0.484288  0  2.949932  0  0  -0.359948  -0.457595  0  2.929746  0
O  O76  1  0.10873511  0.94674527  0.93010952  1  0  -0.900784  0  1.859171  0  0  -0.83815  0  2.046805  0  0  -0.860045  0  2.017576  0  0  -0.638268  -0.82246  0  2.067142  0
O  O77  1  0.39126757  0.44674786  0.56989147  1  0  -0.900764  0  1.859171  0  0  -0.838146  0  2.04679  0  0  -0.860033  0  2.017561  0  0  -0.63825  -0.822455  0  2.067127  0
O  O78  1  0.89127066  0.05325276  0.06989323  1  0  -0.900777  0  1.859198  0  0  -0.838137  0  2.046826  0  0  -0.860031  0  2.017599  0  0  -0.638245  -0.822447  0  2.067164  0
O  O79  1  0.60873229  0.55325384  0.43010815  1  0  -0.900818  0  1.859172  0  0  -0.838183  0  2.0468  0  0  -0.86007  0  2.017573  0  0  -0.638241  -0.822493  0  2.067138  0
O  O80  1  0.53198632  0.07076401  0.92579467  1  0  -0.891808  0  1.870605  0  0  -0.828869  0  2.052888  0  0  -0.850163  0  2.023251  0  0  -0.62361  -0.813438  0  2.073431  0
O  O81  1  0.96801728  0.57076312  0.57420685  1  0  -0.89192  0  1.870529  0  0  -0.829003  0  2.052786  0  0  -0.850291  0  2.023148  0  0  -0.62367  -0.813571  0  2.073331  0
O  O82  1  0.46801352  0.92923585  0.07420552  1  0  -0.8919  0  1.870533  0  0  -0.82898  0  2.052766  0  0  -0.850275  0  2.023125  0  0  -0.623654  -0.813549  0  2.073312  0
O  O83  1  0.03198554  0.42923858  0.42579405  1  0  -0.891844  0  1.870585  0  0  -0.828947  0  2.052837  0  0  -0.850235  0  2.023198  0  0  -0.623671  -0.813517  0  2.07338  0
