# generated using pymatgen
data_CuH10C11S2(BrN)2
_symmetry_space_group_name_H-M   'P 1'
_cell_length_a   8.64873097
_cell_length_b   12.55765642
_cell_length_c   13.99286403
_cell_angle_alpha   90.00054414
_cell_angle_beta   100.93493606
_cell_angle_gamma   90.00063808
_symmetry_Int_Tables_number   1
_chemical_formula_structural   CuH10C11S2(BrN)2
_chemical_formula_sum   'Cu4 H40 C44 S8 Br8 N8'
_cell_volume   1492.14060381
_cell_formula_units_Z   4
loop_
 _symmetry_equiv_pos_site_id
 _symmetry_equiv_pos_as_xyz
  1  'x, y, z'
loop_
 _atom_site_type_symbol
 _atom_site_label
 _atom_site_symmetry_multiplicity
 _atom_site_fract_x
 _atom_site_fract_y
 _atom_site_fract_z
 _atom_site_occupancy
 _atom_site_hle17_ddec_charge
 _atom_site_hle17_ddec_spin_density
 _atom_site_hle17_ddec_sum_bond_order
 _atom_site_hle17_magmom
 _atom_site_hse06_10hf_ddec_charge
 _atom_site_hse06_10hf_ddec_spin_density
 _atom_site_hse06_10hf_ddec_sum_bond_order
 _atom_site_hse06_10hf_magmom
 _atom_site_hse06_ddec_charge
 _atom_site_hse06_ddec_spin_density
 _atom_site_hse06_ddec_sum_bond_order
 _atom_site_hse06_magmom
 _atom_site_pbe_cm5_charge
 _atom_site_pbe_ddec_charge
 _atom_site_pbe_ddec_spin_density
 _atom_site_pbe_ddec_sum_bond_order
 _atom_site_pbe_magmom
Cu  Cu0  1  0.29517064  0.85085325  0.22383578  1  0.587503  0.537057  2.046894  0.376  0.54523  0.657473  2.482634  0.499  0.634782  0.757222  2.41056  0.59  0.537126  0.497331  0.575878  2.527054  0.433
Cu  Cu1  1  0.70486754  0.35085025  0.27617310  1  0.587449  -0.537017  2.047057  -0.376  0.545164  -0.657461  2.482794  -0.499  0.634738  -0.7572  2.410733  -0.59  0.537158  0.497275  -0.575776  2.527206  -0.433
Cu  Cu2  1  0.70483321  0.14915350  0.77616531  1  0.587444  -0.537076  2.047012  -0.376  0.545143  -0.657495  2.482712  -0.499  0.634753  -0.757236  2.410599  -0.59  0.537119  0.497254  -0.575845  2.527136  -0.433
Cu  Cu3  1  0.29513887  0.64914695  0.72383469  1  0.587343  0.537009  2.047159  0.376  0.545029  0.657432  2.482917  0.499  0.634615  0.75719  2.410862  0.59  0.537143  0.497168  0.575826  2.527319  0.433
H  H4  1  0.57956824  0.19796577  0.09929953  1  0.123585  0.000319  0.965182  0.0  0.134713  0.000293  1.031569  0.0  0.137132  0.000328  1.030903  0.0  0.089069  0.133007  0.000233  1.032183  0.0
H  H5  1  0.42044619  0.69796571  0.40071584  1  0.123531  -0.000319  0.965303  0.0  0.134647  -0.000293  1.031652  0.0  0.137067  -0.000327  1.030985  0.0  0.089053  0.132925  -0.000233  1.032286  0.0
H  H6  1  0.42043537  0.80203461  0.90069367  1  0.123583  -0.000319  0.965174  0.0  0.134677  -0.000293  1.031566  0.0  0.137094  -0.000328  1.030903  0.0  0.089069  0.132976  -0.000233  1.03217  0.0
H  H7  1  0.57954892  0.30203229  0.59930576  1  0.123529  0.000319  0.965253  0.0  0.134673  0.000293  1.031587  0.0  0.137085  0.000328  1.030924  0.0  0.089074  0.132979  0.000233  1.032208  0.0
H  H8  1  0.69337265  0.09580991  0.05534553  1  0.118571  0.000147  0.988854  0.0  0.127292  -5e-06  1.057351  0.0  0.131098  -1.4e-05  1.054563  0.0  0.087251  0.124857  -2e-06  1.058833  0.0
H  H9  1  0.30664916  0.59580159  0.44466637  1  0.118492  -0.000147  0.988904  0.0  0.127235  5e-06  1.057322  0.0  0.13103  1.5e-05  1.054577  0.0  0.087235  0.124807  2e-06  1.058805  0.0
H  H10  1  0.30663100  0.90418649  0.94464910  1  0.118395  -0.000147  0.989049  0.0  0.127153  5e-06  1.057479  0.0  0.130961  1.5e-05  1.054686  0.0  0.087187  0.124721  2e-06  1.058958  0.0
H  H11  1  0.69334686  0.40418764  0.55534675  1  0.118327  0.000147  0.989018  0.0  0.127097  -5e-06  1.057473  0.0  0.130912  -1.4e-05  1.054662  0.0  0.087171  0.12466  -2e-06  1.059004  0.0
H  H12  1  0.77581195  0.94644281  0.07485075  1  0.109731  0.000273  0.990045  0.001  0.114701  0.000277  1.061245  0.001  0.119255  0.000191  1.058015  0.0  0.092344  0.111448  0.000333  1.063658  0.001
H  H13  1  0.22420279  0.44645083  0.42513984  1  0.109739  -0.000273  0.989976  -0.001  0.114698  -0.000277  1.061164  -0.001  0.11925  -0.000191  1.057937  0.0  0.092319  0.111442  -0.000332  1.063582  -0.001
H  H14  1  0.22418700  0.05354723  0.92514338  1  0.109793  -0.000274  0.990007  -0.001  0.114742  -0.000277  1.061206  -0.001  0.119293  -0.000191  1.057982  0.0  0.092367  0.111487  -0.000332  1.063624  -0.001
H  H15  1  0.77577885  0.55354637  0.57486390  1  0.10986  0.000274  0.989952  0.001  0.114765  0.000276  1.061159  0.001  0.119312  0.000191  1.05794  0.0  0.092379  0.11151  0.000332  1.063567  0.001
H  H16  1  0.86388110  0.76185054  0.06887614  1  0.094204  0.000101  0.953119  0.0  0.105181  -1.5e-05  1.012741  0.0  0.108046  -5.4e-05  1.010618  0.0  0.097036  0.103109  2.4e-05  1.014223  0.0
H  H17  1  0.13613628  0.26185637  0.43112066  1  0.094232  -0.0001  0.95328  0.0  0.105215  1.5e-05  1.012906  0.0  0.108085  5.4e-05  1.010773  0.0  0.097045  0.103151  -2.4e-05  1.014388  0.0
H  H18  1  0.13611578  0.23813790  0.93112707  1  0.094164  -0.0001  0.953236  0.0  0.105153  1.5e-05  1.012876  0.0  0.10802  5.4e-05  1.010748  0.0  0.097027  0.103072  -2.4e-05  1.014367  0.0
H  H19  1  0.86385922  0.73814003  0.56887597  1  0.094303  0.0001  0.953124  0.0  0.105283  -1.5e-05  1.012777  0.0  0.108152  -5.4e-05  1.010647  0.0  0.097042  0.103192  2.4e-05  1.01428  0.0
H  H20  1  0.68990605  0.61203321  0.11420521  1  0.109197  0.000797  0.960372  0.001  0.118533  0.000803  1.020764  0.001  0.122413  0.000653  1.01869  0.0  0.097415  0.1158  0.000862  1.022346  0.001
H  H21  1  0.31012187  0.11203977  0.38580458  1  0.109109  -0.000798  0.960444  -0.001  0.118497  -0.000803  1.020765  -0.001  0.122371  -0.000653  1.0187  0.0  0.097405  0.11576  -0.000862  1.022351  -0.001
H  H22  1  0.31009731  0.38796161  0.88581727  1  0.109209  -0.000798  0.960296  -0.001  0.118534  -0.000803  1.020683  -0.001  0.122409  -0.000653  1.018615  0.0  0.097409  0.1158  -0.000862  1.022264  -0.001
H  H23  1  0.68986872  0.88795981  0.61418509  1  0.109086  0.000798  0.960465  0.001  0.118474  0.000803  1.020788  0.001  0.122374  0.000653  1.018696  0.0  0.097441  0.115741  0.000862  1.022374  0.001
H  H24  1  0.44932749  0.66253415  0.17489235  1  0.059152  0.000801  1.004968  0.002  0.059122  0.00092  1.088023  0.002  0.060952  0.000719  1.086221  0.001  0.097698  0.057555  0.001018  1.089658  0.002
H  H25  1  0.55070038  0.16254653  0.32512349  1  0.059312  -0.0008  1.004902  -0.002  0.059236  -0.000918  1.088046  -0.002  0.06106  -0.000718  1.08626  -0.001  0.097713  0.057638  -0.001016  1.089694  -0.002
H  H26  1  0.55067451  0.33746783  0.82512427  1  0.059229  -0.000801  1.004912  -0.002  0.059196  -0.000921  1.088036  -0.002  0.06102  -0.000719  1.08625  -0.001  0.097759  0.057633  -0.001019  1.08966  -0.002
H  H27  1  0.44928442  0.83746181  0.67486843  1  0.059226  0.0008  1.004802  0.002  0.059152  0.00092  1.08796  0.002  0.06099  0.000719  1.086163  0.001  0.097689  0.05755  0.001017  1.08961  0.002
H  H28  1  0.06708886  0.10510044  0.14495199  1  0.111736  -0.000921  0.981207  -0.001  0.116455  -0.00097  1.05248  -0.001  0.120934  -0.000797  1.049207  -0.001  0.092629  0.113183  -0.001041  1.055048  -0.001
H  H29  1  0.93292093  0.60511087  0.35504512  1  0.111706  0.00092  0.981428  0.001  0.116387  0.00097  1.052709  0.001  0.120869  0.000798  1.049435  0.001  0.092602  0.113114  0.001042  1.05527  0.001
H  H30  1  0.93292175  0.89490233  0.85503980  1  0.111731  0.000921  0.981229  0.001  0.116419  0.00097  1.052582  0.001  0.120899  0.000798  1.049309  0.001  0.092611  0.113142  0.001042  1.055149  0.001
H  H31  1  0.06707373  0.39490305  0.64496214  1  0.111604  -0.000921  0.981467  -0.001  0.116302  -0.00097  1.052804  -0.001  0.120784  -0.000798  1.049529  -0.001  0.092556  0.113033  -0.001041  1.055364  -0.001
H  H32  1  0.26034526  0.24507215  0.11265021  1  0.096457  -4.8e-05  0.945191  0.0  0.10667  0.00012  1.007462  0.0  0.109305  0.000127  1.005695  0.0  0.101858  0.104762  0.000103  1.008817  0.0
H  H33  1  0.73966456  0.74508790  0.38733997  1  0.096499  4.8e-05  0.944966  0.0  0.106585  -0.000121  1.00737  0.0  0.10922  -0.000128  1.005604  0.0  0.101817  0.104673  -0.000103  1.008722  0.0
H  H34  1  0.73965578  0.75492903  0.88733557  1  0.09651  4.8e-05  0.945227  0.0  0.106696  -0.00012  1.007518  0.0  0.109332  -0.000127  1.005749  0.0  0.101868  0.104787  -0.000103  1.008867  0.0
H  H35  1  0.26032970  0.25493001  0.61265439  1  0.09654  -4.8e-05  0.944974  0.0  0.106737  0.00012  1.007252  0.0  0.109372  0.000127  1.005487  0.0  0.101881  0.104831  0.000103  1.0086  0.0
H  H36  1  0.20739016  0.43513310  0.14438280  1  0.106412  -0.000546  0.964796  0.0  0.113038  -0.000669  1.02977  -0.001  0.116944  -0.000514  1.027641  0.0  0.098078  0.110334  -0.000748  1.031251  -0.001
H  H37  1  0.79263211  0.93514644  0.35559279  1  0.106289  0.000545  0.964934  0.0  0.112884  0.000669  1.02994  0.001  0.116788  0.000514  1.027814  0.0  0.098037  0.110152  0.000749  1.031466  0.001
H  H38  1  0.79260496  0.56486808  0.85560164  1  0.106422  0.000545  0.964956  0.0  0.113032  0.000669  1.029944  0.001  0.116939  0.000514  1.027812  0.0  0.098029  0.110317  0.000749  1.031446  0.001
H  H39  1  0.20736899  0.06486907  0.64439514  1  0.106278  -0.000547  0.964997  0.0  0.112923  -0.000669  1.029965  -0.001  0.116825  -0.000514  1.027844  0.0  0.098032  0.11024  -0.000749  1.031437  -0.001
H  H40  1  0.96549233  0.48139588  0.21186176  1  0.072973  -0.000911  0.955093  -0.001  0.077594  -0.00088  1.028293  -0.001  0.07971  -0.000691  1.025686  -0.001  0.109624  0.075838  -0.000959  1.030442  -0.001
H  H41  1  0.03454992  0.98139774  0.28812482  1  0.072831  0.000911  0.955279  0.001  0.077516  0.00088  1.028446  0.001  0.079631  0.000691  1.025842  0.001  0.109599  0.075758  0.000958  1.030605  0.001
H  H42  1  0.03452443  0.51860052  0.78813926  1  0.072897  0.000911  0.955135  0.001  0.077527  0.00088  1.02834  0.001  0.079643  0.000691  1.025733  0.001  0.109582  0.075767  0.000959  1.030496  0.001
H  H43  1  0.96545695  0.01861300  0.71186014  1  0.072776  -0.00091  0.955493  -0.001  0.077577  -0.000879  1.028522  -0.001  0.07965  -0.00069  1.025955  -0.001  0.1096  0.075817  -0.000958  1.03068  -0.001
C  C44  1  0.63631616  0.11978272  0.11575266  1  -0.190685  0.000481  3.598687  0.0  -0.215731  0.000116  3.853601  0.0  -0.215264  0.00027  3.860712  0.0  -0.14585  -0.215765  -3e-05  3.848458  0.0
C  C45  1  0.36370017  0.61978837  0.38425739  1  -0.19048  -0.000482  3.59847  0.0  -0.215478  -0.000117  3.853277  0.0  -0.215016  -0.00027  3.860377  0.0  -0.145741  -0.215511  3.1e-05  3.848163  0.0
C  C46  1  0.36368163  0.88021448  0.88424207  1  -0.190615  -0.000481  3.598842  0.0  -0.215585  -0.000119  3.853573  0.0  -0.215093  -0.00027  3.860632  0.0  -0.145812  -0.215668  3e-05  3.848535  0.0
C  C47  1  0.63630051  0.38021520  0.61575480  1  -0.19042  0.000481  3.598685  0.0  -0.215438  0.000117  3.853353  0.0  -0.214967  0.00027  3.860474  0.0  -0.1458  -0.215544  -3.1e-05  3.848294  0.0
C  C48  1  0.56519598  0.90467661  0.13064305  1  0.19091  -0.005616  3.746267  -0.006  0.193094  -0.001286  4.006823  -0.002  0.20499  -0.002419  4.02709  -0.004  0.114323  0.185493  -0.000319  3.993144  -0.001
C  C49  1  0.43481238  0.40467596  0.36935589  1  0.190979  0.005606  3.745764  0.006  0.193099  0.001286  4.006343  0.002  0.204997  0.00242  4.026609  0.004  0.114248  0.185504  0.000317  3.992646  0.001
C  C50  1  0.43480308  0.09533014  0.86935467  1  0.190874  0.005597  3.746303  0.006  0.192962  0.001286  4.006964  0.002  0.204858  0.002418  4.027235  0.004  0.114202  0.185363  0.000318  3.993286  0.001
C  C51  1  0.56516702  0.59531965  0.63065119  1  0.19087  -0.0056  3.746147  -0.006  0.192797  -0.001288  4.006951  -0.002  0.204694  -0.002418  4.027216  -0.004  0.114104  0.185211  -0.00032  3.99323  -0.001
C  C52  1  0.70507476  0.88296826  0.09752917  1  -0.161927  0.007272  3.735472  0.007  -0.180081  0.003048  3.987529  0.003  -0.188272  0.003025  4.007429  0.003  -0.094074  -0.174645  0.002825  3.973826  0.003
C  C53  1  0.29493766  0.38297095  0.40246219  1  -0.162047  -0.007258  3.735751  -0.007  -0.180136  -0.00305  3.9878  -0.003  -0.188324  -0.003026  4.007692  -0.003  -0.09406  -0.174692  -0.002823  3.974091  -0.003
C  C54  1  0.29492190  0.11702814  0.90246686  1  -0.162121  -0.007249  3.735642  -0.007  -0.180183  -0.003051  3.987692  -0.003  -0.188371  -0.003023  4.007592  -0.003  -0.094147  -0.174743  -0.002825  3.973991  -0.003
C  C55  1  0.70505096  0.61702306  0.59753943  1  -0.162144  0.007252  3.735536  0.007  -0.180102  0.003051  3.987643  0.003  -0.188288  0.003023  4.007538  0.003  -0.094093  -0.174654  0.002825  3.973919  0.003
C  C56  1  0.75351930  0.77784769  0.09305560  1  0.009474  -0.007362  3.714803  -0.007  -0.008261  -0.002514  3.961393  -0.002  -0.002668  -0.002943  3.977193  -0.003  -0.072273  -0.011711  -0.001994  3.950299  -0.002
C  C57  1  0.24649365  0.27785166  0.40694012  1  0.009425  0.007352  3.715145  0.007  -0.00838  0.002516  3.961759  0.002  -0.002786  0.002945  3.977553  0.003  -0.072273  -0.011845  0.001995  3.950675  0.002
C  C58  1  0.24647636  0.22214792  0.90694605  1  0.009593  0.007339  3.714934  0.007  -0.008215  0.002514  3.961522  0.002  -0.002623  0.002941  3.977319  0.003  -0.072235  -0.01165  0.001994  3.950417  0.002
C  C59  1  0.75349140  0.72214872  0.59305969  1  0.009329  -0.007344  3.714954  -0.007  -0.008507  -0.002515  3.961579  -0.002  -0.002914  -0.002942  3.977379  -0.003  -0.072208  -0.011944  -0.001995  3.950493  -0.002
C  C60  1  0.66081939  0.69597315  0.11919334  1  -0.117364  0.009318  3.733976  0.009  -0.128496  0.004981  3.978629  0.005  -0.134708  0.004702  3.99708  0.005  -0.09201  -0.124241  0.004836  3.965716  0.005
C  C61  1  0.33920510  0.19597908  0.38080736  1  -0.117102  -0.009301  3.734075  -0.009  -0.128226  -0.004977  3.978676  -0.005  -0.134435  -0.004702  3.997133  -0.005  -0.091927  -0.123969  -0.004832  3.965764  -0.005
C  C62  1  0.33918360  0.30402325  0.88081767  1  -0.117337  -0.009296  3.734088  -0.009  -0.128405  -0.004981  3.97872  -0.005  -0.134615  -0.004702  3.997176  -0.005  -0.091973  -0.124148  -0.004836  3.965807  -0.005
C  C63  1  0.66077861  0.80402290  0.61918731  1  -0.117023  0.009295  3.734273  0.009  -0.128131  0.004976  3.978889  0.005  -0.134363  0.0047  3.997337  0.005  -0.091939  -0.123878  0.004833  3.965978  0.005
C  C64  1  0.52504185  0.72322953  0.15256138  1  0.137306  -0.004889  3.690314  -0.005  0.106664  0.000178  3.944431  0.0  0.115484  -0.000999  3.963477  -0.002  0.038349  0.101075  0.001039  3.932169  0.0
C  C65  1  0.47498096  0.22322969  0.34744432  1  0.137019  0.004877  3.690162  0.005  0.106353  -0.00018  3.944247  0.0  0.11517  0.001  3.963294  0.002  0.038218  0.100795  -0.00104  3.93201  0.0
C  C66  1  0.47496107  0.27677006  0.84744747  1  0.13722  0.004867  3.690683  0.005  0.106519  -0.000179  3.944759  0.0  0.115333  0.000997  3.963807  0.002  0.038241  0.100927  -0.001039  3.932502  0.0
C  C67  1  0.52501221  0.77677149  0.65255278  1  0.137073  -0.004866  3.690381  -0.005  0.106392  0.000182  3.944474  0.0  0.115194  -0.000997  3.963518  -0.002  0.038173  0.100832  0.001041  3.932254  0.0
C  C68  1  0.91835289  0.22160349  0.19640110  1  0.191264  0.004538  3.73455  0.005  0.195033  -0.000351  3.990192  0.001  0.202371  0.000807  4.013376  0.002  0.11182  0.190135  -0.001203  3.975364  0.0
C  C69  1  0.08167913  0.72160273  0.30359984  1  0.191342  -0.004549  3.735098  -0.005  0.195054  0.000352  3.990692  -0.001  0.202403  -0.000807  4.013879  -0.002  0.111762  0.190155  0.001205  3.975849  0.0
C  C70  1  0.08166027  0.77839689  0.80359740  1  0.191073  -0.004539  3.734803  -0.005  0.195003  0.000353  3.990193  -0.001  0.202342  -0.000807  4.013375  -0.002  0.111792  0.190093  0.001205  3.975376  0.0
C  C71  1  0.91832240  0.27840084  0.69640171  1  0.191304  0.004537  3.734921  0.005  0.195049  -0.000352  3.990507  0.001  0.202387  0.000807  4.013691  0.002  0.111792  0.190143  -0.001205  3.975682  0.0
C  C72  1  0.04907505  0.18923002  0.15887460  1  -0.128347  -0.008438  3.702364  -0.008  -0.143195  -0.004079  3.943581  -0.004  -0.148553  -0.004046  3.961831  -0.004  -0.080357  -0.139694  -0.00378  3.931364  -0.004
C  C73  1  0.95095036  0.68924120  0.34112186  1  -0.128334  0.008457  3.702645  0.008  -0.143136  0.00408  3.943795  0.004  -0.148493  0.004049  3.962043  0.004  -0.080338  -0.139626  0.003781  3.931555  0.004
C  C74  1  0.95093329  0.81076400  0.84111982  1  -0.128201  0.008442  3.702348  0.008  -0.143041  0.004078  3.943454  0.004  -0.148402  0.004047  3.961708  0.004  -0.080302  -0.139531  0.00378  3.931221  0.004
C  C75  1  0.04905588  0.31077273  0.65888019  1  -0.127976  -0.00844  3.702177  -0.008  -0.142855  -0.00408  3.943377  -0.004  -0.14821  -0.004048  3.961623  -0.004  -0.080226  -0.139346  -0.003781  3.931146  -0.004
C  C76  1  0.15460566  0.26687138  0.13986436  1  0.013027  0.008386  3.689969  0.008  -0.002855  0.002938  3.932397  0.003  0.000925  0.003427  3.949747  0.003  -0.063463  -0.005255  0.00234  3.920512  0.002
C  C77  1  0.84541277  0.76689394  0.36012544  1  0.012973  -0.008405  3.689943  -0.008  -0.002772  -0.002937  3.932283  -0.003  0.001005  -0.00343  3.949632  -0.003  -0.06335  -0.005162  -0.002339  3.92038  -0.002
C  C78  1  0.84539445  0.73312662  0.86012918  1  0.012898  -0.008391  3.689796  -0.008  -0.002982  -0.002936  3.932264  -0.003  0.0008  -0.003428  3.949607  -0.003  -0.063482  -0.005375  -0.002339  3.920367  -0.002
C  C79  1  0.15458269  0.23312874  0.63986975  1  0.012686  0.008387  3.689703  0.008  -0.003133  0.002936  3.932114  0.003  0.000644  0.003427  3.949465  0.003  -0.063578  -0.005524  0.002339  3.92023  0.002
C  C80  1  0.12511962  0.37346292  0.15724535  1  -0.105276  -0.008255  3.710014  -0.008  -0.115022  -0.003556  3.951137  -0.004  -0.121196  -0.003559  3.970811  -0.004  -0.07813  -0.110923  -0.003291  3.937639  -0.004
C  C81  1  0.87490879  0.87347434  0.34273763  1  -0.105122  0.008269  3.710725  0.008  -0.11481  0.003551  3.95177  0.004  -0.120984  0.003559  3.971448  0.004  -0.078175  -0.110695  0.00329  3.93831  0.004
C  C82  1  0.87488628  0.62653348  0.84274595  1  -0.105304  0.008258  3.710128  0.008  -0.115026  0.003554  3.951231  0.004  -0.121199  0.003559  3.970899  0.004  -0.07813  -0.110924  0.003292  3.937749  0.004
C  C83  1  0.12508887  0.12653959  0.65725279  1  -0.105098  -0.008252  3.710222  -0.008  -0.114898  -0.003554  3.951426  -0.004  -0.121068  -0.003558  3.971089  -0.004  -0.078072  -0.110826  -0.003291  3.937942  -0.004
C  C84  1  0.99163668  0.39964813  0.19445210  1  0.139241  0.007636  3.69181  0.008  0.109438  0.00189  3.941676  0.003  0.11845  0.003034  3.959953  0.004  0.048199  0.103769  0.000899  3.929781  0.001
C  C85  1  0.00838664  0.89965639  0.30554052  1  0.139418  -0.007652  3.692116  -0.008  0.109464  -0.001889  3.941985  -0.003  0.118488  -0.003035  3.960265  -0.004  0.048151  0.103798  -0.0009  3.930094  -0.001
C  C86  1  0.00837309  0.60035066  0.80555032  1  0.139316  -0.007638  3.692046  -0.008  0.109491  -0.00189  3.941947  -0.003  0.118504  -0.003034  3.960221  -0.004  0.04827  0.103824  -0.000899  3.930048  -0.001
C  C87  1  0.99160746  0.10034957  0.69444881  1  0.13952  0.007632  3.692153  0.008  0.109528  0.001889  3.94202  0.003  0.118575  0.003033  3.960306  0.004  0.048173  0.103863  0.000897  3.930142  0.001
S  S88  1  0.48175021  0.03191315  0.13383781  1  0.038788  0.000911  2.51464  0.002  0.036616  0.001321  2.866401  0.002  0.028287  0.000625  2.868204  0.002  0.037096  0.041534  0.001789  2.866264  0.003
S  S89  1  0.51828546  0.53192452  0.36616727  1  0.03872  -0.000912  2.513917  -0.002  0.036518  -0.001322  2.865641  -0.002  0.028182  -0.000626  2.867457  -0.002  0.037086  0.04144  -0.00179  2.865495  -0.003
S  S90  1  0.51825931  0.96808485  0.86615673  1  0.038795  -0.000916  2.514321  -0.002  0.036615  -0.001324  2.866036  -0.002  0.028283  -0.000628  2.867827  -0.002  0.03712  0.041545  -0.001792  2.865913  -0.003
S  S91  1  0.48171860  0.46808303  0.63384027  1  0.038719  0.000912  2.514295  0.002  0.036567  0.001321  2.866089  0.002  0.028255  0.000624  2.867864  0.002  0.037103  0.041502  0.001788  2.865974  0.003
S  S92  1  0.78153075  0.13031306  0.22938528  1  -0.041856  -0.001417  2.427844  -0.003  -0.037124  -0.003409  2.77226  -0.005  -0.041279  -0.002446  2.768331  -0.004  0.011567  -0.034835  -0.004113  2.775697  -0.005
S  S93  1  0.21848818  0.63031371  0.27062655  1  -0.041914  0.001416  2.428256  0.003  -0.037253  0.003407  2.772639  0.005  -0.041399  0.002443  2.7687  0.004  0.011513  -0.034963  0.004111  2.776083  0.005
S  S94  1  0.21846713  0.86968812  0.77061232  1  -0.04171  0.001418  2.428083  0.003  -0.037082  0.003412  2.772398  0.005  -0.04124  0.002447  2.768458  0.004  0.011591  -0.034779  0.004116  2.775848  0.005
S  S95  1  0.78151363  0.36969145  0.72938433  1  -0.041846  -0.001418  2.4282  -0.003  -0.037128  -0.003411  2.77251  -0.005  -0.041292  -0.002447  2.768577  -0.004  0.011619  -0.03482  -0.004117  2.775986  -0.005
Br  Br96  1  0.12199294  0.90521285  0.07372559  1  -0.450921  0.140621  1.043013  0.136  -0.445063  0.100883  1.359899  0.103  -0.480394  0.085944  1.33716  0.09  -0.244017  -0.422363  0.100468  1.376294  0.101
Br  Br97  1  0.87802994  0.40522113  0.42628704  1  -0.450809  -0.140617  1.043072  -0.136  -0.445031  -0.100875  1.359969  -0.103  -0.480374  -0.085935  1.337239  -0.09  -0.243994  -0.422339  -0.10046  1.376381  -0.101
Br  Br98  1  0.87801751  0.09476205  0.92626119  1  -0.450915  -0.140598  1.043088  -0.136  -0.445065  -0.10087  1.360021  -0.103  -0.48041  -0.085927  1.33729  -0.09  -0.243988  -0.422368  -0.100467  1.376403  -0.101
Br  Br99  1  0.12196030  0.59475537  0.57372905  1  -0.450819  0.140615  1.043123  0.136  -0.445022  0.10087  1.360015  0.103  -0.480367  0.085934  1.337295  0.09  -0.24398  -0.422337  0.100442  1.37642  0.101
Br  Br100  1  0.45831156  0.90247281  0.37821397  1  -0.473781  0.16496  0.918762  0.156  -0.472073  0.111398  1.201336  0.11  -0.504419  0.093199  1.179575  0.095  -0.283107  -0.454046  0.114181  1.216953  0.111
Br  Br101  1  0.54171691  0.40244740  0.12179136  1  -0.473847  -0.164933  0.918797  -0.156  -0.47207  -0.111329  1.201369  -0.11  -0.504425  -0.093192  1.179618  -0.095  -0.283116  -0.454057  -0.114201  1.216994  -0.111
Br  Br102  1  0.54167857  0.09752120  0.62179853  1  -0.473713  -0.164957  0.918788  -0.156  -0.472019  -0.111404  1.201377  -0.11  -0.504388  -0.093202  1.179639  -0.095  -0.283101  -0.454005  -0.114189  1.21701  -0.111
Br  Br103  1  0.45830674  0.59752272  0.87820467  1  -0.473815  0.164935  0.918754  0.156  -0.472023  0.111406  1.201315  0.11  -0.504406  0.093215  1.179605  0.095  -0.283099  -0.45401  0.114183  1.216937  0.111
N  N104  1  0.47935923  0.82515448  0.16017745  1  -0.329178  0.069061  3.370555  0.086  -0.265426  0.053866  3.645699  0.07  -0.297453  0.048251  3.669095  0.065  -0.357706  -0.247083  0.053321  3.63226  0.068
N  N105  1  0.52066656  0.32516205  0.33982567  1  -0.329032  -0.069053  3.369905  -0.086  -0.265195  -0.053871  3.644979  -0.07  -0.297234  -0.048256  3.668392  -0.065  -0.357566  -0.246848  -0.053326  3.631505  -0.068
N  N106  1  0.52063888  0.17484910  0.83982732  1  -0.329045  -0.069039  3.370772  -0.086  -0.265201  -0.053867  3.645835  -0.07  -0.297242  -0.048248  3.669262  -0.065  -0.357571  -0.246863  -0.053326  3.632397  -0.068
N  N107  1  0.47933032  0.67484550  0.66017754  1  -0.32897  0.069046  3.370299  0.086  -0.265022  0.053867  3.645358  0.07  -0.297064  0.048251  3.66878  0.065  -0.357505  -0.24669  0.053316  3.631932  0.068
N  N108  1  0.89127209  0.32500258  0.21421862  1  -0.310187  -0.070213  3.4006  -0.087  -0.24603  -0.055389  3.670559  -0.072  -0.276839  -0.0498  3.69639  -0.067  -0.350517  -0.228647  -0.05482  3.655716  -0.07
N  N109  1  0.10875139  0.82500338  0.28578568  1  -0.310357  0.070253  3.400679  0.087  -0.246064  0.055399  3.670568  0.072  -0.27691  0.04981  3.696436  0.067  -0.350365  -0.22867  0.05483  3.655716  0.07
N  N110  1  0.10873779  0.67499462  0.78578740  1  -0.310086  0.07022  3.400681  0.087  -0.246004  0.055385  3.670624  0.072  -0.276816  0.0498  3.69646  0.067  -0.350555  -0.228614  0.054811  3.655773  0.07
N  N111  1  0.89124518  0.17500338  0.71420749  1  -0.310391  -0.070243  3.400905  -0.087  -0.246161  -0.055407  3.670863  -0.072  -0.276973  -0.049813  3.696681  -0.067  -0.35045  -0.228769  -0.054839  3.65602  -0.07
