# generated using pymatgen
data_Co3H14C22(N2O3)4
_symmetry_space_group_name_H-M   'P 1'
_cell_length_a   13.47399082
_cell_length_b   13.47444846
_cell_length_c   15.74103408
_cell_angle_alpha   88.98410167
_cell_angle_beta   88.98096700
_cell_angle_gamma   94.49652430
_symmetry_Int_Tables_number   1
_chemical_formula_structural   Co3H14C22(N2O3)4
_chemical_formula_sum   'Co6 H28 C44 N16 O24'
_cell_volume   2848.08589129
_cell_formula_units_Z   2
loop_
 _symmetry_equiv_pos_site_id
 _symmetry_equiv_pos_as_xyz
  1  'x, y, z'
loop_
 _atom_site_type_symbol
 _atom_site_label
 _atom_site_symmetry_multiplicity
 _atom_site_fract_x
 _atom_site_fract_y
 _atom_site_fract_z
 _atom_site_occupancy
 _atom_site_pbe_bader_charge
 _atom_site_pbe_bader_spin_density
 _atom_site_pbe_cm5_charge
 _atom_site_pbe_ddec_charge
 _atom_site_pbe_ddec_spin_density
 _atom_site_pbe_ddec_sum_bond_order
 _atom_site_pbe_magmom
Co  Co0  1  0.41513813  0.38864930  0.51684103  1  1.222331  2.569703  0.70867  0.834659  2.801786  2.64716  2.508
Co  Co1  1  0.61143055  0.58492929  0.98316939  1  1.222241  2.569636  0.708767  0.8349  2.802129  2.646445  2.508
Co  Co2  1  0.58497308  0.61143654  0.48316140  1  1.222375  2.569634  0.708531  0.834545  2.802231  2.646572  2.508
Co  Co3  1  0.38862574  0.41514684  0.01684704  1  1.221903  2.569523  0.708842  0.834579  2.801691  2.647965  2.508
Co  Co4  1  0.69959620  0.30029429  0.24999804  1  1.166235  2.499379  0.68466  0.811231  2.702799  2.495458  2.437
Co  Co5  1  0.30031117  0.69964785  0.74998376  1  1.167027  2.499257  0.684738  0.811345  2.702658  2.496027  2.437
H  H6  1  0.25911055  0.91896874  0.90876674  1  0.615365  9e-06  0.351671  0.392491  -3.6e-05  0.855477  0.0
H  H7  1  0.08102863  0.74084933  0.59123005  1  0.615715  9e-06  0.35179  0.392487  -3.5e-05  0.855428  0.0
H  H8  1  0.74090648  0.08100518  0.09122443  1  0.614441  9e-06  0.351861  0.392633  -3.6e-05  0.855595  0.0
H  H9  1  0.91896486  0.25911753  0.40877096  1  0.615194  9e-06  0.351787  0.392537  -3.6e-05  0.855587  0.0
H  H10  1  0.49440108  0.19938009  0.46139779  1  0.527223  0.000674  0.297082  0.330753  0.000787  0.9902  0.0
H  H11  1  0.80060689  0.50560205  0.03858403  1  0.52704  0.000675  0.297237  0.33088  0.000788  0.990179  0.0
H  H12  1  0.50561393  0.80061910  0.53859251  1  0.527018  0.000674  0.297181  0.330848  0.000787  0.989983  0.0
H  H13  1  0.19939944  0.49435680  0.96141503  1  0.526773  0.00068  0.297114  0.330901  0.000789  0.98999  0.0
H  H14  1  0.57735898  0.17461946  0.37714389  1  0.481365  0.000421  0.309953  0.318808  0.000265  0.960029  0.0
H  H15  1  0.82536760  0.42267266  0.12282493  1  0.48193  0.000422  0.310076  0.319014  0.000266  0.959981  0.0
H  H16  1  0.42264092  0.82537583  0.62284597  1  0.481587  0.000422  0.310055  0.319002  0.000266  0.959883  0.0
H  H17  1  0.17463012  0.57731079  0.87715363  1  0.481032  0.000423  0.310064  0.319189  0.000266  0.959789  0.0
H  H18  1  0.36041156  0.01395364  0.65220371  1  0.156429  0.000279  0.113977  0.12046  3.1e-05  0.994104  0.0
H  H19  1  0.98604798  0.63955638  0.84779522  1  0.156814  0.000279  0.114074  0.120539  3.1e-05  0.993934  0.0
H  H20  1  0.63959195  0.98605343  0.34780759  1  0.155996  0.000277  0.114014  0.120603  3.1e-05  0.993731  0.0
H  H21  1  0.01394989  0.36043348  0.15222140  1  0.156698  0.000278  0.11408  0.120586  3.1e-05  0.994017  0.0
H  H22  1  0.32664231  0.04171313  0.92724812  1  0.068058  4.8e-05  0.109168  0.099781  -5.6e-05  1.025784  0.0
H  H23  1  0.95826744  0.67335372  0.57274838  1  0.068267  4.9e-05  0.109175  0.099737  -5.5e-05  1.02575  0.0
H  H24  1  0.67336540  0.95827633  0.07273854  1  0.06793  4.8e-05  0.109161  0.099769  -5.6e-05  1.025612  0.0
H  H25  1  0.04170830  0.32667159  0.42726556  1  0.067858  4.8e-05  0.109109  0.099745  -5.5e-05  1.025796  0.0
H  H26  1  0.39063698  0.29970355  0.76973791  1  0.132331  0.000767  0.117697  0.130649  0.000136  0.988257  0.0
H  H27  1  0.70031546  0.60932447  0.73028156  1  0.132394  0.000766  0.117688  0.130596  0.000136  0.988482  0.0
H  H28  1  0.60934443  0.70032925  0.23027844  1  0.13265  0.000766  0.11776  0.130721  0.000136  0.988389  0.0
H  H29  1  0.29969255  0.39069457  0.26972894  1  0.132322  0.000767  0.117653  0.13073  0.000136  0.988347  0.0
H  H30  1  0.71258032  0.51368506  0.33978641  1  0.127742  0.001694  0.148097  0.116464  0.000475  0.961349  0.001
H  H31  1  0.48628396  0.28745859  0.16021656  1  0.127943  0.001697  0.148105  0.116692  0.000477  0.961235  0.001
H  H32  1  0.28741396  0.48630208  0.66018897  1  0.128037  0.001698  0.148127  0.116626  0.000476  0.961264  0.001
H  H33  1  0.51370798  0.71249981  0.83981949  1  0.128414  0.001693  0.148195  0.116644  0.000475  0.961388  0.001
C  C34  1  0.40188267  0.21046302  0.61678444  1  1.608966  0.005812  0.210772  0.575309  0.00505  4.214295  0.004
C  C35  1  0.78953930  0.59808143  0.88319023  1  1.609001  0.005828  0.210777  0.575673  0.005062  4.214895  0.004
C  C36  1  0.59812796  0.78955782  0.38318853  1  1.609144  0.005812  0.210812  0.57604  0.005051  4.214911  0.004
C  C37  1  0.21046803  0.40191395  0.11680019  1  1.609019  0.00583  0.210788  0.575681  0.005065  4.214294  0.004
C  C38  1  0.37862872  0.16128025  0.70240212  1  -0.063132  0.005498  -0.006103  -0.019843  0.002726  3.937154  0.004
C  C39  1  0.83871893  0.62133322  0.79759295  1  -0.063131  0.005466  -0.006056  -0.020057  0.002708  3.938022  0.004
C  C40  1  0.62136656  0.83874622  0.29758810  1  -0.063102  0.005448  -0.005911  -0.019383  0.002698  3.937779  0.004
C  C41  1  0.16128081  0.37867238  0.20241141  1  -0.062981  0.00546  -0.006152  -0.020044  0.002706  3.937699  0.004
C  C42  1  0.35924377  0.05828415  0.70938602  1  -0.002565  -0.000159  -0.059223  -0.073014  -0.000671  3.890964  0.0
C  C43  1  0.94171738  0.64073156  0.79061010  1  -0.003174  -0.000139  -0.059226  -0.072959  -0.000652  3.890827  0.0
C  C44  1  0.64076182  0.94174166  0.29061109  1  -0.00223  -0.000124  -0.059277  -0.073502  -0.000637  3.89053  0.0
C  C45  1  0.05828536  0.35926364  0.20939689  1  -0.002898  -0.000114  -0.059347  -0.073265  -0.000627  3.891068  0.0
C  C46  1  0.33652206  0.01356263  0.78954056  1  -0.030041  0.005636  -0.029321  -0.09589  0.002656  4.095611  0.005
C  C47  1  0.98643491  0.66347520  0.71046312  1  -0.030246  0.005617  -0.029286  -0.095856  0.002645  4.095728  0.005
C  C48  1  0.66348337  0.98643792  0.21045110  1  -0.030378  0.005601  -0.029234  -0.095398  0.002635  4.095437  0.005
C  C49  1  0.01356752  0.33653784  0.28954496  1  -0.029873  0.005605  -0.029211  -0.095353  0.002641  4.095523  0.005
C  C50  1  0.31157915  0.90611722  0.79616535  1  1.430127  -0.007825  0.247286  0.588464  -0.009774  4.063157  -0.006
C  C51  1  0.09387701  0.68841074  0.70382199  1  1.430173  -0.007816  0.247258  0.588245  -0.009764  4.063466  -0.006
C  C52  1  0.68842750  0.09386636  0.20381058  1  1.430875  -0.00782  0.247242  0.588279  -0.009768  4.063449  -0.006
C  C53  1  0.90612100  0.31160228  0.29618168  1  1.430234  -0.007774  0.247158  0.587979  -0.009715  4.063761  -0.006
C  C54  1  0.33758815  0.07217002  0.86251979  1  -0.017844  0.00013  -0.072161  -0.117193  -0.000484  3.963336  0.0
C  C55  1  0.92782275  0.66239741  0.63748351  1  -0.017422  0.000148  -0.072329  -0.117249  -0.000467  3.963683  0.0
C  C56  1  0.66241753  0.92782309  0.13747321  1  -0.017789  0.000156  -0.072217  -0.117315  -0.00046  3.963354  0.0
C  C57  1  0.07216710  0.33761691  0.36253103  1  -0.017552  0.000171  -0.072322  -0.11738  -0.000446  3.963616  0.0
C  C58  1  0.35806001  0.17489918  0.85573598  1  -0.052601  0.005381  -0.007557  -0.007077  0.002712  3.945211  0.004
C  C59  1  0.82510920  0.64188973  0.64428217  1  -0.054098  0.005347  -0.007266  -0.006904  0.002693  3.946009  0.004
C  C60  1  0.64191530  0.82510759  0.14426926  1  -0.053887  0.005329  -0.007387  -0.007047  0.002684  3.945831  0.004
C  C61  1  0.17489022  0.35812392  0.35573864  1  -0.039442  0.005355  -0.007163  -0.006993  0.0027  3.945406  0.004
C  C62  1  0.36261143  0.23525551  0.93558087  1  1.600288  0.004686  0.199502  0.565471  0.004172  4.233632  0.003
C  C63  1  0.76475482  0.63735426  0.56446701  1  1.601317  0.004681  0.199315  0.565244  0.004171  4.234138  0.003
C  C64  1  0.63735921  0.76472935  0.06446148  1  1.600722  0.004689  0.199639  0.565664  0.004167  4.233994  0.003
C  C65  1  0.23525523  0.36265484  0.43558297  1  1.600616  0.004682  0.199543  0.56537  0.004167  4.233466  0.003
C  C66  1  0.37647911  0.21921806  0.77543138  1  0.013224  -0.000748  -0.04976  -0.055922  -0.001391  3.834207  -0.001
C  C67  1  0.78078936  0.62347673  0.72458224  1  0.01387  -0.000726  -0.049872  -0.055853  -0.00137  3.834769  -0.001
C  C68  1  0.62349207  0.78080501  0.22457564  1  0.013947  -0.000706  -0.049903  -0.056197  -0.001349  3.834714  -0.001
C  C69  1  0.21921080  0.37653623  0.27543221  1  -0.000443  -0.000705  -0.049841  -0.056041  -0.001351  3.834586  -0.001
C  C70  1  0.66044528  0.45866854  0.37097337  1  1.00737  0.007237  0.147152  0.16229  0.005663  3.991351  0.007
C  C71  1  0.54130088  0.33958627  0.12901562  1  1.008573  0.007177  0.147162  0.161843  0.005633  3.991689  0.007
C  C72  1  0.33955395  0.54133867  0.62901383  1  1.007426  0.007121  0.147184  0.162027  0.00559  3.991458  0.007
C  C73  1  0.45866779  0.66039814  0.87098482  1  1.007588  0.007265  0.147371  0.162345  0.005685  3.991773  0.007
C  C74  1  0.57784764  0.32028556  0.40825528  1  1.507938  0.026204  0.332374  0.551555  0.016446  4.093485  0.022
C  C75  1  0.67969481  0.42215038  0.09172246  1  1.508175  0.026224  0.332558  0.55143  0.01646  4.093887  0.022
C  C76  1  0.42214362  0.67971267  0.59172447  1  1.508929  0.026227  0.332385  0.551066  0.016467  4.093623  0.022
C  C77  1  0.32030633  0.57781749  0.90825559  1  1.508378  0.026239  0.332432  0.551683  0.016471  4.09245  0.022
N  N78  1  0.54538842  0.39197026  0.45805000  1  -0.768583  0.080759  -0.286355  -0.346686  0.042107  3.470948  0.052
N  N79  1  0.60803363  0.45461603  0.04191973  1  -0.768722  0.080695  -0.286199  -0.346499  0.042076  3.470091  0.052
N  N80  1  0.45464950  0.60805911  0.54192134  1  -0.769315  0.080696  -0.286165  -0.3464  0.042051  3.470043  0.052
N  N81  1  0.39196460  0.54534209  0.95806416  1  -0.769272  0.080794  -0.286453  -0.34651  0.042121  3.470715  0.052
N  N82  1  0.65052463  0.35989460  0.35221308  1  -1.205649  0.097118  -0.390508  -0.472882  0.049966  3.563029  0.06
N  N83  1  0.64007555  0.34949347  0.14778284  1  -1.205859  0.097112  -0.390222  -0.472449  0.049958  3.562673  0.06
N  N84  1  0.34945187  0.64010633  0.64778013  1  -1.20636  0.097176  -0.390475  -0.472565  0.049987  3.562762  0.06
N  N85  1  0.35990254  0.65049572  0.85219078  1  -1.205537  0.097063  -0.390477  -0.472991  0.049941  3.562001  0.06
N  N86  1  0.59910150  0.48017861  0.43317889  1  -0.788158  0.093165  -0.267341  -0.210764  0.048384  3.636557  0.067
N  N87  1  0.51981376  0.40092505  0.06679854  1  -0.789362  0.093279  -0.267744  -0.210868  0.048447  3.637139  0.067
N  N88  1  0.40092315  0.51986464  0.56680451  1  -0.788614  0.093373  -0.267499  -0.210795  0.048494  3.637035  0.067
N  N89  1  0.48016674  0.59905736  0.93319037  1  -0.78936  0.093213  -0.267664  -0.2112  0.048401  3.637045  0.067
N  N90  1  0.54239341  0.22432974  0.41203839  1  -1.317946  0.027623  -0.570853  -0.655017  0.013423  3.288315  0.017
N  N91  1  0.77564190  0.45762743  0.08794541  1  -1.317977  0.027648  -0.57138  -0.655461  0.013437  3.288886  0.017
N  N92  1  0.45761108  0.77565666  0.58795469  1  -1.317851  0.02768  -0.57109  -0.655127  0.013452  3.288512  0.018
N  N93  1  0.22435768  0.54233896  0.91203013  1  -1.316968  0.027678  -0.571235  -0.655808  0.013455  3.287879  0.018
O  O94  1  0.40167767  0.30661309  0.61755832  1  -1.139659  0.104295  -0.328063  -0.558191  0.052878  2.400902  0.077
O  O95  1  0.69339586  0.59831801  0.88242778  1  -1.13967  0.104243  -0.328076  -0.558185  0.052853  2.401169  0.077
O  O96  1  0.59836188  0.69341923  0.38241997  1  -1.139512  0.104208  -0.327998  -0.558434  0.052842  2.401534  0.077
O  O97  1  0.30661693  0.40169371  0.11757386  1  -1.139805  0.104335  -0.327888  -0.558065  0.052893  2.401059  0.077
O  O98  1  0.41932985  0.15886343  0.55374426  1  -1.168994  0.015016  -0.316214  -0.54375  0.006886  2.110996  0.011
O  O99  1  0.84112303  0.58061743  0.94622339  1  -1.168563  0.01505  -0.316246  -0.543969  0.006903  2.111575  0.011
O  O100  1  0.58069567  0.84114786  0.44623691  1  -1.168652  0.01504  -0.316369  -0.544254  0.006899  2.111011  0.011
O  O101  1  0.15888816  0.41936768  0.05375375  1  -1.168778  0.015039  -0.316347  -0.544072  0.006895  2.111185  0.011
O  O102  1  0.36261978  0.19324794  0.00658828  1  -1.15479  0.020823  -0.336556  -0.553206  0.010009  2.040591  0.016
O  O103  1  0.80672886  0.63734841  0.49344397  1  -1.15477  0.020913  -0.336532  -0.553223  0.010057  2.040694  0.016
O  O104  1  0.63735992  0.80669254  0.99343664  1  -1.155159  0.020892  -0.336575  -0.553254  0.010044  2.040842  0.016
O  O105  1  0.19324517  0.36267596  0.50659286  1  -1.155121  0.020836  -0.336451  -0.552904  0.010016  2.040625  0.016
O  O106  1  0.36715023  0.33111283  0.92137943  1  -1.124192  0.118912  -0.333306  -0.550852  0.060354  2.353428  0.09
O  O107  1  0.66890151  0.63282406  0.57868382  1  -1.125322  0.118868  -0.333163  -0.550554  0.060329  2.354123  0.09
O  O108  1  0.63280869  0.66887693  0.07868586  1  -1.124279  0.118835  -0.333502  -0.551024  0.060321  2.353886  0.09
O  O109  1  0.33111823  0.36717543  0.42137378  1  -1.124166  0.118892  -0.333456  -0.550966  0.06035  2.353541  0.09
O  O110  1  0.32672652  0.84725696  0.73739491  1  -1.14276  0.06429  -0.272998  -0.481166  0.032903  2.392678  0.05
O  O111  1  0.15272713  0.67327423  0.76259069  1  -1.142583  0.064333  -0.272982  -0.48098  0.032914  2.393161  0.05
O  O112  1  0.67325253  0.15271361  0.26258398  1  -1.142831  0.064324  -0.273127  -0.481289  0.032912  2.392819  0.05
O  O113  1  0.84727273  0.32674473  0.23741672  1  -1.142342  0.064215  -0.272894  -0.480912  0.032863  2.392116  0.05
O  O114  1  0.26930956  0.86644169  0.86804232  1  -1.104995  0.00286  -0.309545  -0.45153  0.000967  2.25123  0.002
O  O115  1  0.13356797  0.73067700  0.63194369  1  -1.105535  0.002866  -0.309627  -0.451387  0.00097  2.251037  0.002
O  O116  1  0.73069945  0.13354413  0.13193610  1  -1.104658  0.00286  -0.309544  -0.451424  0.000967  2.251653  0.002
O  O117  1  0.86644183  0.26931166  0.36805375  1  -1.105076  0.002861  -0.309628  -0.451449  0.000968  2.251396  0.002
