# generated using pymatgen
data_H24Rh2C33(NO5)2
_symmetry_space_group_name_H-M   'P 1'
_cell_length_a   9.49522038
_cell_length_b   10.24238409
_cell_length_c   10.73198492
_cell_angle_alpha   72.75276387
_cell_angle_beta   64.74453064
_cell_angle_gamma   63.26821360
_symmetry_Int_Tables_number   1
_chemical_formula_structural   H24Rh2C33(NO5)2
_chemical_formula_sum   'H24 Rh2 C33 N2 O10'
_cell_volume   835.97565054
_cell_formula_units_Z   1
loop_
 _symmetry_equiv_pos_site_id
 _symmetry_equiv_pos_as_xyz
  1  'x, y, z'
loop_
 _atom_site_type_symbol
 _atom_site_label
 _atom_site_symmetry_multiplicity
 _atom_site_fract_x
 _atom_site_fract_y
 _atom_site_fract_z
 _atom_site_occupancy
 _atom_site_pbe_bader_spin_density
 _atom_site_pbe_cm5_charge
 _atom_site_pbe_ddec_charge
 _atom_site_pbe_ddec_spin_density
 _atom_site_pbe_ddec_sum_bond_order
 _atom_site_pbe_magmom
H  H0  1  0.43655446  0.94611052  0.61172854  1  0  0.102245  0.100457  0  1.03581  0
H  H1  1  0.56345427  0.05388439  0.38827522  1  0  0.10227  0.10049  0  1.035789  0
H  H2  1  0.26712040  0.19734369  0.68650862  1  0  0.103518  0.112287  0  1.022822  0
H  H3  1  0.73290185  0.80265229  0.31348979  1  0  0.103495  0.112273  0  1.022603  0
H  H4  1  0.95819423  0.30342904  0.73656268  1  0  0.098567  0.093411  0  1.018089  0
H  H5  1  0.04183143  0.69657800  0.26343967  1  0  0.09853  0.093344  0  1.018127  0
H  H6  1  0.82210747  0.16871156  0.69892582  1  0  0.100685  0.107315  0  1.019557  0
H  H7  1  0.17790677  0.83130872  0.30107607  1  0  0.100718  0.10738  0  1.019316  0
H  H8  1  0.99397683  0.91589076  0.62492127  1  0  0.103257  0.104015  0  1.023186  0
H  H9  1  0.00601951  0.08413062  0.37508140  1  0  0.103227  0.104045  0  1.023089  0
H  H10  1  0.76082760  0.77169748  0.08841981  1  0  0.102345  0.102923  0  1.022473  0
H  H11  1  0.23917517  0.22830068  0.91157499  1  0  0.102337  0.102975  0  1.022508  0
H  H12  1  0.78860363  0.91029800  0.85219022  1  0  0.09835  0.095252  0  1.039079  0
H  H13  1  0.21140271  0.08968908  0.14779896  1  0  0.098309  0.09515  0  1.039185  0
H  H14  1  0.61824424  0.91784894  0.72429564  1  0  0.100568  0.097163  0  1.002412  0
H  H15  1  0.38176347  0.08212936  0.27569927  1  0  0.10052  0.097082  0  1.00247  0
H  H16  1  0.41871296  0.78650810  0.83554756  1  0  0.099468  0.099677  0  1.026284  0
H  H17  1  0.58128559  0.21347798  0.16445600  1  0  0.099492  0.099701  0  1.02617  0
H  H18  1  0.38785139  0.65187243  0.07472760  1  0  0.105067  0.109127  0  1.00355  0
H  H19  1  0.61214849  0.34812140  0.92527883  1  0  0.105074  0.109185  0  1.003524  0
H  H20  1  0.72643020  0.63256017  0.65909598  1  0  0.121311  0.099652  0  1.018017  0
H  H21  1  0.27354907  0.36744132  0.34090198  1  0  0.121367  0.099721  0  1.017962  0
H  H22  1  0.00499249  0.38478730  0.32876691  1  0  0.12655  0.10898  0  0.986735  0
H  H23  1  0.99498823  0.61521634  0.67122336  1  0  0.126575  0.109049  0  0.986734  0
Rh  Rh24  1  0.62539199  0.50764448  0.49553922  1  0  0.652413  0.542242  0  3.796684  0
Rh  Rh25  1  0.37459186  0.49236255  0.50446290  1  0  0.652349  0.542235  0  3.796514  0
C  C26  1  0.22418283  0.91563354  0.61694505  1  0  -0.024542  -0.047224  0  4.006393  0
C  C27  1  0.77581679  0.08437462  0.38305924  1  0  -0.024604  -0.047149  0  4.006448  0
C  C28  1  0.30167339  0.99537013  0.63289249  1  0  -0.087367  -0.100914  0  3.985561  0
C  C29  1  0.69833484  0.00463142  0.36711235  1  0  -0.087347  -0.100789  0  3.985376  0
C  C30  1  0.20658024  0.13492677  0.67528277  1  0  -0.097454  -0.09941  0  4.000953  0
C  C31  1  0.79344149  0.86507035  0.32472109  1  0  -0.097403  -0.099583  0  4.000597  0
C  C32  1  0.03349908  0.19520513  0.70148137  1  0  -0.087835  -0.073816  0  4.009717  0
C  C33  1  0.96651491  0.80480194  0.29852626  1  0  -0.087804  -0.073668  0  4.010092  0
C  C34  1  0.95619166  0.11822026  0.68205496  1  0  -0.095735  -0.094036  0  4.004296  0
C  C35  1  0.04381352  0.88179121  0.31794911  1  0  -0.09579  -0.094144  0  4.004516  0
C  C36  1  0.05130917  0.97841812  0.64013903  1  0  -0.084464  -0.093888  0  3.978038  0
C  C37  1  0.94869226  0.02159118  0.35986986  1  0  -0.084437  -0.09397  0  3.977948  0
C  C38  1  0.32434159  0.76442330  0.57733233  1  0  0.21585  0.539239  0  4.121715  0
C  C39  1  0.67565086  0.23558264  0.42267062  1  0  0.21593  0.539226  0  4.121834  0
C  C40  1  0.57218221  0.70368747  0.09635812  1  0  -0.018799  -0.037709  0  3.989671  0
C  C41  1  0.42781470  0.29631073  0.90364258  1  0  -0.018761  -0.037589  0  3.989584  0
C  C42  1  0.68602030  0.77569672  0.03269551  1  0  -0.080623  -0.085253  0  3.951224  0
C  C43  1  0.31398038  0.22429813  0.96730008  1  0  -0.080689  -0.085493  0  3.951324  0
C  C44  1  0.70158566  0.85299150  0.89968055  1  0  -0.092558  -0.084333  0  4.006465  0
C  C45  1  0.29841971  0.14699783  0.10031301  1  0  -0.092469  -0.084059  0  4.006413  0
C  C46  1  0.60543907  0.85737055  0.82860335  1  0  -0.086985  -0.074723  0  3.999307  0
C  C47  1  0.39456350  0.14261988  0.17139001  1  0  -0.086936  -0.074719  0  3.999579  0
C  C48  1  0.49303951  0.78431328  0.89099656  1  0  -0.096946  -0.096958  0  4.0221  0
C  C49  1  0.50696418  0.21567167  0.10900354  1  0  -0.096962  -0.096886  0  4.022131  0
C  C50  1  0.47558348  0.70849743  0.02473371  1  0  -0.085543  -0.095457  0  3.967816  0
C  C51  1  0.52441527  0.29149637  0.97526942  1  0  -0.085563  -0.09562  0  3.96783  0
C  C52  1  0.55091067  0.62532962  0.24029979  1  0  0.212554  0.532919  0  4.128433  0
C  C53  1  0.44908020  0.37467188  0.75969943  1  0  0.212448  0.532808  0  4.128549  0
C  C54  1  0.84934533  0.57345567  0.58810413  1  0  0.049196  0.025641  0  3.931619  0
C  C55  1  0.15065045  0.42654250  0.41189328  1  0  0.049159  0.0256  0  3.931628  0
C  C56  1  0.00365687  0.43659353  0.40476836  1  0  0.051064  0.031152  0  3.918057  0
C  C57  1  0.99633612  0.56340574  0.59522790  1  0  0.051033  0.03109  0  3.918482  0
C  C58  1  0.00000004  0.99999103  0.99999268  1  0  0.368006  0.705881  0  4.14509  0
N  N59  1  0.85218457  0.51011253  0.49294866  1  0  -0.328401  -0.144134  0  3.578096  0
N  N60  1  0.14779101  0.48989223  0.50704414  1  0  -0.328441  -0.144132  0  3.578424  0
O  O61  1  0.48202617  0.71211920  0.55781297  1  0  -0.299943  -0.448324  0  2.441846  0
O  O62  1  0.51796981  0.28788670  0.44218401  1  0  -0.299987  -0.44838  0  2.441884  0
O  O63  1  0.24548912  0.69713442  0.56577476  1  0  -0.295183  -0.444175  0  2.462339  0
O  O64  1  0.75449787  0.30287050  0.43423983  1  0  -0.295166  -0.4441  0  2.462356  0
O  O65  1  0.65888861  0.60381834  0.29345893  1  0  -0.295745  -0.441979  0  2.428609  0
O  O66  1  0.34110899  0.39618096  0.70654119  1  0  -0.295687  -0.441898  0  2.428679  0
O  O67  1  0.42347227  0.58677215  0.30185597  1  0  -0.294797  -0.444326  0  2.448172  0
O  O68  1  0.57651432  0.41323933  0.69814945  1  0  -0.294763  -0.444272  0  2.448056  0
O  O69  1  0.03090776  0.88655796  0.96923562  1  0  -0.17389  -0.347582  0  2.190086  0
O  O70  1  0.96909653  0.11343681  0.03074747  1  0  -0.174225  -0.347993  0  2.189584  0
