# generated using pymatgen
data_ZnH16(CO)10
_symmetry_space_group_name_H-M   'P 1'
_cell_length_a   7.28446466
_cell_length_b   8.49485028
_cell_length_c   11.30894826
_cell_angle_alpha   96.08673718
_cell_angle_beta   89.99893008
_cell_angle_gamma   89.99989893
_symmetry_Int_Tables_number   1
_chemical_formula_structural   ZnH16(CO)10
_chemical_formula_sum   'Zn2 H32 C20 O20'
_cell_volume   695.85753071
_cell_formula_units_Z   2
loop_
 _symmetry_equiv_pos_site_id
 _symmetry_equiv_pos_as_xyz
  1  'x, y, z'
loop_
 _atom_site_type_symbol
 _atom_site_label
 _atom_site_symmetry_multiplicity
 _atom_site_fract_x
 _atom_site_fract_y
 _atom_site_fract_z
 _atom_site_occupancy
 _atom_site_hle17_bader_spin_density
 _atom_site_hle17_ddec_charge
 _atom_site_hle17_ddec_spin_density
 _atom_site_hle17_ddec_sum_bond_order
 _atom_site_hle17_magmom
 _atom_site_hse06_10hf_bader_spin_density
 _atom_site_hse06_10hf_ddec_charge
 _atom_site_hse06_10hf_ddec_spin_density
 _atom_site_hse06_10hf_ddec_sum_bond_order
 _atom_site_hse06_10hf_magmom
 _atom_site_hse06_bader_spin_density
 _atom_site_hse06_ddec_charge
 _atom_site_hse06_ddec_spin_density
 _atom_site_hse06_ddec_sum_bond_order
 _atom_site_hse06_magmom
 _atom_site_pbe_bader_spin_density
 _atom_site_pbe_cm5_charge
 _atom_site_pbe_ddec_charge
 _atom_site_pbe_ddec_spin_density
 _atom_site_pbe_ddec_sum_bond_order
 _atom_site_pbe_magmom
Zn  Zn0  1  0.49999604  0.50000030  0.49999328  1  0  1.204918  0  1.680514  0  0  1.053368  0  2.123459  0  0  1.098329  0  2.064458  0  0  0.655707  1.021491  0  2.164171  0
Zn  Zn1  1  0.99999487  0.00000141  0.49999700  1  0  1.204867  0  1.680531  0  0  1.05329  0  2.123503  0  0  1.09825  0  2.0645  0  0  0.655659  1.021408  0  2.164214  0
H  H2  1  0.15700900  0.80586001  0.16413050  1  0  0.390697  0  0.806381  0  0  0.378105  0  0.854058  0  0  0.385629  0  0.846652  0  0  0.341791  0.372753  0  0.859455  0
H  H3  1  0.65700869  0.69414151  0.83586828  1  0  0.390772  0  0.806339  0  0  0.378203  0  0.853987  0  0  0.38573  0  0.846577  0  0  0.341825  0.372851  0  0.859385  0
H  H4  1  0.84299268  0.19415021  0.83587358  1  0  0.390667  0  0.806416  0  0  0.37808  0  0.854104  0  0  0.385601  0  0.846695  0  0  0.341756  0.372726  0  0.859507  0
H  H5  1  0.34298888  0.30586161  0.16413438  1  0  0.390713  0  0.806399  0  0  0.378123  0  0.85406  0  0  0.385647  0  0.846652  0  0  0.341812  0.372772  0  0.859456  0
H  H6  1  0.81515145  0.47092349  0.42139163  1  0  0.409488  0  0.91666  0  0  0.372114  0  0.990291  0  0  0.385082  0  0.972183  0  0  0.283321  0.363085  0  1.002858  0
H  H7  1  0.31514585  0.02907413  0.57860676  1  0  0.409561  0  0.916556  0  0  0.372182  0  0.990193  0  0  0.385146  0  0.972091  0  0  0.283348  0.363154  0  1.002759  0
H  H8  1  0.18485023  0.52907725  0.57860997  1  0  0.40953  0  0.916613  0  0  0.372149  0  0.990252  0  0  0.385115  0  0.972146  0  0  0.283333  0.363121  0  1.002818  0
H  H9  1  0.68485034  0.97092541  0.42139387  1  0  0.409557  0  0.916552  0  0  0.372183  0  0.990184  0  0  0.385148  0  0.972081  0  0  0.283349  0.363155  0  1.00275  0
H  H10  1  0.84339589  0.57283617  0.55074060  1  0  0.429483  0  0.812345  0  0  0.409458  0  0.867222  0  0  0.418163  0  0.857638  0  0  0.322341  0.403055  0  0.874504  0
H  H11  1  0.34339868  0.92716471  0.44925147  1  0  0.429545  0  0.812256  0  0  0.409509  0  0.867148  0  0  0.418214  0  0.85756  0  0  0.322338  0.403103  0  0.874436  0
H  H12  1  0.15660442  0.42716571  0.44925667  1  0  0.429552  0  0.812289  0  0  0.409519  0  0.86719  0  0  0.418224  0  0.857598  0  0  0.322352  0.403113  0  0.874479  0
H  H13  1  0.65660300  0.07283953  0.55074509  1  0  0.429535  0  0.812273  0  0  0.409495  0  0.867173  0  0  0.418201  0  0.857582  0  0  0.322313  0.40309  0  0.874459  0
H  H14  1  0.50372869  0.74756679  0.66825425  1  0  0.42232  0  0.875865  0  0  0.390271  0  0.94113  0  0  0.400316  0  0.926438  0  0  0.297717  0.383159  0  0.951523  0
H  H15  1  0.00372014  0.75243642  0.33174827  1  0  0.422298  0  0.87591  0  0  0.3902  0  0.941241  0  0  0.40024  0  0.926556  0  0  0.297682  0.383089  0  0.95163  0
H  H16  1  0.49627437  0.25243752  0.33175027  1  0  0.422244  0  0.875994  0  0  0.390222  0  0.941235  0  0  0.400255  0  0.926555  0  0  0.297688  0.383111  0  0.951626  0
H  H17  1  0.99627467  0.24756666  0.66824996  1  0  0.422246  0  0.875991  0  0  0.390233  0  0.941206  0  0  0.400271  0  0.926523  0  0  0.297711  0.383121  0  0.951598  0
H  H18  1  0.59535808  0.81958159  0.55789213  1  0  0.438453  0  0.86096  0  0  0.408019  0  0.922104  0  0  0.41928  0  0.905692  0  0  0.291505  0.399966  0  0.933855  0
H  H19  1  0.09534375  0.68041894  0.44210732  1  0  0.43842  0  0.860972  0  0  0.408017  0  0.922068  0  0  0.419271  0  0.905661  0  0  0.29154  0.399962  0  0.933819  0
H  H20  1  0.40464360  0.18041085  0.44210708  1  0  0.438488  0  0.860914  0  0  0.408046  0  0.922071  0  0  0.419311  0  0.905651  0  0  0.291509  0.39999  0  0.933825  0
H  H21  1  0.90464283  0.31958649  0.55789021  1  0  0.438424  0  0.861007  0  0  0.407994  0  0.92214  0  0  0.419256  0  0.905728  0  0  0.29147  0.399939  0  0.933893  0
H  H22  1  0.55473742  0.57360379  0.09897197  1  0  0.099353  0  0.954905  0  0  0.111673  0  1.023136  0  0  0.113949  0  1.021486  0  0  0.095214  0.110142  0  1.024115  0
H  H23  1  0.05474361  0.92639209  0.90102232  1  0  0.099323  0  0.954997  0  0  0.111657  0  1.023212  0  0  0.113943  0  1.021552  0  0  0.095183  0.110125  0  1.024191  0
H  H24  1  0.44526700  0.42639332  0.90102141  1  0  0.099357  0  0.954823  0  0  0.111639  0  1.023076  0  0  0.113919  0  1.021436  0  0  0.095165  0.110107  0  1.024054  0
H  H25  1  0.94526356  0.07360624  0.09897380  1  0  0.09935  0  0.954896  0  0  0.111668  0  1.023128  0  0  0.113942  0  1.021483  0  0  0.095201  0.110134  0  1.024106  0
H  H26  1  0.67576240  0.74274732  0.16099856  1  0  0.128832  0  0.952525  0  0  0.139088  0  1.018121  0  0  0.14183  0  1.017229  0  0  0.103738  0.137041  0  1.018866  0
H  H27  1  0.17576387  0.75725414  0.83899999  1  0  0.128849  0  0.952508  0  0  0.139105  0  1.018118  0  0  0.141849  0  1.017217  0  0  0.103739  0.137059  0  1.018863  0
H  H28  1  0.32423653  0.25725218  0.83899676  1  0  0.128856  0  0.952545  0  0  0.139088  0  1.018125  0  0  0.141851  0  1.017223  0  0  0.103741  0.137042  0  1.018865  0
H  H29  1  0.82423780  0.24275134  0.16100285  1  0  0.128861  0  0.952495  0  0  0.139104  0  1.0181  0  0  0.141862  0  1.017189  0  0  0.103759  0.13706  0  1.01884  0
H  H30  1  0.69853248  0.36975497  0.96762255  1  0  0.104626  0  0.976246  0  0  0.115043  0  1.041316  0  0  0.117909  0  1.039914  0  0  0.100747  0.112952  0  1.042346  0
H  H31  1  0.19853286  0.13025131  0.03237701  1  0  0.104668  0  0.976167  0  0  0.115062  0  1.041267  0  0  0.117931  0  1.039859  0  0  0.100733  0.11297  0  1.042295  0
H  H32  1  0.30146646  0.63024460  0.03237985  1  0  0.104615  0  0.97619  0  0  0.115029  0  1.041268  0  0  0.117897  0  1.039863  0  0  0.100719  0.112934  0  1.042294  0
H  H33  1  0.80147569  0.86975653  0.96762512  1  0  0.104693  0  0.976147  0  0  0.115093  0  1.041236  0  0  0.117959  0  1.039835  0  0  0.100717  0.113  0  1.042264  0
C  C34  1  0.68081978  0.55181898  0.26668141  1  0  0.719187  0  3.807813  0  0  0.671536  0  4.111657  0  0  0.705082  0  4.104415  0  0  0.213779  0.648805  0  4.115658  0
C  C35  1  0.18082391  0.94817775  0.73331849  1  0  0.719442  0  3.807313  0  0  0.671612  0  4.111419  0  0  0.705177  0  4.104147  0  0  0.213839  0.648881  0  4.115424  0
C  C36  1  0.31917641  0.44817702  0.73331895  1  0  0.719384  0  3.807455  0  0  0.671635  0  4.111417  0  0  0.705214  0  4.104145  0  0  0.21393  0.648902  0  4.11542  0
C  C37  1  0.81917914  0.05182179  0.26668125  1  0  0.719256  0  3.807619  0  0  0.671493  0  4.111617  0  0  0.705048  0  4.104367  0  0  0.213802  0.64876  0  4.11562  0
C  C38  1  0.68272966  0.61290695  0.14405943  1  0  -0.305873  0  3.691259  0  0  -0.349641  0  3.934974  0  0  -0.355064  0  3.94184  0  0  -0.169641  -0.346069  0  3.930438  0
C  C39  1  0.18273175  0.88709211  0.85593797  1  0  -0.305982  0  3.691234  0  0  -0.349703  0  3.934808  0  0  -0.355137  0  3.941664  0  0  -0.169658  -0.346131  0  3.930267  0
C  C40  1  0.31727064  0.38708789  0.85594350  1  0  -0.306017  0  3.691177  0  0  -0.349646  0  3.934783  0  0  -0.355125  0  3.941684  0  0  -0.16963  -0.34606  0  3.930224  0
C  C41  1  0.81727268  0.11291218  0.14406389  1  0  -0.305894  0  3.691181  0  0  -0.349592  0  3.934807  0  0  -0.355029  0  3.941668  0  0  -0.169631  -0.346009  0  3.930245  0
C  C42  1  0.84484980  0.55883754  0.06856424  1  0  0.047325  0  3.765244  0  0  0.056493  0  4.017408  0  0  0.056528  0  4.039874  0  0  -0.023875  0.056147  0  4.002039  0
C  C43  1  0.34485233  0.94116108  0.93143913  1  0  0.047158  0  3.765272  0  0  0.056504  0  4.01718  0  0  0.056537  0  4.039647  0  0  -0.023881  0.05616  0  4.001807  0
C  C44  1  0.15515326  0.44115142  0.93144267  1  0  0.04732  0  3.765593  0  0  0.056506  0  4.017669  0  0  0.056553  0  4.040149  0  0  -0.023909  0.056154  0  4.002299  0
C  C45  1  0.65515347  0.05884088  0.06856610  1  0  0.047264  0  3.765156  0  0  0.056483  0  4.017306  0  0  0.056518  0  4.039774  0  0  -0.023927  0.056134  0  4.001936  0
C  C46  1  0.83077940  0.42927465  0.98162762  1  0  -0.253042  0  3.782991  0  0  -0.2823  0  4.048067  0  0  -0.286068  0  4.066817  0  0  -0.112771  -0.279171  0  4.034866  0
C  C47  1  0.33078443  0.07072775  0.01838067  1  0  -0.253126  0  3.782856  0  0  -0.282406  0  4.047896  0  0  -0.286177  0  4.06664  0  0  -0.112804  -0.279275  0  4.034687  0
C  C48  1  0.16922227  0.57071550  0.01838027  1  0  -0.253062  0  3.783063  0  0  -0.282331  0  4.048154  0  0  -0.286097  0  4.066889  0  0  -0.112735  -0.279195  0  4.034944  0
C  C49  1  0.66922686  0.92927891  0.98162138  1  0  -0.253139  0  3.782816  0  0  -0.282412  0  4.04789  0  0  -0.286181  0  4.066631  0  0  -0.11269  -0.279276  0  4.034684  0
C  C50  1  0.01847716  0.62925112  0.08515729  1  0  0.256734  0  3.79861  0  0  0.234213  0  4.077883  0  0  0.242878  0  4.094019  0  0  0.06425  0.228071  0  4.067149  0
C  C51  1  0.51848654  0.87075436  0.91483903  1  0  0.256638  0  3.798911  0  0  0.234133  0  4.078058  0  0  0.242807  0  4.094191  0  0  0.064177  0.227989  0  4.067322  0
C  C52  1  0.98152041  0.37075313  0.91484015  1  0  0.256622  0  3.798946  0  0  0.234134  0  4.078159  0  0  0.242785  0  4.094304  0  0  0.06422  0.227988  0  4.067431  0
C  C53  1  0.48152475  0.12925704  0.08516425  1  0  0.256954  0  3.798649  0  0  0.234364  0  4.07796  0  0  0.243034  0  4.094093  0  0  0.064334  0.228222  0  4.067229  0
O  O54  1  0.53791472  0.58138587  0.32986223  1  0  -0.659905  0  1.957397  0  0  -0.600785  0  2.206785  0  0  -0.627546  0  2.193521  0  0  -0.337351  -0.582107  0  2.215422  0
O  O55  1  0.03792349  0.91861131  0.67013943  1  0  -0.659951  0  1.957036  0  0  -0.600805  0  2.206522  0  0  -0.627571  0  2.193251  0  0  -0.337399  -0.58213  0  2.215159  0
O  O56  1  0.46207598  0.41860417  0.67013416  1  0  -0.659919  0  1.957144  0  0  -0.600818  0  2.206596  0  0  -0.627582  0  2.193319  0  0  -0.337449  -0.582145  0  2.215236  0
O  O57  1  0.96208094  0.08137995  0.32986058  1  0  -0.659902  0  1.957286  0  0  -0.600755  0  2.206719  0  0  -0.627518  0  2.193453  0  0  -0.337338  -0.582076  0  2.215356  0
O  O58  1  0.82259099  0.47804837  0.29747947  1  0  -0.620151  0  1.988031  0  0  -0.56066  0  2.202044  0  0  -0.585731  0  2.19206  0  0  -0.323896  -0.543178  0  2.208281  0
O  O59  1  0.32259142  0.02195035  0.70251185  1  0  -0.620301  0  1.987885  0  0  -0.56073  0  2.20196  0  0  -0.58581  0  2.191972  0  0  -0.323934  -0.543249  0  2.208202  0
O  O60  1  0.17740383  0.52194519  0.70251276  1  0  -0.620293  0  1.987894  0  0  -0.560737  0  2.201945  0  0  -0.585823  0  2.191956  0  0  -0.323959  -0.543241  0  2.208154  0
O  O61  1  0.67740752  0.97805148  0.29748011  1  0  -0.62025  0  1.987931  0  0  -0.56069  0  2.201941  0  0  -0.585765  0  2.191957  0  0  -0.323959  -0.543213  0  2.208187  0
O  O62  1  0.03506865  0.75941026  0.16942587  1  0  -0.508022  0  2.151223  0  0  -0.446933  0  2.354151  0  0  -0.464171  0  2.346132  0  0  -0.336546  -0.434964  0  2.359492  0
O  O63  1  0.53506701  0.74058938  0.83058485  1  0  -0.507895  0  2.151284  0  0  -0.446904  0  2.354246  0  0  -0.464159  0  2.346231  0  0  -0.336497  -0.434935  0  2.359591  0
O  O64  1  0.96493578  0.24059288  0.83057944  1  0  -0.50784  0  2.151291  0  0  -0.446825  0  2.354221  0  0  -0.464038  0  2.34619  0  0  -0.336442  -0.434852  0  2.35956  0
O  O65  1  0.46493055  0.25941850  0.16942082  1  0  -0.508047  0  2.151344  0  0  -0.446957  0  2.354298  0  0  -0.464201  0  2.346277  0  0  -0.336557  -0.434988  0  2.359639  0
O  O66  1  0.79256367  0.47241353  0.51537577  1  0  -0.842347  0  1.946439  0  0  -0.773277  0  2.149609  0  0  -0.79663  0  2.118189  0  0  -0.552064  -0.756635  0  2.171479  0
O  O67  1  0.29255667  0.02758178  0.48462096  1  0  -0.842476  0  1.946267  0  0  -0.773384  0  2.149437  0  0  -0.796737  0  2.118014  0  0  -0.552081  -0.756738  0  2.171301  0
O  O68  1  0.20743801  0.52758718  0.48462229  1  0  -0.842471  0  1.946346  0  0  -0.77341  0  2.149525  0  0  -0.796757  0  2.118102  0  0  -0.552107  -0.756769  0  2.171397  0
O  O69  1  0.70743815  0.97241774  0.51537702  1  0  -0.842448  0  1.946361  0  0  -0.773365  0  2.149521  0  0  -0.796717  0  2.118104  0  0  -0.552044  -0.756719  0  2.171386  0
O  O70  1  0.51306078  0.73313412  0.58106445  1  0  -0.859606  0  1.917525  0  0  -0.799087  0  2.125221  0  0  -0.820587  0  2.089944  0  0  -0.586101  -0.783789  0  2.149887  0
O  O71  1  0.01301399  0.76684899  0.41894178  1  0  -0.859491  0  1.917445  0  0  -0.798945  0  2.125184  0  0  -0.820437  0  2.089926  0  0  -0.58606  -0.783645  0  2.149849  0
O  O72  1  0.48696012  0.26685129  0.41894221  1  0  -0.859523  0  1.917496  0  0  -0.799039  0  2.125111  0  0  -0.820529  0  2.089865  0  0  -0.58607  -0.783738  0  2.14978  0
O  O73  1  0.98694651  0.23314110  0.58105903  1  0  -0.859472  0  1.917592  0  0  -0.798998  0  2.125257  0  0  -0.820497  0  2.089993  0  0  -0.58605  -0.783698  0  2.149928  0
