# generated using pymatgen
data_ZnH5C6O2F7
_symmetry_space_group_name_H-M   'P 1'
_cell_length_a   10.00114675
_cell_length_b   10.44587318
_cell_length_c   10.94921833
_cell_angle_alpha   118.49077082
_cell_angle_beta   101.32647453
_cell_angle_gamma   90.00534535
_symmetry_Int_Tables_number   1
_chemical_formula_structural   ZnH5C6O2F7
_chemical_formula_sum   'Zn4 H20 C24 O8 F28'
_cell_volume   979.90864456
_cell_formula_units_Z   4
loop_
 _symmetry_equiv_pos_site_id
 _symmetry_equiv_pos_as_xyz
  1  'x, y, z'
loop_
 _atom_site_type_symbol
 _atom_site_label
 _atom_site_symmetry_multiplicity
 _atom_site_fract_x
 _atom_site_fract_y
 _atom_site_fract_z
 _atom_site_occupancy
 _atom_site_pbe_bader_spin_density
 _atom_site_pbe_cm5_charge
 _atom_site_pbe_ddec_charge
 _atom_site_pbe_ddec_spin_density
 _atom_site_pbe_ddec_sum_bond_order
 _atom_site_pbe_magmom
Zn  Zn0  1  0.91303055  0.90958808  0.06323543  1  0  0.53832  0.68701  0  2.278249  0
Zn  Zn1  1  0.58696590  0.84642401  0.93681533  1  0  0.538224  0.68544  0  2.280151  0
Zn  Zn2  1  0.08696813  0.09041058  0.93676422  1  0  0.538333  0.687009  0  2.278267  0
Zn  Zn3  1  0.41303300  0.15357685  0.06318445  1  0  0.538225  0.685468  0  2.280069  0
H  H4  1  0.92183194  0.69556921  0.10794115  1  0  0.063419  0.108808  0  1.075153  0
H  H5  1  0.57818912  0.58778741  0.89218464  1  0  0.063563  0.108604  0  1.076224  0
H  H6  1  0.07816662  0.30442835  0.89205797  1  0  0.06341  0.108792  0  1.075117  0
H  H7  1  0.42180989  0.41221454  0.10781658  1  0  0.063567  0.108611  0  1.07618  0
H  H8  1  0.84188724  0.63740266  0.92889281  1  0  0.062365  0.107313  0  1.08861  0
H  H9  1  0.65812690  0.70864137  0.07122648  1  0  0.062118  0.106567  0  1.089058  0
H  H10  1  0.15811166  0.36259819  0.07110697  1  0  0.062375  0.107327  0  1.088595  0
H  H11  1  0.34187290  0.29135839  0.92877205  1  0  0.062111  0.106546  0  1.089092  0
H  H12  1  0.07577177  0.66706831  0.87745771  1  0  0.06904  0.100802  0  1.022841  0
H  H13  1  0.42415711  0.78964037  0.12260888  1  0  0.069062  0.100968  0  1.022358  0
H  H14  1  0.92422712  0.33293254  0.12254207  1  0  0.069033  0.100786  0  1.02287  0
H  H15  1  0.57584281  0.21036048  0.87739199  1  0  0.069067  0.100959  0  1.022344  0
H  H16  1  0.07368989  0.54121868  0.94228518  1  0  0.077658  0.116897  0  1.013663  0
H  H17  1  0.42633099  0.59895887  0.05776253  1  0  0.07772  0.117192  0  1.012902  0
H  H18  1  0.92630992  0.45878108  0.05771517  1  0  0.077661  0.1169  0  1.013659  0
H  H19  1  0.57366881  0.40104088  0.94223783  1  0  0.077716  0.117202  0  1.012879  0
H  H20  1  0.15444511  0.72090051  0.05713029  1  0  0.071141  0.099207  0  1.031792  0
H  H21  1  0.34558050  0.66377975  0.94290583  1  0  0.071178  0.099497  0  1.031616  0
H  H22  1  0.84555356  0.27909815  0.94286936  1  0  0.071138  0.099197  0  1.031787  0
H  H23  1  0.65441738  0.33622110  0.05709468  1  0  0.071175  0.099485  0  1.031641  0
C  C24  1  0.93020021  0.70581117  0.01430665  1  0  -0.317607  -0.510476  0  4.048254  0
C  C25  1  0.56981767  0.69161458  0.98581174  1  0  -0.317293  -0.508221  0  4.047871  0
C  C26  1  0.06979756  0.29418858  0.98569334  1  0  -0.317617  -0.510493  0  4.048288  0
C  C27  1  0.43018089  0.30838299  0.01418466  1  0  -0.317285  -0.508204  0  4.047847  0
C  C28  1  0.06526830  0.65662803  0.97049786  1  0  -0.267944  -0.286938  0  4.032168  0
C  C29  1  0.43473755  0.68619493  0.02957843  1  0  -0.268329  -0.288687  0  4.031171  0
C  C30  1  0.93473151  0.34337173  0.02950249  1  0  -0.267934  -0.28691  0  4.032259  0
C  C31  1  0.56526135  0.31380592  0.97042226  1  0  -0.268324  -0.288665  0  4.031161  0
C  C32  1  0.77579614  0.93289791  0.79972883  1  0  0.228606  0.512529  0  4.152531  0
C  C33  1  0.72414141  0.13317986  0.20025503  1  0  0.22922  0.512993  0  4.148668  0
C  C34  1  0.22420367  0.06710184  0.20027153  1  0  0.228618  0.512553  0  4.152464  0
C  C35  1  0.27585851  0.86682099  0.79974493  1  0  0.229171  0.51294  0  4.148659  0
C  C36  1  0.78000663  0.93638093  0.65955745  1  0  0.197067  0.269194  0  3.963307  0
C  C37  1  0.71993207  0.27686944  0.34039296  1  0  0.198168  0.272735  0  3.958065  0
C  C38  1  0.21999420  0.06361882  0.34044400  1  0  0.197055  0.269288  0  3.963073  0
C  C39  1  0.28006683  0.72313141  0.65960591  1  0  0.198172  0.272796  0  3.957933  0
C  C40  1  0.77665770  0.77864271  0.53234350  1  0  0.190359  0.210598  0  4.027421  0
C  C41  1  0.72323113  0.24635324  0.46762157  1  0  0.188823  0.205638  0  4.030498  0
C  C42  1  0.22334324  0.22135814  0.46765755  1  0  0.190348  0.210614  0  4.027405  0
C  C43  1  0.27676969  0.75364652  0.53237714  1  0  0.188814  0.205582  0  4.030505  0
C  C44  1  0.77278512  0.76780816  0.38422872  1  0  0.297469  0.581306  0  4.08852  0
C  C45  1  0.72728377  0.38363297  0.61580477  1  0  0.297121  0.582595  0  4.090149  0
C  C46  1  0.22721683  0.23219269  0.61577252  1  0  0.297437  0.581218  0  4.088642  0
C  C47  1  0.27271694  0.61636570  0.38419342  1  0  0.297149  0.582647  0  4.090085  0
O  O48  1  0.88771707  0.96341984  0.89087995  1  0  -0.284804  -0.460616  0  2.447147  0
O  O49  1  0.61223705  0.07256670  0.10908025  1  0  -0.285114  -0.460294  0  2.445522  0
O  O50  1  0.11228263  0.03657881  0.10911988  1  0  -0.284823  -0.46067  0  2.447186  0
O  O51  1  0.38776163  0.92743196  0.89091940  1  0  -0.285067  -0.460215  0  2.445517  0
O  O52  1  0.65855972  0.89664439  0.80555914  1  0  -0.290175  -0.460699  0  2.451625  0
O  O53  1  0.84136011  0.09103811  0.19443970  1  0  -0.290546  -0.461355  0  2.450106  0
O  O54  1  0.34144020  0.10335646  0.19444082  1  0  -0.290176  -0.460721  0  2.451595  0
O  O55  1  0.15863981  0.90896274  0.80555936  1  0  -0.29054  -0.46136  0  2.450126  0
F  F56  1  0.67032955  0.00114598  0.62681311  1  0  -0.095375  -0.141791  0  1.382038  0
F  F57  1  0.82967413  0.37433407  0.37316016  1  0  -0.096107  -0.143513  0  1.381312  0
F  F58  1  0.32967139  0.99885487  0.37318795  1  0  -0.095388  -0.141829  0  1.381992  0
F  F59  1  0.17032579  0.62566679  0.62683889  1  0  -0.096113  -0.143533  0  1.381334  0
F  F60  1  0.89735068  0.01743534  0.67755922  1  0  -0.0916  -0.146171  0  1.417361  0
F  F61  1  0.60264988  0.33994998  0.32235544  1  0  -0.091527  -0.145026  0  1.414429  0
F  F62  1  0.10264913  0.98256442  0.32244113  1  0  -0.091564  -0.146168  0  1.417339  0
F  F63  1  0.39734992  0.66004978  0.67764400  1  0  -0.091538  -0.145057  0  1.414398  0
F  F64  1  0.89086371  0.72026810  0.56656708  1  0  -0.095406  -0.133181  0  1.400172  0
F  F65  1  0.60897568  0.15383483  0.43346587  1  0  -0.095073  -0.132101  0  1.401896  0
F  F66  1  0.10913610  0.27973165  0.43343419  1  0  -0.095427  -0.133211  0  1.400187  0
F  F67  1  0.39102413  0.84616493  0.56653357  1  0  -0.095065  -0.132081  0  1.401949  0
F  F68  1  0.66328673  0.69431596  0.51619111  1  0  -0.097624  -0.14061  0  1.42036  0
F  F69  1  0.83655326  0.17809453  0.48367460  1  0  -0.097171  -0.139759  0  1.420694  0
F  F70  1  0.33671205  0.30568380  0.48380906  1  0  -0.097623  -0.140632  0  1.420369  0
F  F71  1  0.16344756  0.82190523  0.51632412  1  0  -0.097158  -0.139738  0  1.42069  0
F  F72  1  0.65680452  0.81589627  0.34138987  1  0  -0.083207  -0.166969  0  1.352452  0
F  F73  1  0.84323312  0.47458697  0.65845758  1  0  -0.08327  -0.167576  0  1.352371  0
F  F74  1  0.34319835  0.18410348  0.65861012  1  0  -0.083234  -0.166965  0  1.352413  0
F  F75  1  0.15676759  0.52541169  0.34154152  1  0  -0.083283  -0.167596  0  1.352343  0
F  F76  1  0.77455549  0.62584377  0.28699900  1  0  -0.082369  -0.169725  0  1.339043  0
F  F77  1  0.72579330  0.33884541  0.71302145  1  0  -0.081871  -0.169383  0  1.340526  0
F  F78  1  0.22544715  0.37415379  0.71300177  1  0  -0.082331  -0.169679  0  1.3391  0
F  F79  1  0.27420662  0.66115544  0.28697851  1  0  -0.081887  -0.169415  0  1.340536  0
F  F80  1  0.88218331  0.84732940  0.38898812  1  0  -0.0892  -0.176319  0  1.377858  0
F  F81  1  0.61785778  0.45840394  0.61129851  1  0  -0.089041  -0.1765  0  1.377901  0
F  F82  1  0.11781853  0.15267034  0.61101442  1  0  -0.089155  -0.176274  0  1.377863  0
F  F83  1  0.38214316  0.54159692  0.38870073  1  0  -0.089036  -0.176489  0  1.377891  0
