# generated using pymatgen
data_CoH17C26N2(O2F3)2
_symmetry_space_group_name_H-M   'P 1'
_cell_length_a   7.58959378
_cell_length_b   14.81426292
_cell_length_c   24.13293354
_cell_angle_alpha   102.86694314
_cell_angle_beta   89.99976867
_cell_angle_gamma   90.00023361
_symmetry_Int_Tables_number   1
_chemical_formula_structural   CoH17C26N2(O2F3)2
_chemical_formula_sum   'Co4 H68 C104 N8 O16 F24'
_cell_volume   2645.23487282
_cell_formula_units_Z   4
loop_
 _symmetry_equiv_pos_site_id
 _symmetry_equiv_pos_as_xyz
  1  'x, y, z'
loop_
 _atom_site_type_symbol
 _atom_site_label
 _atom_site_symmetry_multiplicity
 _atom_site_fract_x
 _atom_site_fract_y
 _atom_site_fract_z
 _atom_site_occupancy
 _atom_site_pbe_bader_charge
 _atom_site_pbe_bader_spin_density
 _atom_site_pbe_cm5_charge
 _atom_site_pbe_ddec_charge
 _atom_site_pbe_ddec_spin_density
 _atom_site_pbe_ddec_sum_bond_order
 _atom_site_pbe_magmom
Co  Co0  1  0.88579997  0.55481037  0.51011101  1  1.195701  2.601521  0.613807  0.773251  2.823132  2.681871  2.587
Co  Co1  1  0.88567788  0.44514956  0.98988370  1  1.195753  2.601442  0.613791  0.773425  2.823059  2.681154  2.587
Co  Co2  1  0.11419579  0.44522181  0.48990105  1  1.189387  2.600857  0.613926  0.77364  2.823171  2.683191  2.587
Co  Co3  1  0.11408071  0.55473713  0.01009134  1  1.190077  2.600918  0.61395  0.773491  2.823239  2.683687  2.587
H  H4  1  0.50688136  0.58832175  0.49648749  1  0.145813  0.001507  0.11378  0.089227  0.000535  1.022785  0.001
H  H5  1  0.50683902  0.41168144  0.00350125  1  0.14615  0.001509  0.113779  0.089209  0.000536  1.022769  0.001
H  H6  1  0.49311835  0.41170703  0.50353530  1  0.145341  0.001505  0.113736  0.089263  0.000534  1.022941  0.001
H  H7  1  0.49306583  0.58828822  0.99646136  1  0.145691  0.001504  0.113764  0.089195  0.000533  1.022902  0.001
H  H8  1  0.31499577  0.65518751  0.20233799  1  0.085146  0.00015  0.1047  0.115247  6.6e-05  0.99188  0.0
H  H9  1  0.31502555  0.34483759  0.29766970  1  0.085483  0.00015  0.104741  0.115318  6.6e-05  0.991708  0.0
H  H10  1  0.68495651  0.34481564  0.79767886  1  0.085909  0.000149  0.104661  0.115047  6.5e-05  0.99177  0.0
H  H11  1  0.68498470  0.65519796  0.70232376  1  0.085525  0.00015  0.104687  0.115134  6.5e-05  0.991965  0.0
H  H12  1  0.07253995  0.80300360  0.31793829  1  0.089971  0.000115  0.0943  0.098039  6.1e-05  1.042631  0.0
H  H13  1  0.07253183  0.19699482  0.18207398  1  0.090039  0.000115  0.09429  0.09798  6.1e-05  1.042839  0.0
H  H14  1  0.92751510  0.19704232  0.68205283  1  0.089894  0.000115  0.094298  0.098142  6.1e-05  1.042542  0.0
H  H15  1  0.92749687  0.80294610  0.81795188  1  0.090242  0.000115  0.094242  0.098101  6.1e-05  1.042717  0.0
H  H16  1  0.66306581  0.91572334  0.56511406  1  0.084731  0.000825  0.100054  0.11763  0.000323  1.039492  0.0
H  H17  1  0.66304565  0.08427710  0.93489303  1  0.084801  0.000826  0.100022  0.117612  0.000324  1.039501  0.0
H  H18  1  0.33698265  0.08430325  0.43488606  1  0.085484  0.000823  0.100028  0.117479  0.000323  1.039506  0.0
H  H19  1  0.33697514  0.91569418  0.06511704  1  0.08553  0.000823  0.100034  0.117394  0.000323  1.039566  0.0
H  H20  1  0.77136979  0.83283987  0.24112033  1  0.072589  0.000125  0.093655  0.101585  6.9e-05  1.03394  0.0
H  H21  1  0.77137231  0.16716380  0.25887352  1  0.072632  0.000125  0.093638  0.101517  6.9e-05  1.033865  0.0
H  H22  1  0.22871556  0.16708552  0.75884583  1  0.071939  0.000125  0.09367  0.101659  6.9e-05  1.03377  0.0
H  H23  1  0.22871436  0.83290650  0.74115114  1  0.072092  0.000125  0.09368  0.101653  6.9e-05  1.033775  0.0
H  H24  1  0.92583933  0.73609833  0.15980591  1  0.107294  0.000306  0.101899  0.110031  0.00017  1.031336  0.0
H  H25  1  0.92587188  0.26389729  0.34018500  1  0.107071  0.000305  0.101834  0.10999  0.00017  1.031311  0.0
H  H26  1  0.07412085  0.26379865  0.84015104  1  0.110135  0.000306  0.101821  0.109965  0.000171  1.030954  0.0
H  H27  1  0.07414233  0.73618481  0.65984581  1  0.110316  0.000306  0.101843  0.109919  0.000171  1.031057  0.0
H  H28  1  0.46637924  0.57394412  0.37758499  1  0.091357  0.000385  0.109709  0.113865  0.000195  1.015015  0.0
H  H29  1  0.46632231  0.42604998  0.12239968  1  0.091413  0.000384  0.10969  0.113796  0.000195  1.015151  0.0
H  H30  1  0.53355854  0.42610063  0.62244991  1  0.092893  0.000385  0.109663  0.11352  0.000195  1.015206  0.0
H  H31  1  0.53351006  0.57389606  0.87754483  1  0.092871  0.000385  0.10965  0.113516  0.000195  1.015226  0.0
H  H32  1  0.11761858  0.87821772  0.60118178  1  0.088042  -4e-06  0.111775  0.09321  -2.1e-05  0.973605  0.0
H  H33  1  0.11760709  0.12179559  0.89882028  1  0.087975  -4e-06  0.111757  0.093216  -2.1e-05  0.973719  0.0
H  H34  1  0.88242197  0.12180680  0.39882055  1  0.088141  -4e-06  0.111747  0.093286  -2.1e-05  0.973717  0.0
H  H35  1  0.88241107  0.87820887  0.10118183  1  0.088116  -4e-06  0.111762  0.093282  -2.1e-05  0.973649  0.0
H  H36  1  0.90478329  0.92126259  0.62082815  1  0.047977  0.00028  0.097493  0.07616  0.000107  0.992167  0.0
H  H37  1  0.90477433  0.07874515  0.87917298  1  0.048251  0.000281  0.097489  0.076162  0.000107  0.992209  0.0
H  H38  1  0.09526385  0.07877024  0.37917447  1  0.048179  0.00028  0.097565  0.076246  0.000107  0.992054  0.0
H  H39  1  0.09526358  0.92123437  0.12082369  1  0.048191  0.000279  0.09758  0.076273  0.000106  0.992124  0.0
H  H40  1  0.46520558  0.56549020  0.11738169  1  0.138256  0.000487  0.106816  0.113971  0.000264  1.042789  0.0
H  H41  1  0.46527055  0.43452477  0.38262402  1  0.138058  0.000487  0.106878  0.113833  0.000264  1.043048  0.0
H  H42  1  0.53463207  0.43448307  0.88261207  1  0.138588  0.000488  0.106821  0.113624  0.000265  1.043293  0.0
H  H43  1  0.53468172  0.56552195  0.61738876  1  0.138728  0.000487  0.106825  0.113715  0.000265  1.043191  0.0
H  H44  1  0.02740756  0.82909380  0.46857597  1  0.075718  4.1e-05  0.09813  0.101155  1.8e-05  1.032056  0.0
H  H45  1  0.02740774  0.17091347  0.03142553  1  0.075648  4.1e-05  0.098125  0.101219  1.9e-05  1.03222  0.0
H  H46  1  0.97265144  0.17092933  0.53142534  1  0.07516  4.1e-05  0.09816  0.101362  1.8e-05  1.032158  0.0
H  H47  1  0.97264335  0.82907644  0.96857503  1  0.075409  4.1e-05  0.098135  0.101232  1.8e-05  1.032069  0.0
H  H48  1  0.96078828  0.70587398  0.38069800  1  0.118959  0.000339  0.109937  0.11916  0.000181  0.986091  0.0
H  H49  1  0.96074352  0.29411003  0.11930996  1  0.118685  0.000339  0.11004  0.119338  0.000181  0.98641  0.0
H  H50  1  0.03919298  0.29420660  0.61930526  1  0.119383  0.000339  0.10996  0.119171  0.000181  0.986136  0.0
H  H51  1  0.03916263  0.70577337  0.88069737  1  0.119062  0.000339  0.110017  0.119084  0.000181  0.9862  0.0
H  H52  1  0.95437162  0.07235796  0.60193385  1  0.040365  2e-05  0.089909  0.090499  9e-06  1.039519  0.0
H  H53  1  0.95436390  0.92764986  0.89806724  1  0.040526  1.9e-05  0.089894  0.090461  9e-06  1.039598  0.0
H  H54  1  0.04569396  0.92766725  0.39806899  1  0.040797  2e-05  0.089803  0.090527  9e-06  1.039592  0.0
H  H55  1  0.04570300  0.07233797  0.10193139  1  0.040743  1.9e-05  0.089742  0.090434  9e-06  1.039578  0.0
H  H56  1  0.27197331  0.70784986  0.50175398  1  0.040813  0.000486  0.097447  0.107107  6.8e-05  1.047761  0.0
H  H57  1  0.27193950  0.29215259  0.99823606  1  0.04068  0.000486  0.097438  0.107042  6.8e-05  1.047886  0.0
H  H58  1  0.72805933  0.29219131  0.49825557  1  0.040798  0.000486  0.097481  0.107041  6.8e-05  1.047838  0.0
H  H59  1  0.72803122  0.70779777  0.00174135  1  0.041654  0.000485  0.097512  0.106851  6.9e-05  1.047873  0.0
H  H60  1  0.35481087  0.87570863  0.53581597  1  0.082439  7.6e-05  0.102897  0.098906  1.8e-05  1.007943  0.0
H  H61  1  0.35478670  0.12429401  0.96418352  1  0.082314  7.6e-05  0.102853  0.098886  1.8e-05  1.007913  0.0
H  H62  1  0.64524549  0.12432834  0.46418431  1  0.082464  7.6e-05  0.102822  0.098879  1.9e-05  1.007776  0.0
H  H63  1  0.64523673  0.87566132  0.03581942  1  0.082771  7.6e-05  0.102844  0.098933  1.8e-05  1.007832  0.0
H  H64  1  0.57935313  0.66882156  0.31315922  1  0.097181  0.000122  0.103965  0.111772  4.8e-05  0.996253  0.0
H  H65  1  0.57932889  0.33119146  0.18683242  1  0.097339  0.000122  0.103922  0.111788  4.9e-05  0.996238  0.0
H  H66  1  0.42063471  0.33117122  0.68685831  1  0.096952  0.000122  0.103898  0.111802  4.9e-05  0.996161  0.0
H  H67  1  0.42059704  0.66883083  0.81313936  1  0.096627  0.000122  0.103975  0.111872  4.8e-05  0.996033  0.0
H  H68  1  0.99700523  0.73652434  0.56594967  1  0.51069  7.6e-05  0.303907  0.266093  6e-06  1.029801  0.0
H  H69  1  0.99697728  0.26348217  0.93405077  1  0.511337  7.5e-05  0.304005  0.266192  6e-06  1.029731  0.0
H  H70  1  0.00301424  0.26350165  0.43406943  1  0.510694  7.6e-05  0.304026  0.266003  6e-06  1.029599  0.0
H  H71  1  0.00298158  0.73650348  0.06592726  1  0.510673  7.7e-05  0.304005  0.266015  6e-06  1.029615  0.0
C  C72  1  0.42175919  0.80784942  0.27717262  1  0.064508  -4.7e-05  -0.010803  -0.274218  -0.000278  3.859955  0.0
C  C73  1  0.42175445  0.19216546  0.22283148  1  0.06644  -4.7e-05  -0.010798  -0.273919  -0.000277  3.859295  0.0
C  C74  1  0.57830508  0.19214393  0.72282343  1  0.062809  -4.7e-05  -0.011104  -0.274018  -0.000277  3.859606  0.0
C  C75  1  0.57830455  0.80786118  0.77717901  1  0.06234  -4.7e-05  -0.011143  -0.273807  -0.000277  3.859688  0.0
C  C76  1  0.53114589  0.75076908  0.22811056  1  -0.087084  -0.004378  -0.015675  0.086746  -0.004678  3.956124  -0.003
C  C77  1  0.53116338  0.24924874  0.27188883  1  -0.086908  -0.004375  -0.015798  0.086448  -0.004676  3.955724  -0.003
C  C78  1  0.46888412  0.24920905  0.77188468  1  -0.086647  -0.004371  -0.015653  0.086423  -0.004671  3.956617  -0.003
C  C79  1  0.46889562  0.75079861  0.72811244  1  -0.086354  -0.004373  -0.015608  0.086417  -0.004673  3.956524  -0.003
C  C80  1  0.53681991  0.66152716  0.51208393  1  0.426824  -0.000579  0.038056  0.105173  -0.001139  3.977964  0.0
C  C81  1  0.53678133  0.33847507  0.98790905  1  0.426299  -0.000578  0.038073  0.105063  -0.001138  3.97823  0.0
C  C82  1  0.46318638  0.33850921  0.48793450  1  0.427662  -0.000575  0.03787  0.104599  -0.001132  3.978712  0.0
C  C83  1  0.46313933  0.66148219  0.01206473  1  0.427334  -0.000575  0.03764  0.1045  -0.001133  3.978801  0.0
C  C84  1  0.44860253  0.67404836  0.19299122  1  -0.037143  0.001699  -0.088804  -0.12185  0.000705  3.94526  0.001
C  C85  1  0.44864258  0.32597347  0.30701006  1  -0.037448  0.001699  -0.08881  -0.12177  0.000704  3.945087  0.001
C  C86  1  0.55135502  0.32593741  0.80701169  1  -0.037356  0.001697  -0.088685  -0.121249  0.000704  3.944721  0.001
C  C87  1  0.55138480  0.67407248  0.69298895  1  -0.037441  0.001698  -0.088765  -0.121413  0.000704  3.944922  0.001
C  C88  1  0.13845496  0.58303507  0.42557270  1  1.517172  -0.011851  0.214813  0.557292  -0.015606  4.175833  -0.011
C  C89  1  0.13837617  0.41693638  0.07442217  1  1.519201  -0.011847  0.214936  0.557413  -0.0156  4.175226  -0.011
C  C90  1  0.86144198  0.41704560  0.57445047  1  1.516531  -0.011852  0.214345  0.556425  -0.015595  4.176213  -0.011
C  C91  1  0.86138637  0.58293713  0.92554487  1  1.518625  -0.011857  0.214235  0.556219  -0.015602  4.176373  -0.011
C  C92  1  0.33606111  0.74427927  0.31180100  1  0.031797  -0.003802  -0.016506  0.083515  -0.004081  3.958933  -0.002
C  C93  1  0.33604942  0.25572994  0.18820535  1  0.030486  -0.003802  -0.016612  0.083291  -0.004081  3.959147  -0.002
C  C94  1  0.66397549  0.25573212  0.68820412  1  0.032678  -0.0038  -0.016587  0.083172  -0.00408  3.958992  -0.002
C  C95  1  0.66396347  0.74426968  0.81179818  1  0.032878  -0.003805  -0.016581  0.083071  -0.004084  3.958977  -0.002
C  C96  1  0.16068405  0.75306152  0.33024856  1  -0.072051  0.00152  -0.097868  -0.142203  0.000623  3.993517  0.001
C  C97  1  0.16066594  0.24693910  0.16975975  1  -0.071638  0.00152  -0.097729  -0.141869  0.000623  3.99372  0.001
C  C98  1  0.83935519  0.24698373  0.66974787  1  -0.071242  0.00152  -0.097928  -0.142327  0.000623  3.993142  0.001
C  C99  1  0.83933904  0.75300522  0.83025455  1  -0.071236  0.001521  -0.097796  -0.14206  0.000624  3.993116  0.001
C  C100  1  0.28395379  0.86152740  0.24884527  1  1.708529  -0.000213  0.303118  0.678316  -0.000246  3.962525  0.0
C  C101  1  0.28397462  0.13849492  0.25116996  1  1.709933  -0.000213  0.30328  0.678896  -0.000247  3.962141  0.0
C  C102  1  0.71613025  0.13850059  0.75115836  1  1.708701  -0.000213  0.303216  0.678871  -0.000246  3.962178  0.0
C  C103  1  0.71614631  0.86150894  0.74885196  1  1.708486  -0.000213  0.303021  0.678101  -0.000246  3.96279  0.0
C  C104  1  0.80294070  0.58958194  0.08368614  1  1.533843  -0.011512  0.220276  0.566453  -0.015279  4.163196  -0.01
C  C105  1  0.80302086  0.41040658  0.41631102  1  1.53361  -0.011512  0.220158  0.566869  -0.015271  4.163057  -0.01
C  C106  1  0.19687191  0.41032338  0.91627940  1  1.538023  -0.011499  0.220207  0.566797  -0.015257  4.162905  -0.01
C  C107  1  0.19692746  0.58966166  0.58371585  1  1.538703  -0.011508  0.220389  0.567081  -0.015269  4.162912  -0.01
C  C108  1  0.53422371  0.87982945  0.32019850  1  1.715642  -0.000186  0.303416  0.679412  -0.000213  3.963124  0.0
C  C109  1  0.53420710  0.12018769  0.17980244  1  1.71303  -0.000186  0.30344  0.679681  -0.000213  3.962392  0.0
C  C110  1  0.46590644  0.12013616  0.67978262  1  1.717042  -0.000186  0.303284  0.678619  -0.000213  3.963818  0.0
C  C111  1  0.46589538  0.87986806  0.82021819  1  1.717635  -0.000186  0.303343  0.67873  -0.000214  3.963858  0.0
C  C112  1  0.62413073  0.84380703  0.55020990  1  0.003489  0.00271  -0.108125  -0.246661  0.001408  3.961859  0.002
C  C113  1  0.62410963  0.15619401  0.94979194  1  0.003771  0.002711  -0.1082  -0.246705  0.001409  3.962177  0.002
C  C114  1  0.37590192  0.15622442  0.44979295  1  0.003378  0.002705  -0.108051  -0.2462  0.001405  3.962069  0.002
C  C115  1  0.37587954  0.84376823  0.05020821  1  0.002802  0.002703  -0.108003  -0.246077  0.001404  3.961919  0.002
C  C116  1  0.20595575  0.63400306  0.38328365  1  -0.058657  0.010171  -0.014405  -0.030675  0.005441  3.984342  0.008
C  C117  1  0.20590237  0.36598443  0.11671372  1  -0.059378  0.010169  -0.014134  -0.030389  0.00544  3.984768  0.008
C  C118  1  0.79401102  0.36606792  0.61673821  1  -0.054625  0.010167  -0.01443  -0.030386  0.00544  3.984393  0.008
C  C119  1  0.79397085  0.63391609  0.88326028  1  -0.055769  0.010167  -0.014487  -0.030594  0.005439  3.984905  0.008
C  C120  1  0.99188078  0.94393039  0.54027146  1  -0.011606  0.000324  -0.019676  0.068579  0.000165  3.98427  0.0
C  C121  1  0.99187720  0.05607473  0.95972922  1  -0.011581  0.000325  -0.019641  0.068893  0.000166  3.983998  0.0
C  C122  1  0.00815845  0.05609553  0.45973230  1  -0.011243  0.000324  -0.019633  0.068782  0.000165  3.984389  0.0
C  C123  1  0.00816071  0.94391102  0.04026830  1  -0.011006  0.000323  -0.019642  0.06869  0.000165  3.984372  0.0
C  C124  1  0.70324486  0.77350808  0.21543280  1  0.007804  0.001613  -0.099826  -0.141944  0.000651  3.993349  0.001
C  C125  1  0.70326070  0.22649963  0.28456210  1  0.007815  0.001612  -0.099756  -0.141672  0.000651  3.993164  0.001
C  C126  1  0.29679437  0.22642425  0.78453720  1  0.008384  0.001612  -0.099879  -0.142206  0.00065  3.993448  0.001
C  C127  1  0.29680489  0.77357343  0.71546004  1  0.008428  0.001613  -0.099828  -0.142088  0.000651  3.993393  0.001
C  C128  1  0.75008978  0.77223041  0.54706412  1  0.956119  0.001882  0.228487  0.387693  0.000705  4.032441  0.001
C  C129  1  0.75006789  0.22776807  0.95293638  1  0.955811  0.001885  0.228454  0.387563  0.000707  4.032444  0.001
C  C130  1  0.24993365  0.22780662  0.45294694  1  0.956233  0.001883  0.228177  0.387115  0.000707  4.033075  0.001
C  C131  1  0.24991206  0.77218513  0.04705467  1  0.956364  0.001878  0.228134  0.387268  0.000704  4.033103  0.001
C  C132  1  0.79089391  0.71967804  0.16903437  1  -0.070478  -0.002702  -0.086699  -0.084203  -0.003065  3.965504  -0.002
C  C133  1  0.79092802  0.28032427  0.33095637  1  -0.069916  -0.0027  -0.086567  -0.084155  -0.003063  3.965715  -0.002
C  C134  1  0.20907681  0.28023694  0.83092500  1  -0.074566  -0.002697  -0.086365  -0.083531  -0.00306  3.964634  -0.002
C  C135  1  0.20909936  0.71975159  0.66907277  1  -0.074497  -0.002699  -0.086421  -0.083618  -0.003062  3.964958  -0.002
C  C136  1  0.37980967  0.62309866  0.36360506  1  -0.008916  -0.001996  -0.075724  -0.074358  -0.002397  3.948852  -0.001
C  C137  1  0.37975744  0.37689878  0.13638473  1  -0.00845  -0.001996  -0.07586  -0.074412  -0.002397  3.949326  -0.001
C  C138  1  0.62015841  0.37694121  0.63642130  1  -0.010705  -0.001994  -0.075879  -0.074367  -0.002396  3.949106  -0.001
C  C139  1  0.62011973  0.62305012  0.86357757  1  -0.011292  -0.001998  -0.075671  -0.07405  -0.002399  3.949199  -0.001
C  C140  1  0.98457421  0.88486605  0.58433622  1  0.315092  -4e-05  -0.052143  -0.052845  -4.7e-05  3.969797  0.0
C  C141  1  0.98456376  0.11514391  0.91566678  1  0.314935  -4e-05  -0.052163  -0.053044  -4.7e-05  3.969957  0.0
C  C142  1  0.01546766  0.11516539  0.41566663  1  0.314517  -3.9e-05  -0.052182  -0.053232  -4.7e-05  3.969953  0.0
C  C143  1  0.01546230  0.88483909  0.08433410  1  0.31447  -3.9e-05  -0.052229  -0.053256  -4.7e-05  3.970002  0.0
C  C144  1  0.53419877  0.62203613  0.14565165  1  0.045255  -0.002308  -0.076699  -0.073389  -0.002735  3.939614  -0.001
C  C145  1  0.53425708  0.37798169  0.35434898  1  0.045384  -0.002306  -0.076698  -0.073267  -0.002733  3.939955  -0.001
C  C146  1  0.46569421  0.37793643  0.85433746  1  0.045013  -0.002302  -0.076806  -0.073092  -0.002729  3.940444  -0.001
C  C147  1  0.46573604  0.62206710  0.64566367  1  0.044797  -0.002303  -0.076816  -0.073199  -0.002731  3.940196  -0.001
C  C148  1  0.70716999  0.64423614  0.13366405  1  -0.054392  0.010182  -0.016826  -0.033211  0.005433  3.992366  0.008
C  C149  1  0.70722664  0.35577226  0.36632763  1  -0.055695  0.010184  -0.016965  -0.033575  0.005434  3.992786  0.008
C  C150  1  0.29273749  0.35569964  0.86630311  1  -0.05485  0.010181  -0.016869  -0.033826  0.005433  3.993108  0.008
C  C151  1  0.29277175  0.64429250  0.63369463  1  -0.054817  0.010182  -0.016859  -0.033662  0.005433  3.992698  0.008
C  C152  1  0.01605670  0.90417692  0.48249226  1  -0.027863  2.2e-05  -0.095685  -0.126132  3e-06  3.988536  0.0
C  C153  1  0.01605778  0.09582963  0.01750833  1  -0.027886  2.3e-05  -0.095716  -0.126429  3e-06  3.988908  0.0
C  C154  1  0.98399044  0.09584829  0.51750975  1  -0.026962  2.3e-05  -0.095713  -0.126527  3e-06  3.989274  0.0
C  C155  1  0.98398672  0.90415958  0.98248965  1  -0.027467  2.3e-05  -0.095739  -0.126358  3e-06  3.989264  0.0
C  C156  1  0.09633102  0.69816270  0.36555475  1  -0.036013  -0.002313  -0.078693  -0.074808  -0.002651  3.954091  -0.001
C  C157  1  0.09629139  0.30182741  0.13445057  1  -0.036005  -0.002314  -0.078802  -0.075174  -0.002652  3.954712  -0.001
C  C158  1  0.90366606  0.30190611  0.63444941  1  -0.040573  -0.002311  -0.078448  -0.074666  -0.002651  3.953623  -0.001
C  C159  1  0.90363189  0.69807880  0.86555238  1  -0.039372  -0.002314  -0.078653  -0.074763  -0.002654  3.953753  -0.001
C  C160  1  0.97561139  0.04028213  0.55713357  1  -0.082993  6.7e-05  -0.099512  -0.136958  2.3e-05  4.003895  0.0
C  C161  1  0.97560599  0.95972364  0.94286556  1  -0.083137  6.7e-05  -0.099438  -0.136975  2.3e-05  4.004007  0.0
C  C162  1  0.02443707  0.95974100  0.44286733  1  -0.083737  6.7e-05  -0.09923  -0.136954  2.3e-05  4.00391  0.0
C  C163  1  0.02444247  0.04026488  0.05713233  1  -0.083661  6.7e-05  -0.099146  -0.136732  2.3e-05  4.003788  0.0
C  C164  1  0.40607008  0.72795627  0.51464558  1  0.054763  0.004652  -0.119315  -0.19137  0.002275  4.035345  0.003
C  C165  1  0.40603758  0.27204503  0.98534745  1  0.05467  0.00466  -0.119257  -0.191152  0.002279  4.03571  0.003
C  C166  1  0.59395466  0.27208905  0.48536494  1  0.052749  0.004652  -0.118967  -0.190618  0.002274  4.03461  0.003
C  C167  1  0.59391732  0.72789773  0.01463183  1  0.052333  0.004643  -0.118913  -0.190177  0.00227  4.034359  0.003
C  C168  1  0.45236397  0.82105571  0.53396936  1  -0.13012  -0.000676  -0.079189  -0.013055  -0.000864  4.033289  -0.001
C  C169  1  0.45234153  0.17894570  0.96602860  1  -0.13017  -0.000672  -0.079068  -0.012988  -0.000861  4.033505  -0.001
C  C170  1  0.54767131  0.17898266  0.46603443  1  -0.128916  -0.000669  -0.079338  -0.013587  -0.000857  4.033172  -0.001
C  C171  1  0.54765423  0.82100752  0.03396659  1  -0.128769  -0.000673  -0.07921  -0.013639  -0.00086  4.03293  -0.001
C  C172  1  0.44357637  0.67746997  0.32797619  1  -0.055473  0.001528  -0.088923  -0.123348  0.000626  3.961703  0.001
C  C173  1  0.44354434  0.32253799  0.17201866  1  -0.054346  0.001528  -0.088918  -0.123446  0.000626  3.96181  0.001
C  C174  1  0.55641806  0.32254010  0.67204159  1  -0.05563  0.001529  -0.088787  -0.123303  0.000626  3.961384  0.001
C  C175  1  0.55639608  0.67745804  0.82795786  1  -0.055416  0.001531  -0.088948  -0.123474  0.000627  3.961282  0.001
N  N176  1  0.70542970  0.68136171  0.52772799  1  -1.227463  0.050682  -0.323909  -0.3282  0.028319  3.361708  0.041
N  N177  1  0.70539248  0.31863667  0.97226883  1  -1.227068  0.050735  -0.324024  -0.328132  0.028346  3.3619  0.041
N  N178  1  0.29457396  0.31868019  0.47229119  1  -1.227471  0.05061  -0.323667  -0.327673  0.028279  3.361767  0.04
N  N179  1  0.29454135  0.68131785  0.02770873  1  -1.228201  0.050571  -0.323726  -0.327969  0.028254  3.361771  0.04
N  N180  1  0.92020821  0.79179861  0.56285291  1  -1.267719  0.005375  -0.437276  -0.360102  0.002501  3.584223  0.004
N  N181  1  0.92018769  0.20820710  0.93715208  1  -1.268165  0.005392  -0.437171  -0.359881  0.002509  3.584096  0.004
N  N182  1  0.07982575  0.20823424  0.43715386  1  -1.268414  0.005376  -0.437176  -0.359479  0.002501  3.584167  0.004
N  N183  1  0.07980675  0.79176620  0.06284707  1  -1.268241  0.005357  -0.437178  -0.359641  0.002492  3.584028  0.004
O  O184  1  0.99948387  0.61551257  0.45259404  1  -1.128419  0.086818  -0.301661  -0.523846  0.044791  2.414332  0.08
O  O185  1  0.99940517  0.38445209  0.04740794  1  -1.129304  0.086779  -0.301853  -0.524141  0.044765  2.414158  0.079
O  O186  1  0.00041175  0.38458115  0.54740892  1  -1.128131  0.086818  -0.301698  -0.523729  0.04479  2.414639  0.079
O  O187  1  0.00037054  0.61538488  0.95258691  1  -1.129281  0.086877  -0.301518  -0.523439  0.044819  2.414709  0.08
O  O188  1  0.22290447  0.51266263  0.43413549  1  -1.12855  0.089191  -0.29651  -0.502456  0.04671  2.349231  0.078
O  O189  1  0.22281318  0.48731100  0.06585129  1  -1.130041  0.089214  -0.296585  -0.502548  0.046717  2.348648  0.078
O  O190  1  0.77696875  0.48741122  0.56590623  1  -1.128218  0.089146  -0.296159  -0.501669  0.046684  2.348839  0.078
O  O191  1  0.77690720  0.51257621  0.93409108  1  -1.128854  0.089141  -0.29613  -0.501602  0.046681  2.348764  0.078
O  O192  1  0.95437060  0.62020893  0.07291194  1  -1.157533  0.079307  -0.303176  -0.538975  0.041169  2.476584  0.073
O  O193  1  0.95445434  0.37977216  0.42706787  1  -1.157293  0.079264  -0.303249  -0.539398  0.041148  2.476816  0.073
O  O194  1  0.04546309  0.37967201  0.92701923  1  -1.156995  0.079171  -0.303197  -0.53919  0.041094  2.476758  0.073
O  O195  1  0.04552165  0.62031065  0.57296594  1  -1.156822  0.079241  -0.303146  -0.539201  0.041125  2.47696  0.073
O  O196  1  0.73437039  0.51623824  0.05398610  1  -1.131282  0.088519  -0.290917  -0.496675  0.046588  2.367561  0.077
O  O197  1  0.73444417  0.48374053  0.44602310  1  -1.130494  0.088523  -0.290685  -0.496568  0.046596  2.367446  0.077
O  O198  1  0.26538556  0.48367279  0.94601294  1  -1.135193  0.088557  -0.290922  -0.496885  0.04662  2.367515  0.077
O  O199  1  0.26545145  0.51631241  0.55398928  1  -1.135949  0.088551  -0.291072  -0.4971  0.046609  2.367635  0.077
F  F200  1  0.15983643  0.80318756  0.21940683  1  -0.628792  1.5e-05  -0.083057  -0.192909  8e-06  1.355431  0.0
F  F201  1  0.15985866  0.19684009  0.28061010  1  -0.62902  1.5e-05  -0.082972  -0.193057  8e-06  1.355402  0.0
F  F202  1  0.84020940  0.19686948  0.78059450  1  -0.629604  1.5e-05  -0.08297  -0.193072  8e-06  1.355464  0.0
F  F203  1  0.84022142  0.80314232  0.71941016  1  -0.629739  1.5e-05  -0.082952  -0.19291  8e-06  1.35552  0.0
F  F204  1  0.19382118  0.92743417  0.28694394  1  -0.617169  -4.5e-05  -0.101435  -0.217783  -3.9e-05  1.36093  0.0
F  F205  1  0.19381562  0.07258457  0.21307837  1  -0.618773  -4.5e-05  -0.101637  -0.218086  -3.9e-05  1.360614  0.0
F  F206  1  0.80634059  0.07260148  0.71306900  1  -0.617488  -4.5e-05  -0.101777  -0.218311  -3.9e-05  1.360877  0.0
F  F207  1  0.80637118  0.92739648  0.78694752  1  -0.616864  -4.5e-05  -0.101698  -0.218091  -3.9e-05  1.361146  0.0
F  F208  1  0.36146559  0.90409896  0.21099154  1  -0.61224  -4.6e-05  -0.096469  -0.202974  -4.5e-05  1.391404  0.0
F  F209  1  0.36149219  0.09593041  0.28902371  1  -0.611436  -4.6e-05  -0.096472  -0.20308  -4.5e-05  1.391747  0.0
F  F210  1  0.63866324  0.09591796  0.78901225  1  -0.611568  -4.6e-05  -0.09631  -0.202802  -4.5e-05  1.391327  0.0
F  F211  1  0.63868671  0.90410810  0.71100661  1  -0.61179  -4.7e-05  -0.096154  -0.202525  -4.5e-05  1.391342  0.0
F  F212  1  0.60040027  0.94909678  0.29746374  1  -0.612165  -4e-05  -0.099511  -0.204025  -3.3e-05  1.338809  0.0
F  F213  1  0.60039204  0.05091491  0.20253266  1  -0.611594  -4e-05  -0.099554  -0.204152  -3.3e-05  1.338334  0.0
F  F214  1  0.39977072  0.05086814  0.70252019  1  -0.611648  -4e-05  -0.099195  -0.203612  -3.3e-05  1.339346  0.0
F  F215  1  0.39976446  0.94913596  0.79747944  1  -0.611991  -4e-05  -0.099194  -0.203614  -3.3e-05  1.339368  0.0
F  F216  1  0.67445095  0.83826302  0.33972113  1  -0.625325  2.2e-05  -0.092247  -0.201222  2.1e-05  1.321691  0.0
F  F217  1  0.67443887  0.16175297  0.16027866  1  -0.625148  2.2e-05  -0.092234  -0.2014  2.1e-05  1.321599  0.0
F  F218  1  0.32567524  0.16166719  0.66023906  1  -0.625731  2.2e-05  -0.092171  -0.201067  2.1e-05  1.321824  0.0
F  F219  1  0.32566361  0.83833539  0.83975797  1  -0.625796  2.2e-05  -0.092211  -0.201128  2.1e-05  1.321934  0.0
F  F220  1  0.43827246  0.92079715  0.36661555  1  -0.621159  -9e-06  -0.095276  -0.199897  -1.4e-05  1.328296  0.0
F  F221  1  0.43825348  0.07922398  0.13338689  1  -0.621024  -9e-06  -0.095301  -0.199945  -1.4e-05  1.328227  0.0
F  F222  1  0.56193543  0.07919066  0.63337935  1  -0.622046  -9e-06  -0.095303  -0.199678  -1.3e-05  1.328141  0.0
F  F223  1  0.56191488  0.92081650  0.86662381  1  -0.622079  -9e-06  -0.095343  -0.19976  -1.3e-05  1.328019  0.0
