# generated using pymatgen
data_H16PbC24(NO2)2
_symmetry_space_group_name_H-M   'P 1'
_cell_length_a   7.18901180
_cell_length_b   8.34036878
_cell_length_c   9.44631597
_cell_angle_alpha   104.33078709
_cell_angle_beta   89.93280024
_cell_angle_gamma   115.56150041
_symmetry_Int_Tables_number   1
_chemical_formula_structural   H16PbC24(NO2)2
_chemical_formula_sum   'H16 Pb1 C24 N2 O4'
_cell_volume   491.42716880
_cell_formula_units_Z   1
loop_
 _symmetry_equiv_pos_site_id
 _symmetry_equiv_pos_as_xyz
  1  'x, y, z'
loop_
 _atom_site_type_symbol
 _atom_site_label
 _atom_site_symmetry_multiplicity
 _atom_site_fract_x
 _atom_site_fract_y
 _atom_site_fract_z
 _atom_site_occupancy
 _atom_site_hle17_bader_spin_density
 _atom_site_hle17_ddec_charge
 _atom_site_hle17_ddec_spin_density
 _atom_site_hle17_ddec_sum_bond_order
 _atom_site_hle17_magmom
 _atom_site_hse06_10hf_bader_spin_density
 _atom_site_hse06_10hf_ddec_charge
 _atom_site_hse06_10hf_ddec_spin_density
 _atom_site_hse06_10hf_ddec_sum_bond_order
 _atom_site_hse06_10hf_magmom
 _atom_site_hse06_bader_spin_density
 _atom_site_hse06_ddec_charge
 _atom_site_hse06_ddec_spin_density
 _atom_site_hse06_ddec_sum_bond_order
 _atom_site_hse06_magmom
 _atom_site_pbe_bader_spin_density
 _atom_site_pbe_cm5_charge
 _atom_site_pbe_ddec_charge
 _atom_site_pbe_ddec_spin_density
 _atom_site_pbe_ddec_sum_bond_order
 _atom_site_pbe_magmom
H  H0  1  0.94789742  0.57172545  0.46989631  1  0  0.099323  0  0.955946  0  0  0.107184  0  1.022936  0  0  0.110521  0  1.020501  0  0  0.104126  0.104474  0  1.025362  0
H  H1  1  0.37784152  0.42812638  0.52996762  1  0  0.099045  0  0.956107  0  0  0.106722  0  1.02331  0  0  0.110097  0  1.020835  0  0  0.104096  0.104029  0  1.025701  0
H  H2  1  0.59075093  0.47212974  0.35805384  1  0  0.099059  0  0.961611  0  0  0.107831  0  1.024838  0  0  0.111238  0  1.023237  0  0  0.101968  0.10537  0  1.025809  0
H  H3  1  0.11989721  0.52749259  0.64161640  1  0  0.098963  0  0.961696  0  0  0.107832  0  1.024686  0  0  0.111287  0  1.023033  0  0  0.102142  0.10535  0  1.025679  0
H  H4  1  0.53404954  0.55482249  0.13210809  1  0  0.095198  0  0.973438  0  0  0.103219  0  1.040385  0  0  0.106063  0  1.039044  0  0  0.100537  0.101107  0  1.041323  0
H  H5  1  0.97971134  0.44501020  0.86766012  1  0  0.094648  0  0.972988  0  0  0.10258  0  1.040342  0  0  0.105466  0  1.038976  0  0  0.100398  0.100443  0  1.041294  0
H  H6  1  0.19741070  0.81777072  0.12257119  1  0  0.097979  0  0.960301  0  0  0.106995  0  1.025266  0  0  0.111071  0  1.021745  0  0  0.102485  0.104186  0  1.027931  0
H  H7  1  0.38044801  0.18274078  0.87754834  1  0  0.097689  0  0.961851  0  0  0.106822  0  1.026587  0  0  0.110784  0  1.023219  0  0  0.10257  0.104098  0  1.029164  0
H  H8  1  0.53495014  0.74652630  0.01821938  1  0  0.115377  0  0.952758  0  0  0.124131  0  1.015638  0  0  0.127926  0  1.0138  0  0  0.107549  0.121698  0  1.017173  0
H  H9  1  0.78897601  0.25384545  0.98203026  1  0  0.1159  0  0.95295  0  0  0.124267  0  1.016102  0  0  0.127997  0  1.014339  0  0  0.107697  0.121852  0  1.017616  0
H  H10  1  0.49826787  0.83596267  0.78949778  1  0  0.082352  0  0.926467  0  0  0.092779  0  0.986316  0  0  0.095471  0  0.983597  0  0  0.115905  0.090643  0  0.988484  0
H  H11  1  0.66214140  0.16441062  0.21076821  1  0  0.082718  0  0.925861  0  0  0.092763  0  0.986226  0  0  0.095595  0  0.983318  0  0  0.11578  0.090542  0  0.988498  0
H  H12  1  0.05929103  0.85018939  0.67280436  1  0  0.073576  0  0.945177  0  0  0.079508  0  1.016109  0  0  0.082076  0  1.013941  0  0  0.110945  0.077093  0  1.018653  0
H  H13  1  0.20813891  0.14942744  0.32695402  1  0  0.073623  0  0.944654  0  0  0.079503  0  1.015608  0  0  0.082026  0  1.013499  0  0  0.111339  0.077116  0  1.018112  0
H  H14  1  0.12006669  0.76164835  0.89267837  1  0  0.099204  0  0.963814  0  0  0.112789  0  1.021234  0  0  0.115498  0  1.020651  0  0  0.105389  0.11082  0  1.021423  0
H  H15  1  0.35825265  0.23803141  0.10710832  1  0  0.099479  0  0.963553  0  0  0.113077  0  1.020936  0  0  0.115741  0  1.020425  0  0  0.105586  0.111148  0  1.021082  0
Pb  Pb16  1  0.74717850  0.99931817  0.49958155  1  0  1.190052  0  1.403706  0  0  0.995943  0  1.784169  0  0  1.05656  0  1.752055  0  0  0.616951  0.951738  0  1.807446  0
C  C17  1  0.31342603  0.77244715  0.36847088  1  0  0.622244  0  3.939863  0  0  0.576694  0  4.220316  0  0  0.611493  0  4.215062  0  0  0.197699  0.553129  0  4.223147  0
C  C18  1  0.54228338  0.22738376  0.63176087  1  0  0.62185  0  3.939451  0  0  0.576785  0  4.219158  0  0  0.611596  0  4.213894  0  0  0.198494  0.553207  0  4.221975  0
C  C19  1  0.09412870  0.70191790  0.30169678  1  0  -0.066554  0  3.779717  0  0  -0.041175  0  4.009832  0  0  -0.050065  0  4.034076  0  0  -0.020911  -0.035271  0  3.994578  0
C  C20  1  0.39367538  0.29837008  0.69837327  1  0  -0.065725  0  3.779487  0  0  -0.040613  0  4.009655  0  0  -0.049504  0  4.033864  0  0  -0.020783  -0.034712  0  3.994437  0
C  C21  1  0.92362883  0.60586114  0.36968207  1  0  -0.067856  0  3.745228  0  0  -0.093827  0  3.995488  0  0  -0.093016  0  4.016897  0  0  -0.078392  -0.094588  0  3.979932  0
C  C22  1  0.31927277  0.39413857  0.63026798  1  0  -0.06811  0  3.74463  0  0  -0.093991  0  3.995453  0  0  -0.093229  0  4.016815  0  0  -0.07843  -0.094765  0  3.980034  0
C  C23  1  0.72271482  0.55138896  0.30681184  1  0  -0.098073  0  3.801551  0  0  -0.107507  0  4.055115  0  0  -0.112819  0  4.078252  0  0  -0.091209  -0.102568  0  4.035763  0
C  C24  1  0.17255804  0.44849477  0.69304103  1  0  -0.097927  0  3.800075  0  0  -0.107398  0  4.053738  0  0  -0.112725  0  4.076808  0  0  -0.091347  -0.102446  0  4.034434  0
C  C25  1  0.69126644  0.59495276  0.17833644  1  0  -0.093444  0  3.727572  0  0  -0.115987  0  3.975359  0  0  -0.11594  0  3.995567  0  0  -0.080039  -0.113637  0  3.958951  0
C  C26  1  0.09719305  0.40517235  0.82161979  1  0  -0.091568  0  3.725501  0  0  -0.114258  0  3.973215  0  0  -0.114222  0  3.993387  0  0  -0.080361  -0.111892  0  3.95681  0
C  C27  1  0.86046185  0.69049268  0.10826123  1  0  0.030742  0  3.786821  0  0  0.048068  0  4.02001  0  0  0.045363  0  4.043791  0  0  -0.010221  0.050047  0  4.00341  0
C  C28  1  0.17075264  0.30984901  0.89181649  1  0  0.028593  0  3.788291  0  0  0.046864  0  4.021303  0  0  0.044109  0  4.045158  0  0  -0.009818  0.04887  0  4.004686  0
C  C29  1  0.06096938  0.74055672  0.17089896  1  0  -0.104999  0  3.713681  0  0  -0.135946  0  3.961136  0  0  -0.135622  0  3.9807  0  0  -0.07931  -0.138083  0  3.950127  0
C  C30  1  0.32136135  0.25985112  0.82919878  1  0  -0.104555  0  3.714841  0  0  -0.135592  0  3.962314  0  0  -0.135184  0  3.981936  0  0  -0.079656  -0.137789  0  3.951302  0
C  C31  1  0.82952936  0.74177834  0.97465962  1  0  0.106977  0  3.752275  0  0  0.117925  0  3.981502  0  0  0.12286  0  4.00422  0  0  0.011274  0.11534  0  3.965776  0
C  C32  1  0.08816131  0.25850943  0.02542122  1  0  0.109655  0  3.751126  0  0  0.118656  0  3.982538  0  0  0.123588  0  4.005287  0  0  0.011628  0.11607  0  3.966769  0
C  C33  1  0.65243648  0.76340784  0.94267422  1  0  -0.158878  0  3.683732  0  0  -0.176267  0  3.931786  0  0  -0.18439  0  3.953362  0  0  -0.083796  -0.174754  0  3.920736  0
C  C34  1  0.88938283  0.23694607  0.05750260  1  0  -0.160133  0  3.685571  0  0  -0.176603  0  3.933889  0  0  -0.184686  0  3.955534  0  0  -0.083931  -0.175057  0  3.922739  0
C  C35  1  0.63214221  0.81494315  0.81647203  1  0  0.144729  0  3.723876  0  0  0.114241  0  3.980389  0  0  0.122003  0  3.997761  0  0  0.051101  0.109963  0  3.969676  0
C  C36  1  0.81705674  0.18534988  0.18366635  1  0  0.14439  0  3.724235  0  0  0.114322  0  3.98018  0  0  0.122022  0  3.997538  0  0  0.05098  0.110082  0  3.96948  0
C  C37  1  0.94475950  0.82478837  0.75117870  1  0  0.116987  0  3.769894  0  0  0.088845  0  4.025556  0  0  0.095178  0  4.045555  0  0  0.040537  0.085972  0  4.009898  0
C  C38  1  0.11939846  0.17511957  0.24873616  1  0  0.117176  0  3.769758  0  0  0.089165  0  4.025177  0  0  0.095514  0  4.045143  0  0  0.040188  0.086286  0  4.009522  0
C  C39  1  0.97848806  0.77520961  0.87512644  1  0  -0.169546  0  3.718673  0  0  -0.186583  0  3.963895  0  0  -0.194618  0  3.985768  0  0  -0.087515  -0.178718  0  3.946264  0
C  C40  1  0.20315298  0.22470308  0.12479508  1  0  -0.170479  0  3.716333  0  0  -0.186983  0  3.96224  0  0  -0.19496  0  3.984113  0  0  -0.087678  -0.179148  0  3.944607  0
N  N41  1  0.77432684  0.84445831  0.72136928  1  0  -0.35962  0  3.202708  0  0  -0.290031  0  3.459634  0  0  -0.309518  0  3.481953  0  0  -0.310254  -0.277808  0  3.442113  0
N  N42  1  0.92929842  0.15562976  0.27866896  1  0  -0.359635  0  3.204717  0  0  -0.29005  0  3.461486  0  0  -0.309563  0  3.483822  0  0  -0.309883  -0.277806  0  3.443947  0
O  O43  1  0.45796712  0.83181670  0.28806568  1  0  -0.636319  0  1.960406  0  0  -0.569953  0  2.191419  0  0  -0.599873  0  2.185815  0  0  -0.306929  -0.549065  0  2.19413  0
O  O44  1  0.62673386  0.16775088  0.71220016  1  0  -0.636158  0  1.959375  0  0  -0.570346  0  2.190218  0  0  -0.600182  0  2.184486  0  0  -0.307488  -0.549536  0  2.193078  0
O  O45  1  0.34846496  0.77743602  0.50201505  1  0  -0.623988  0  1.897053  0  0  -0.561373  0  2.118071  0  0  -0.589676  0  2.111937  0  0  -0.309598  -0.541691  0  2.121843  0
O  O46  1  0.57273658  0.22210382  0.49813799  1  0  -0.623961  0  1.897817  0  0  -0.561025  0  2.118375  0  0  -0.589346  0  2.112241  0  0  -0.309813  -0.54134  0  2.122183  0
