# generated using pymatgen
data_CoH30(C22O9)2
_symmetry_space_group_name_H-M   'P 1'
_cell_length_a   9.17895593
_cell_length_b   10.00654219
_cell_length_c   10.44729015
_cell_angle_alpha   84.09003573
_cell_angle_beta   76.84507184
_cell_angle_gamma   71.02676242
_symmetry_Int_Tables_number   1
_chemical_formula_structural   CoH30(C22O9)2
_chemical_formula_sum   'Co1 H30 C44 O18'
_cell_volume   883.19566663
_cell_formula_units_Z   1
loop_
 _symmetry_equiv_pos_site_id
 _symmetry_equiv_pos_as_xyz
  1  'x, y, z'
loop_
 _atom_site_type_symbol
 _atom_site_label
 _atom_site_symmetry_multiplicity
 _atom_site_fract_x
 _atom_site_fract_y
 _atom_site_fract_z
 _atom_site_occupancy
 _atom_site_pbe_cm5_charge
 _atom_site_pbe_ddec_charge
 _atom_site_pbe_ddec_spin_density
 _atom_site_pbe_ddec_sum_bond_order
 _atom_site_pbe_magmom
Co  Co0  1  0.99999996  0.99999974  0.50000165  1  0.596179  0.926411  1.028199  2.593056  0.963
H  H1  1  0.03835898  0.94827927  0.09157800  1  0.307017  0.352747  -8e-06  0.985002  0.0
H  H2  1  0.96163809  0.05172037  0.90841517  1  0.306965  0.352715  -8e-06  0.985044  0.0
H  H3  1  0.39119546  0.17669317  0.47998569  1  0.302349  0.361269  -5.6e-05  0.979072  0.0
H  H4  1  0.60880501  0.82330646  0.52001637  1  0.302358  0.361292  -5.6e-05  0.979026  0.0
H  H5  1  0.09415978  0.29383797  0.71785062  1  0.312031  0.376895  -1.7e-05  0.962134  0.0
H  H6  1  0.90584518  0.70615853  0.28215178  1  0.312046  0.376909  -1.7e-05  0.962142  0.0
H  H7  1  0.76102300  0.02329405  0.43691574  1  0.296778  0.373952  -0.000169  0.975181  0.0
H  H8  1  0.23898006  0.97670456  0.56308493  1  0.296795  0.373999  -0.000169  0.975127  0.0
H  H9  1  0.87034679  0.05540301  0.30248163  1  0.315159  0.406327  -0.00013  0.897658  0.0
H  H10  1  0.12965479  0.94459663  0.69752116  1  0.315149  0.406339  -0.00013  0.897625  0.0
H  H11  1  0.41990456  0.99027635  0.73102814  1  0.111692  0.121289  -7e-06  1.01212  0.0
H  H12  1  0.58009736  0.00972227  0.26896798  1  0.111678  0.121273  -7e-06  1.01207  0.0
H  H13  1  0.41584111  0.79020849  0.11607644  1  0.103793  0.104221  -5.9e-05  1.039797  0.0
H  H14  1  0.58415371  0.20979428  0.88391976  1  0.103788  0.104195  -5.9e-05  1.039783  0.0
H  H15  1  0.70584265  0.69610226  0.06322866  1  0.101811  0.105114  -6e-06  1.048876  0.0
H  H16  1  0.29415256  0.30390262  0.93677397  1  0.101839  0.105114  -6e-06  1.048846  0.0
H  H17  1  0.91129092  0.67463891  0.63382239  1  0.103957  0.106484  -0.000104  1.008223  0.0
H  H18  1  0.08871283  0.32536397  0.36617582  1  0.103958  0.106481  -0.000104  1.008262  0.0
H  H19  1  0.19339218  0.54935675  0.58405590  1  0.100033  0.096359  7e-06  1.022116  0.0
H  H20  1  0.80660901  0.45064396  0.41594495  1  0.100009  0.096329  7e-06  1.022145  0.0
H  H21  1  0.21944340  0.60171537  0.98219023  1  0.098473  0.097646  2.8e-05  1.037525  0.0
H  H22  1  0.78055595  0.39828426  0.01781110  1  0.098466  0.09768  2.8e-05  1.037489  0.0
H  H23  1  0.93842211  0.73266753  0.03059694  1  0.101661  0.108358  4.6e-05  1.027659  0.0
H  H24  1  0.06157684  0.26733315  0.96940341  1  0.101646  0.108335  4.6e-05  1.027612  0.0
H  H25  1  0.69201783  0.23538098  0.56221248  1  0.113704  0.123617  -0.000111  1.038885  0.0
H  H26  1  0.30798528  0.76461444  0.43779040  1  0.113715  0.12358  -0.000111  1.038952  0.0
H  H27  1  0.73291171  0.51759739  0.82583186  1  0.104359  0.10377  -1e-05  1.041622  0.0
H  H28  1  0.26708985  0.48240227  0.17416710  1  0.104367  0.103781  -1e-05  1.041604  0.0
H  H29  1  0.44512889  0.63097913  0.86861869  1  0.096701  0.094181  -3.4e-05  1.058194  0.0
H  H30  1  0.55487452  0.36902161  0.13138076  1  0.096686  0.094176  -3.4e-05  1.058173  0.0
C  C31  1  0.72899466  0.92938931  0.64786047  1  0.223793  0.574903  -0.00876  4.137573  -0.005
C  C32  1  0.27100429  0.07061138  0.35213797  1  0.223792  0.574948  -0.008759  4.13754  -0.005
C  C33  1  0.64788756  0.87738029  0.77469906  1  -0.011487  -0.085692  -0.000779  3.919025  0.0
C  C34  1  0.35211250  0.12262042  0.22529915  1  -0.011487  -0.085688  -0.000779  3.918955  0.0
C  C35  1  0.48314423  0.92417684  0.80299541  1  -0.0674  -0.0813  -0.001569  3.899317  -0.001
C  C36  1  0.51685436  0.07582173  0.19700043  1  -0.067337  -0.081227  -0.001569  3.899179  -0.001
C  C37  1  0.39828517  0.89182332  0.92491580  1  -0.021294  -0.0687  0.000105  4.010961  0.0
C  C38  1  0.60171302  0.10817633  0.07507810  1  -0.021287  -0.068726  0.000105  4.011123  0.0
C  C39  1  0.22427988  0.93845929  0.95322336  1  0.243904  0.587964  -7.2e-05  4.097435  0.0
C  C40  1  0.77571721  0.06154033  0.04677364  1  0.244016  0.588173  -7.2e-05  4.097308  0.0
C  C41  1  0.48072989  0.81353417  0.02014365  1  -0.073928  -0.063697  -0.00237  3.945459  -0.001
C  C42  1  0.51926497  0.18646542  0.97985284  1  -0.073952  -0.063708  -0.00237  3.945639  -0.001
C  C43  1  0.64396875  0.76184623  0.99028860  1  -0.085842  -0.132507  0.000211  3.946406  0.0
C  C44  1  0.35602724  0.23815337  0.00970958  1  -0.085889  -0.132503  0.000211  3.946396  0.0
C  C45  1  0.73131150  0.78881038  0.86676766  1  0.013822  0.076802  -0.002212  3.92975  -0.001
C  C46  1  0.26868711  0.21118817  0.13323297  1  0.013801  0.076778  -0.002212  3.929713  -0.001
C  C47  1  0.90251865  0.71563495  0.83563603  1  -0.008674  0.058216  0.000123  3.987673  0.0
C  C48  1  0.09748143  0.28436574  0.16436600  1  -0.008644  0.058253  0.000124  3.987672  0.0
C  C49  1  0.97795062  0.66011074  0.71087185  1  -0.081733  -0.094838  -0.000628  3.949153  0.0
C  C50  1  0.02205170  0.33988997  0.28913165  1  -0.081766  -0.094865  -0.000628  3.949345  0.0
C  C51  1  0.13763380  0.58680897  0.68308482  1  -0.083471  -0.096491  7.5e-05  3.947497  0.0
C  C52  1  0.86236778  0.41319067  0.31691797  1  -0.083471  -0.096505  7.5e-05  3.947563  0.0
C  C53  1  0.22879990  0.56418851  0.77917823  1  -0.007886  0.059117  -0.000639  3.992103  0.0
C  C54  1  0.77119983  0.43581006  0.22082313  1  -0.007879  0.059141  -0.000639  3.992136  0.0
C  C55  1  0.15308111  0.61852355  0.90451615  1  -0.091568  -0.121768  0.000199  3.972324  0.0
C  C56  1  0.84691749  0.38147501  0.09548447  1  -0.091512  -0.12175  0.000199  3.972353  0.0
C  C57  1  0.99306997  0.69217307  0.93244736  1  -0.090584  -0.118965  -0.000539  3.96039  0.0
C  C58  1  0.00692899  0.30782761  0.06755394  1  -0.090573  -0.118935  -0.000539  3.960363  0.0
C  C59  1  0.39998646  0.49154673  0.74940302  1  0.014285  0.076034  0.000766  3.935383  0.001
C  C60  1  0.60001439  0.50845184  0.25060002  1  0.014243  0.075961  0.000766  3.935419  0.001
C  C61  1  0.47312089  0.37727669  0.66289955  1  -0.011729  -0.092098  -0.000725  3.934563  -0.001
C  C62  1  0.52687881  0.62272506  0.33710246  1  -0.011776  -0.09216  -0.000725  3.934633  -0.001
C  C63  1  0.38418798  0.29495762  0.62005011  1  0.239797  0.595631  -3.6e-05  4.120399  0.0
C  C64  1  0.61581437  0.70503990  0.37995368  1  0.239836  0.595642  -3.6e-05  4.120236  0.0
C  C65  1  0.63706047  0.32052840  0.63133594  1  -0.069118  -0.095136  0.000651  3.916941  0.001
C  C66  1  0.36293853  0.67946909  0.36866663  1  -0.069103  -0.095062  0.000652  3.916941  0.001
C  C67  1  0.73132283  0.36729829  0.69253916  1  -0.020687  -0.057031  -0.001255  4.010907  -0.001
C  C68  1  0.26867835  0.63270242  0.30746074  1  -0.020734  -0.057056  -0.001255  4.010998  -0.001
C  C69  1  0.90362395  0.29731053  0.66506535  1  0.235823  0.59108  0.005987  4.096496  0.01
C  C70  1  0.09637839  0.70268700  0.33493653  1  0.23566  0.590824  0.005989  4.096318  0.01
C  C71  1  0.66006293  0.47842324  0.78012868  1  -0.077715  -0.078856  0.000687  3.961233  0.001
C  C72  1  0.33993714  0.52157746  0.21987144  1  -0.077711  -0.078869  0.000687  3.961199  0.001
C  C73  1  0.49792601  0.54073946  0.80513437  1  -0.085919  -0.118181  -0.00063  3.952347  0.0
C  C74  1  0.50207260  0.45925909  0.19486626  1  -0.085851  -0.11809  -0.00063  3.95223  0.0
O  O75  1  0.85025360  0.96471184  0.64955740  1  -0.292276  -0.504937  -0.007275  2.437663  -0.005
O  O76  1  0.14974649  0.03528885  0.35044559  1  -0.292303  -0.504981  -0.007274  2.437732  -0.005
O  O77  1  0.66861606  0.94078297  0.54649402  1  -0.299622  -0.536182  -0.003347  2.293304  -0.002
O  O78  1  0.33138477  0.05921562  0.45350520  1  -0.2996  -0.536199  -0.003347  2.29326  -0.002
O  O79  1  0.14491787  0.99770018  0.86808150  1  -0.281465  -0.512602  -0.000103  2.240277  0.0
O  O80  1  0.85507733  0.00230155  0.13191281  1  -0.281606  -0.51275  -0.000103  2.240326  0.0
O  O81  1  0.15945713  0.91210363  0.07524703  1  -0.313064  -0.454811  -8.7e-05  2.368538  0.0
O  O82  1  0.84053769  0.08789915  0.92474821  1  -0.313016  -0.454841  -8.7e-05  2.368377  0.0
O  O83  1  0.43603273  0.25432189  0.49737887  1  -0.319912  -0.462724  -0.000149  2.314769  0.0
O  O84  1  0.56396811  0.74567669  0.50262226  1  -0.319915  -0.462725  -0.000149  2.314776  0.0
O  O85  1  0.27926663  0.25920693  0.69975888  1  -0.287829  -0.520835  -0.000116  2.249083  0.0
O  O86  1  0.72073567  0.74079379  0.30024174  1  -0.287838  -0.520827  -0.000116  2.248931  0.0
O  O87  1  0.97506856  0.21226627  0.57646007  1  -0.27914  -0.527956  0.013949  2.353325  0.019
O  O88  1  0.02492852  0.78773966  0.42354686  1  -0.27902  -0.527821  0.01395  2.352994  0.019
O  O89  1  0.97605649  0.33659209  0.74463738  1  -0.32535  -0.47813  0.002851  2.342833  0.005
O  O90  1  0.02394475  0.66340541  0.25536760  1  -0.325315  -0.478043  0.002851  2.342925  0.005
O  O91  1  0.83723706  0.07767393  0.39607671  1  -0.551325  -0.711734  -0.007787  2.262062  -0.007
O  O92  1  0.16276452  0.92232571  0.60392512  1  -0.551333  -0.711797  -0.007787  2.262084  -0.007
