# generated using pymatgen
data_AgH5C3(NO)2
_symmetry_space_group_name_H-M   'P 1'
_cell_length_a   4.76551317
_cell_length_b   9.02108333
_cell_length_c   11.52445127
_cell_angle_alpha   89.99999850
_cell_angle_beta   89.99998939
_cell_angle_gamma   90.00005461
_symmetry_Int_Tables_number   1
_chemical_formula_structural   AgH5C3(NO)2
_chemical_formula_sum   'Ag4 H20 C12 N8 O8'
_cell_volume   495.43721405
_cell_formula_units_Z   4
loop_
 _symmetry_equiv_pos_site_id
 _symmetry_equiv_pos_as_xyz
  1  'x, y, z'
loop_
 _atom_site_type_symbol
 _atom_site_label
 _atom_site_symmetry_multiplicity
 _atom_site_fract_x
 _atom_site_fract_y
 _atom_site_fract_z
 _atom_site_occupancy
 _atom_site_hle17_bader_spin_density
 _atom_site_hle17_ddec_charge
 _atom_site_hle17_ddec_spin_density
 _atom_site_hle17_ddec_sum_bond_order
 _atom_site_hle17_magmom
 _atom_site_hse06_10hf_bader_spin_density
 _atom_site_hse06_10hf_ddec_charge
 _atom_site_hse06_10hf_ddec_spin_density
 _atom_site_hse06_10hf_ddec_sum_bond_order
 _atom_site_hse06_10hf_magmom
 _atom_site_hse06_bader_spin_density
 _atom_site_hse06_ddec_charge
 _atom_site_hse06_ddec_spin_density
 _atom_site_hse06_ddec_sum_bond_order
 _atom_site_hse06_magmom
 _atom_site_pbe_bader_spin_density
 _atom_site_pbe_cm5_charge
 _atom_site_pbe_ddec_charge
 _atom_site_pbe_ddec_spin_density
 _atom_site_pbe_ddec_sum_bond_order
 _atom_site_pbe_magmom
Ag  Ag0  1  0.52762661  0.34732095  0.54323276  1  0  0.483032  0  1.542651  0  0  0.338536  0  2.017831  0  0  0.368724  0  1.965566  0  0  0.448859  0.31775  0  2.054203  0
Ag  Ag1  1  0.52762689  0.65268228  0.45676616  1  0  0.483086  0  1.542584  0  0  0.338599  0  2.017761  0  0  0.368788  0  1.9655  0  0  0.44887  0.317814  0  2.054132  0
Ag  Ag2  1  0.47236480  0.15267801  0.04323412  1  0  0.483091  0  1.542597  0  0  0.338605  0  2.017766  0  0  0.368797  0  1.965499  0  0  0.448865  0.317812  0  2.054135  0
Ag  Ag3  1  0.47236544  0.84732186  0.95677001  1  0  0.483099  0  1.542636  0  0  0.338623  0  2.017785  0  0  0.368814  0  1.965522  0  0  0.448874  0.31783  0  2.054153  0
H  H4  1  0.09737698  0.28271330  0.70925979  1  0  0.075293  0  0.94662  0  0  0.084448  0  1.014534  0  0  0.0874  0  1.011625  0  0  0.110367  0.082114  0  1.017066  0
H  H5  1  0.09738577  0.71728527  0.29074007  1  0  0.075277  0  0.946629  0  0  0.084434  0  1.01455  0  0  0.087386  0  1.011641  0  0  0.110359  0.0821  0  1.017084  0
H  H6  1  0.90262073  0.21728566  0.20926108  1  0  0.075304  0  0.946587  0  0  0.084437  0  1.014509  0  0  0.087389  0  1.0116  0  0  0.110356  0.082103  0  1.01704  0
H  H7  1  0.90262335  0.78271332  0.79073864  1  0  0.075325  0  0.946589  0  0  0.08445  0  1.01452  0  0  0.0874  0  1.011612  0  0  0.110367  0.082115  0  1.017052  0
H  H8  1  0.26696851  0.44483356  0.86384674  1  0  0.085557  0  0.928076  0  0  0.098993  0  0.990315  0  0  0.099619  0  0.989958  0  0  0.107483  0.098292  0  0.991144  0
H  H9  1  0.26696651  0.55516288  0.13614962  1  0  0.08556  0  0.928159  0  0  0.099013  0  0.990361  0  0  0.09964  0  0.990005  0  0  0.1075  0.098313  0  0.991191  0
H  H10  1  0.73302499  0.05516429  0.36384807  1  0  0.085604  0  0.92808  0  0  0.098986  0  0.990306  0  0  0.099612  0  0.98995  0  0  0.107481  0.098288  0  0.991137  0
H  H11  1  0.73303001  0.94483682  0.63615516  1  0  0.085551  0  0.928165  0  0  0.098952  0  0.990364  0  0  0.099578  0  0.990008  0  0  0.107461  0.098255  0  0.991195  0
H  H12  1  0.92209635  0.52040114  0.88507112  1  0  0.073998  0  0.931769  0  0  0.086131  0  0.996566  0  0  0.087581  0  0.995093  0  0  0.102521  0.084795  0  0.998211  0
H  H13  1  0.92208792  0.47959895  0.11492773  1  0  0.07399  0  0.931764  0  0  0.086118  0  0.996577  0  0  0.087568  0  0.995104  0  0  0.102509  0.084782  0  0.998223  0
H  H14  1  0.07789808  0.97959190  0.38507340  1  0  0.074005  0  0.931833  0  0  0.086106  0  0.996602  0  0  0.087556  0  0.995128  0  0  0.102517  0.08477  0  0.99825  0
H  H15  1  0.07790559  0.02041110  0.61492905  1  0  0.074024  0  0.931808  0  0  0.086108  0  0.996595  0  0  0.08756  0  0.995117  0  0  0.102517  0.084774  0  0.998244  0
H  H16  1  0.69899133  0.53558441  0.70496972  1  0  0.293287  0  0.953669  0  0  0.278795  0  1.014951  0  0  0.28619  0  1.010155  0  0  0.276953  0.273477  0  1.018448  0
H  H17  1  0.69899126  0.46441668  0.29502917  1  0  0.293285  0  0.953684  0  0  0.278796  0  1.014963  0  0  0.286191  0  1.010168  0  0  0.276947  0.273479  0  1.018461  0
H  H18  1  0.30101989  0.96441861  0.20497457  1  0  0.293245  0  0.953741  0  0  0.278754  0  1.015012  0  0  0.28615  0  1.010217  0  0  0.276927  0.273436  0  1.01851  0
H  H19  1  0.30102113  0.03558117  0.79502698  1  0  0.293232  0  0.953773  0  0  0.278788  0  1.01499  0  0  0.286182  0  1.010201  0  0  0.27695  0.273469  0  1.018488  0
H  H20  1  0.97389768  0.50261504  0.62102471  1  0  0.271288  0  0.936335  0  0  0.257404  0  1.006957  0  0  0.263169  0  1.002839  0  0  0.282274  0.253168  0  1.010074  0
H  H21  1  0.97389767  0.49738396  0.37897501  1  0  0.271297  0  0.936311  0  0  0.257415  0  1.006933  0  0  0.263181  0  1.002813  0  0  0.282276  0.253181  0  1.010045  0
H  H22  1  0.02610724  0.99737911  0.12102613  1  0  0.271266  0  0.936333  0  0  0.257388  0  1.006957  0  0  0.263159  0  1.00284  0  0  0.282237  0.253152  0  1.010065  0
H  H23  1  0.02610632  0.00261832  0.87897547  1  0  0.271276  0  0.936247  0  0  0.2574  0  1.006888  0  0  0.263171  0  1.002767  0  0  0.282228  0.25316  0  1.010004  0
C  C24  1  0.93380532  0.34977973  0.75175372  1  0  0.057811  0  3.640962  0  0  0.039005  0  3.875916  0  0  0.038502  0  3.889502  0  0  -0.006946  0.039347  0  3.866505  0
C  C25  1  0.93380769  0.65022036  0.24824601  1  0  0.057856  0  3.641007  0  0  0.03906  0  3.875958  0  0  0.038558  0  3.889546  0  0  -0.006938  0.039403  0  3.866546  0
C  C26  1  0.06619868  0.15022144  0.25175688  1  0  0.057804  0  3.641364  0  0  0.039052  0  3.876089  0  0  0.038553  0  3.889676  0  0  -0.006962  0.039393  0  3.866681  0
C  C27  1  0.06620142  0.84977933  0.74824384  1  0  0.057768  0  3.64139  0  0  0.038993  0  3.876162  0  0  0.038496  0  3.889746  0  0  -0.006979  0.039336  0  3.866751  0
C  C28  1  0.04223509  0.41963698  0.86315258  1  0  0.016428  0  3.581481  0  0  -0.042478  0  3.84565  0  0  -0.036446  0  3.851349  0  0  -0.075856  -0.046537  0  3.841697  0
C  C29  1  0.04223313  0.58036157  0.13684815  1  0  0.016389  0  3.581609  0  0  -0.042529  0  3.845771  0  0  -0.036492  0  3.851455  0  0  -0.075863  -0.046584  0  3.841814  0
C  C30  1  0.95775842  0.08035866  0.36315127  1  0  0.016266  0  3.581809  0  0  -0.04245  0  3.845677  0  0  -0.036415  0  3.851369  0  0  -0.075831  -0.046504  0  3.841724  0
C  C31  1  0.95775290  0.91964367  0.63684845  1  0  0.016303  0  3.581853  0  0  -0.042407  0  3.845706  0  0  -0.036368  0  3.851393  0  0  -0.07579  -0.046452  0  3.841733  0
C  C32  1  0.71198861  0.24330134  0.80034000  1  0  0.456419  0  3.871194  0  0  0.416681  0  4.156438  0  0  0.444088  0  4.161729  0  0  0.199152  0.398159  0  4.152019  0
C  C33  1  0.71198698  0.75670309  0.19965976  1  0  0.456512  0  3.871014  0  0  0.416731  0  4.156267  0  0  0.444136  0  4.161556  0  0  0.199173  0.398208  0  4.151852  0
C  C34  1  0.28800700  0.25669873  0.30034312  1  0  0.456395  0  3.871255  0  0  0.416647  0  4.156406  0  0  0.444053  0  4.161699  0  0  0.19915  0.398124  0  4.151989  0
C  C35  1  0.28800745  0.74329883  0.69965930  1  0  0.456429  0  3.871165  0  0  0.416684  0  4.156322  0  0  0.444089  0  4.161616  0  0  0.199193  0.39816  0  4.151905  0
N  N36  1  0.81518440  0.45150252  0.66584334  1  0  -0.610945  0  3.219427  0  0  -0.544657  0  3.466543  0  0  -0.566078  0  3.46626  0  0  -0.642823  -0.529538  0  3.46639  0
N  N37  1  0.81518449  0.54849863  0.33415466  1  0  -0.610915  0  3.219407  0  0  -0.544691  0  3.466623  0  0  -0.566121  0  3.466365  0  0  -0.642825  -0.529569  0  3.46647  0
N  N38  1  0.18482169  0.04849755  0.16584649  1  0  -0.610827  0  3.219401  0  0  -0.544656  0  3.466605  0  0  -0.566085  0  3.466322  0  0  -0.642785  -0.529531  0  3.466447  0
N  N39  1  0.18482463  0.95149996  0.83415421  1  0  -0.610867  0  3.219512  0  0  -0.544671  0  3.466583  0  0  -0.566103  0  3.46631  0  0  -0.642785  -0.529546  0  3.466423  0
N  N40  1  0.74951865  0.22350993  0.91346469  1  0  -0.384439  0  3.110774  0  0  -0.317667  0  3.440837  0  0  -0.339419  0  3.443225  0  0  -0.334711  -0.303104  0  3.438959  0
N  N41  1  0.74952125  0.77649229  0.08653246  1  0  -0.384469  0  3.110704  0  0  -0.317701  0  3.44079  0  0  -0.339455  0  3.44318  0  0  -0.334716  -0.303134  0  3.438916  0
N  N42  1  0.25048325  0.27648903  0.41347563  1  0  -0.384367  0  3.110515  0  0  -0.317601  0  3.440594  0  0  -0.339352  0  3.442982  0  0  -0.334659  -0.303042  0  3.438734  0
N  N43  1  0.25047947  0.72351073  0.58652507  1  0  -0.384389  0  3.110459  0  0  -0.317645  0  3.440554  0  0  -0.3394  0  3.442945  0  0  -0.334679  -0.303086  0  3.438695  0
O  O44  1  0.52389968  0.18306684  0.73840474  1  0  -0.596343  0  2.010162  0  0  -0.534226  0  2.251798  0  0  -0.560117  0  2.244011  0  0  -0.321134  -0.515801  0  2.256738  0
O  O45  1  0.52391495  0.81693638  0.26159678  1  0  -0.596524  0  2.010359  0  0  -0.534271  0  2.251918  0  0  -0.560157  0  2.244124  0  0  -0.321137  -0.515846  0  2.256861  0
O  O46  1  0.47610432  0.31692879  0.23840263  1  0  -0.596429  0  2.010232  0  0  -0.534216  0  2.251764  0  0  -0.560103  0  2.243976  0  0  -0.321121  -0.515788  0  2.256704  0
O  O47  1  0.47610256  0.68306886  0.76159456  1  0  -0.596434  0  2.010273  0  0  -0.534219  0  2.251797  0  0  -0.560105  0  2.244008  0  0  -0.32115  -0.515792  0  2.256736  0
O  O48  1  0.99351554  0.30741233  0.95130334  1  0  -0.221379  0  2.161503  0  0  -0.160996  0  2.417741  0  0  -0.173249  0  2.418443  0  0  -0.14614  -0.152153  0  2.417223  0
O  O49  1  0.99351589  0.69258558  0.04869463  1  0  -0.221359  0  2.161525  0  0  -0.160988  0  2.417775  0  0  -0.17324  0  2.41848  0  0  -0.146153  -0.152154  0  2.417263  0
O  O50  1  0.00647377  0.19258330  0.45130652  1  0  -0.221325  0  2.161552  0  0  -0.161032  0  2.417764  0  0  -0.173285  0  2.418466  0  0  -0.146186  -0.152194  0  2.417255  0
O  O51  1  0.00647434  0.80741966  0.54869422  1  0  -0.22134  0  2.161654  0  0  -0.161036  0  2.417862  0  0  -0.173289  0  2.418567  0  0  -0.1462  -0.152202  0  2.417357  0
