# generated using pymatgen
data_ZnH14Pd(C5N4)2
_symmetry_space_group_name_H-M   'P 1'
_cell_length_a   8.52971480
_cell_length_b   8.72559518
_cell_length_c   11.24591423
_cell_angle_alpha   75.68064249
_cell_angle_beta   75.33745518
_cell_angle_gamma   67.84299718
_symmetry_Int_Tables_number   1
_chemical_formula_structural   ZnH14Pd(C5N4)2
_chemical_formula_sum   'Zn2 H28 Pd2 C20 N16'
_cell_volume   739.09338558
_cell_formula_units_Z   2
loop_
 _symmetry_equiv_pos_site_id
 _symmetry_equiv_pos_as_xyz
  1  'x, y, z'
loop_
 _atom_site_type_symbol
 _atom_site_label
 _atom_site_symmetry_multiplicity
 _atom_site_fract_x
 _atom_site_fract_y
 _atom_site_fract_z
 _atom_site_occupancy
 _atom_site_hle17_bader_spin_density
 _atom_site_hle17_ddec_charge
 _atom_site_hle17_ddec_spin_density
 _atom_site_hle17_ddec_sum_bond_order
 _atom_site_hle17_magmom
 _atom_site_hse06_10hf_bader_spin_density
 _atom_site_hse06_10hf_ddec_charge
 _atom_site_hse06_10hf_ddec_spin_density
 _atom_site_hse06_10hf_ddec_sum_bond_order
 _atom_site_hse06_10hf_magmom
 _atom_site_hse06_bader_spin_density
 _atom_site_hse06_ddec_charge
 _atom_site_hse06_ddec_spin_density
 _atom_site_hse06_ddec_sum_bond_order
 _atom_site_hse06_magmom
 _atom_site_pbe_bader_spin_density
 _atom_site_pbe_cm5_charge
 _atom_site_pbe_ddec_charge
 _atom_site_pbe_ddec_spin_density
 _atom_site_pbe_ddec_sum_bond_order
 _atom_site_pbe_magmom
Zn  Zn0  1  0.66622423  0.85091095  0.23106718  1  0  0.974014  0  1.899395  0  0  0.800852  0  2.340694  0  0  0.83997  0  2.300186  0  0  0.678951  0.773947  0  2.367961  0
Zn  Zn1  1  0.33377489  0.14908569  0.76893656  1  0  0.974017  0  1.899409  0  0  0.800874  0  2.34071  0  0  0.839992  0  2.300196  0  0  0.678968  0.773971  0  2.367971  0
H  H2  1  0.62507455  0.62256994  0.43598583  1  0  0.336933  0  0.933217  0  0  0.318423  0  1.002736  0  0  0.325643  0  0.996523  0  0  0.277431  0.313336  0  1.007074  0
H  H3  1  0.37492843  0.37743304  0.56401518  1  0  0.336948  0  0.933151  0  0  0.318407  0  1.002726  0  0  0.325626  0  0.996514  0  0  0.277411  0.313321  0  1.007064  0
H  H4  1  0.43179739  0.74561732  0.41083668  1  0  0.32689  0  0.917243  0  0  0.316568  0  0.975036  0  0  0.321227  0  0.972734  0  0  0.2808  0.313281  0  0.976654  0
H  H5  1  0.56820567  0.25438186  0.58916679  1  0  0.326941  0  0.917187  0  0  0.316622  0  0.974975  0  0  0.321281  0  0.972672  0  0  0.280828  0.313333  0  0.976594  0
H  H6  1  0.54439286  0.81337407  0.47107992  1  0  0.320858  0  0.901989  0  0  0.31371  0  0.955062  0  0  0.31806  0  0.953329  0  0  0.286592  0.310682  0  0.956215  0
H  H7  1  0.45561134  0.18662893  0.52891998  1  0  0.320832  0  0.902054  0  0  0.313683  0  0.955126  0  0  0.318032  0  0.953394  0  0  0.286573  0.310651  0  0.956283  0
H  H8  1  0.27841334  0.00840408  0.20107900  1  0  0.06811  0  0.963874  0  0  0.075364  0  1.031665  0  0  0.078431  0  1.02836  0  0  0.108098  0.073119  0  1.034104  0
H  H9  1  0.72158358  0.99159884  0.79892400  1  0  0.068126  0  0.963817  0  0  0.075386  0  1.031613  0  0  0.078453  0  1.028309  0  0  0.108087  0.07314  0  1.034053  0
H  H10  1  0.68688195  0.01577327  0.99859136  1  0  0.324665  0  0.913839  0  0  0.313154  0  0.974109  0  0  0.317667  0  0.972095  0  0  0.283071  0.309942  0  0.975617  0
H  H11  1  0.31311224  0.98422712  0.00141171  1  0  0.324678  0  0.913823  0  0  0.313163  0  0.9741  0  0  0.317676  0  0.972085  0  0  0.283069  0.309953  0  0.975607  0
H  H12  1  0.88221687  0.87888233  0.01396027  1  0  0.336295  0  0.925793  0  0  0.320339  0  0.990062  0  0  0.32714  0  0.984456  0  0  0.279315  0.315502  0  0.994081  0
H  H13  1  0.11777488  0.12111803  0.98604412  1  0  0.336278  0  0.92587  0  0  0.320309  0  0.990155  0  0  0.32711  0  0.984548  0  0  0.279317  0.315469  0  0.994175  0
H  H14  1  0.81029179  0.05845362  0.06707097  1  0  0.331565  0  0.913041  0  0  0.320048  0  0.97056  0  0  0.324972  0  0.96811  0  0  0.282781  0.316577  0  0.972279  0
H  H15  1  0.18970036  0.94154546  0.93293626  1  0  0.331566  0  0.913052  0  0  0.320043  0  0.97058  0  0  0.324966  0  0.96813  0  0  0.282789  0.316572  0  0.972298  0
H  H16  1  0.03210921  0.27500715  0.20487527  1  0  0.109089  0  0.982641  0  0  0.113379  0  1.052465  0  0  0.117095  0  1.051022  0  0  0.100595  0.110712  0  1.053669  0
H  H17  1  0.96789336  0.72499711  0.79512380  1  0  0.109089  0  0.982636  0  0  0.113357  0  1.052491  0  0  0.117077  0  1.051056  0  0  0.100567  0.110698  0  1.053688  0
H  H18  1  0.58797101  0.20737961  0.29922138  1  0  0.076359  0  0.959194  0  0  0.084508  0  1.023318  0  0  0.08649  0  1.022427  0  0  0.109994  0.083176  0  1.023888  0
H  H19  1  0.41203092  0.79261576  0.70078475  1  0  0.0764  0  0.959166  0  0  0.084555  0  1.023287  0  0  0.086537  0  1.022394  0  0  0.110014  0.083228  0  1.023853  0
H  H20  1  0.34886673  0.47918275  0.31977109  1  0  0.115397  0  0.947215  0  0  0.125887  0  1.005461  0  0  0.129006  0  1.004798  0  0  0.106016  0.123666  0  1.006094  0
H  H21  1  0.65113277  0.52081260  0.68023638  1  0  0.115375  0  0.947205  0  0  0.125888  0  1.005434  0  0  0.129  0  1.004792  0  0  0.106032  0.123669  0  1.006062  0
H  H22  1  0.97752124  0.57650721  0.37394777  1  0  0.083224  0  0.913016  0  0  0.102847  0  0.969637  0  0  0.102747  0  0.971037  0  0  0.112019  0.102873  0  0.968745  0
H  H23  1  0.02247887  0.42349700  0.62605442  1  0  0.083249  0  0.913019  0  0  0.10288  0  0.969611  0  0  0.102776  0  0.971011  0  0  0.11205  0.102905  0  0.96872  0
H  H24  1  0.07900995  0.66933315  0.23456793  1  0  0.07765  0  0.917631  0  0  0.096485  0  0.974685  0  0  0.096215  0  0.976056  0  0  0.109144  0.0967  0  0.973698  0
H  H25  1  0.92099406  0.33066357  0.76543225  1  0  0.077681  0  0.917614  0  0  0.096545  0  0.974601  0  0  0.096276  0  0.975969  0  0  0.109161  0.096758  0  0.973615  0
H  H26  1  0.81972074  0.51202983  0.25723519  1  0  0.287275  0  0.909747  0  0  0.28067  0  0.961698  0  0  0.285088  0  0.95984  0  0  0.29172  0.277554  0  0.963067  0
H  H27  1  0.18027830  0.48797061  0.74276610  1  0  0.287277  0  0.909757  0  0  0.280672  0  0.961715  0  0  0.285089  0  0.959857  0  0  0.291719  0.277555  0  0.963085  0
H  H28  1  0.91871955  0.59088377  0.12372860  1  0  0.288986  0  0.90523  0  0  0.280976  0  0.960354  0  0  0.285578  0  0.958259  0  0  0.290741  0.277739  0  0.961877  0
H  H29  1  0.08128103  0.40911921  0.87627195  1  0  0.288998  0  0.905222  0  0  0.281011  0  0.960333  0  0  0.285613  0  0.958237  0  0  0.290741  0.277774  0  0.96186  0
Pd  Pd30  1  0.49999432  0.49999269  0.00000001  1  0  0.156194  0  3.562405  0  0  0.156919  0  4.103758  0  0  0.155851  0  4.07657  0  0  0.640455  0.159719  0  4.121949  0
Pd  Pd31  1  0.00000990  0.00001019  0.49999130  1  0  0.157174  0  3.57515  0  0  0.15326  0  4.125445  0  0  0.153924  0  4.093735  0  0  0.631347  0.155538  0  4.146067  0
C  C32  1  0.85728124  0.24083114  0.48108010  1  0  0.027147  0  3.555384  0  0  0.008374  0  3.902556  0  0  0.01663  0  3.909244  0  0  -0.034465  0.00242  0  3.897619  0
C  C33  1  0.14272637  0.75918331  0.51891000  1  0  0.027295  0  3.555344  0  0  0.008532  0  3.902485  0  0  0.016788  0  3.909173  0  0  -0.034411  0.002576  0  3.897549  0
C  C34  1  0.28957212  0.11709550  0.22523837  1  0  0.12235  0  3.734188  0  0  0.090569  0  3.995907  0  0  0.097509  0  4.012675  0  0  0.034404  0.086146  0  3.984449  0
C  C35  1  0.71042494  0.88290367  0.77476350  1  0  0.12229  0  3.734454  0  0  0.090496  0  3.996158  0  0  0.097435  0  4.012932  0  0  0.03439  0.08608  0  3.984693  0
C  C36  1  0.87576882  0.95887322  0.39177202  1  0  0.071758  0  3.501495  0  0  0.043448  0  3.83963  0  0  0.054434  0  3.846953  0  0  -0.022441  0.034665  0  3.83572  0
C  C37  1  0.12424459  0.04113496  0.60821995  1  0  0.071763  0  3.501349  0  0  0.043444  0  3.839488  0  0  0.05443  0  3.846806  0  0  -0.022513  0.03467  0  3.835562  0
C  C38  1  0.74093098  0.37215584  0.02374375  1  0  0.037541  0  3.531577  0  0  0.01712  0  3.877471  0  0  0.025872  0  3.885031  0  0  -0.032135  0.010671  0  3.872384  0
C  C39  1  0.25906315  0.62783452  0.97625847  1  0  0.037714  0  3.531487  0  0  0.017348  0  3.87729  0  0  0.026105  0  3.884846  0  0  -0.032046  0.010901  0  3.872202  0
C  C40  1  0.15085783  0.26651823  0.22977032  1  0  -0.172378  0  3.724775  0  0  -0.192789  0  3.980255  0  0  -0.200944  0  4.001321  0  0  -0.095402  -0.187478  0  3.966047  0
C  C41  1  0.84914133  0.73348844  0.77023516  1  0  -0.172354  0  3.724697  0  0  -0.192715  0  3.980142  0  0  -0.200879  0  4.001219  0  0  -0.095371  -0.187409  0  3.965925  0
C  C42  1  0.46111245  0.22657428  0.28186971  1  0  0.106685  0  3.751541  0  0  0.075331  0  4.012628  0  0  0.08232  0  4.029026  0  0  0.0284  0.070559  0  4.002102  0
C  C43  1  0.53888675  0.77341856  0.71813649  1  0  0.106537  0  3.751541  0  0  0.075161  0  4.012657  0  0  0.082155  0  4.029047  0  0  0.028313  0.070351  0  4.002199  0
C  C44  1  0.50840085  0.67209469  0.08230304  1  0  0.079408  0  3.487964  0  0  0.052303  0  3.823967  0  0  0.063533  0  3.832666  0  0  -0.019038  0.04406  0  3.818359  0
C  C45  1  0.49158763  0.32789819  0.91769619  1  0  0.079403  0  3.487966  0  0  0.052288  0  3.823993  0  0  0.06352  0  3.832689  0  0  -0.019005  0.044051  0  3.818371  0
C  C46  1  0.32795506  0.37847398  0.29165913  1  0  -0.177399  0  3.734477  0  0  -0.199113  0  3.995582  0  0  -0.206178  0  4.01407  0  0  -0.096065  -0.194584  0  3.983263  0
C  C47  1  0.67204260  0.62152633  0.70835222  1  0  -0.177341  0  3.734748  0  0  -0.199063  0  3.995878  0  0  -0.206129  0  4.014362  0  0  -0.096117  -0.194526  0  3.983547  0
C  C48  1  0.16812811  0.40164133  0.26446779  1  0  0.125138  0  3.709712  0  0  0.139396  0  3.950963  0  0  0.144033  0  3.973243  0  0  0.007099  0.13651  0  3.93568  0
C  C49  1  0.83186816  0.59835655  0.73553624  1  0  0.125119  0  3.70952  0  0  0.13934  0  3.950804  0  0  0.143976  0  3.973084  0  0  0.00717  0.13646  0  3.935514  0
C  C50  1  0.02517411  0.56766016  0.27453149  1  0  0.026786  0  3.691695  0  0  -0.035369  0  3.952599  0  0  -0.032311  0  3.964915  0  0  -0.068163  -0.037356  0  3.943934  0
C  C51  1  0.97482851  0.43234027  0.72547182  1  0  0.026702  0  3.691653  0  0  -0.035417  0  3.952507  0  0  -0.032352  0  3.964811  0  0  -0.068226  -0.037406  0  3.943843  0
N  N52  1  0.55316663  0.74525436  0.40634035  1  0  -0.875445  0  2.947607  0  0  -0.837301  0  3.167967  0  0  -0.857088  0  3.156422  0  0  -0.776928  -0.823213  0  3.175601  0
N  N53  1  0.44683723  0.25474611  0.59366096  1  0  -0.875503  0  2.947552  0  0  -0.837341  0  3.167936  0  0  -0.857127  0  3.156391  0  0  -0.776925  -0.823255  0  3.175575  0
N  N54  1  0.80369539  0.93201624  0.32766779  1  0  -0.430107  0  3.029419  0  0  -0.358418  0  3.313997  0  0  -0.376545  0  3.325713  0  0  -0.359308  -0.345723  0  3.305763  0
N  N55  1  0.19630651  0.06797911  0.67234013  1  0  -0.430117  0  3.029374  0  0  -0.358437  0  3.313971  0  0  -0.376564  0  3.325679  0  0  -0.359258  -0.345744  0  3.305739  0
N  N56  1  0.88376611  0.29770520  0.03760143  1  0  -0.442716  0  2.817585  0  0  -0.391826  0  3.062729  0  0  -0.405827  0  3.07554  0  0  -0.359786  -0.382212  0  3.054122  0
N  N57  1  0.11622300  0.70228884  0.96240548  1  0  -0.442878  0  2.81752  0  0  -0.392019  0  3.062668  0  0  -0.406023  0  3.075478  0  0  -0.359882  -0.382405  0  3.054064  0
N  N58  1  0.44345682  0.09594296  0.24953547  1  0  -0.332376  0  3.245169  0  0  -0.259484  0  3.50993  0  0  -0.276529  0  3.527743  0  0  -0.32461  -0.247917  0  3.497637  0
N  N59  1  0.55654045  0.90405863  0.75047304  1  0  -0.332251  0  3.24507  0  0  -0.259354  0  3.509831  0  0  -0.276398  0  3.527639  0  0  -0.324542  -0.247778  0  3.497525  0
N  N60  1  0.51982183  0.76967227  0.13223169  1  0  -0.450628  0  2.961352  0  0  -0.380491  0  3.238465  0  0  -0.398532  0  3.249459  0  0  -0.364298  -0.368245  0  3.231023  0
N  N61  1  0.48017542  0.23031318  0.86776286  1  0  -0.450615  0  2.961397  0  0  -0.380474  0  3.238538  0  0  -0.398514  0  3.249528  0  0  -0.364326  -0.368232  0  3.231098  0
N  N62  1  0.77170752  0.38319026  0.46973715  1  0  -0.43027  0  2.828761  0  0  -0.380005  0  3.07131  0  0  -0.393919  0  3.08495  0  0  -0.355224  -0.370402  0  3.061911  0
N  N63  1  0.22829983  0.61681786  0.53025680  1  0  -0.430424  0  2.828742  0  0  -0.380156  0  3.071285  0  0  -0.394072  0  3.084924  0  0  -0.355261  -0.370551  0  3.061887  0
N  N64  1  0.77471122  0.96322809  0.05702195  1  0  -0.877992  0  2.933288  0  0  -0.836357  0  3.15333  0  0  -0.856095  0  3.141331  0  0  -0.777476  -0.822472  0  3.161483  0
N  N65  1  0.22527977  0.03677101  0.94298281  1  0  -0.877968  0  2.933263  0  0  -0.836323  0  3.153319  0  0  -0.856071  0  3.14134  0  0  -0.77748  -0.822437  0  3.161468  0
N  N66  1  0.87737356  0.60065445  0.21621717  1  0  -0.621499  0  3.109834  0  0  -0.573701  0  3.354685  0  0  -0.590587  0  3.354725  0  0  -0.617731  -0.561878  0  3.354407  0
N  N67  1  0.12262667  0.39934599  0.78378479  1  0  -0.62151  0  3.109869  0  0  -0.573782  0  3.354724  0  0  -0.590667  0  3.35476  0  0  -0.617738  -0.56196  0  3.354447  0
