# generated using pymatgen
data_AgH20C21N3O4
_symmetry_space_group_name_H-M   'P 1'
_cell_length_a   6.55261290
_cell_length_b   11.31622601
_cell_length_c   13.57128218
_cell_angle_alpha   105.22800512
_cell_angle_beta   90.00118875
_cell_angle_gamma   89.99900965
_symmetry_Int_Tables_number   1
_chemical_formula_structural   AgH20C21N3O4
_chemical_formula_sum   'Ag2 H40 C42 N6 O8'
_cell_volume   970.98833551
_cell_formula_units_Z   2
loop_
 _symmetry_equiv_pos_site_id
 _symmetry_equiv_pos_as_xyz
  1  'x, y, z'
loop_
 _atom_site_type_symbol
 _atom_site_label
 _atom_site_symmetry_multiplicity
 _atom_site_fract_x
 _atom_site_fract_y
 _atom_site_fract_z
 _atom_site_occupancy
 _atom_site_hle17_bader_spin_density
 _atom_site_hle17_ddec_charge
 _atom_site_hle17_ddec_spin_density
 _atom_site_hle17_ddec_sum_bond_order
 _atom_site_hle17_magmom
 _atom_site_hse06_10hf_bader_spin_density
 _atom_site_hse06_10hf_ddec_charge
 _atom_site_hse06_10hf_ddec_spin_density
 _atom_site_hse06_10hf_ddec_sum_bond_order
 _atom_site_hse06_10hf_magmom
 _atom_site_hse06_bader_spin_density
 _atom_site_hse06_ddec_charge
 _atom_site_hse06_ddec_spin_density
 _atom_site_hse06_ddec_sum_bond_order
 _atom_site_hse06_magmom
 _atom_site_pbe_bader_spin_density
 _atom_site_pbe_cm5_charge
 _atom_site_pbe_ddec_charge
 _atom_site_pbe_ddec_spin_density
 _atom_site_pbe_ddec_sum_bond_order
 _atom_site_pbe_magmom
Ag  Ag0  1  0.62079661  0.46962523  0.53908703  1  0  0.524063  0  1.48858  0  0  0.380014  0  1.944343  0  0  0.405768  0  1.89544  0  0  0.492382  0.36426  0  1.976998  0
Ag  Ag1  1  0.12079344  0.53037340  0.46091958  1  0  0.524101  0  1.488596  0  0  0.380047  0  1.944397  0  0  0.405797  0  1.895491  0  0  0.492401  0.364257  0  1.977112  0
H  H2  1  0.60069838  0.74975672  0.90404731  1  0  0.284923  0  0.88595  0  0  0.272944  0  0.942694  0  0  0.279053  0  0.939226  0  0  0.317261  0.268614  0  0.945269  0
H  H3  1  0.10066498  0.25025444  0.09594812  1  0  0.284728  0  0.88583  0  0  0.272805  0  0.942521  0  0  0.278914  0  0.939056  0  0  0.317218  0.26847  0  0.945099  0
H  H4  1  0.07608326  0.03797819  0.82677865  1  0  0.387022  0  0.897872  0  0  0.361191  0  0.974463  0  0  0.371976  0  0.961813  0  0  0.296146  0.353611  0  0.98317  0
H  H5  1  0.57608903  0.96202298  0.17321706  1  0  0.387155  0  0.897848  0  0  0.361287  0  0.974466  0  0  0.372071  0  0.961812  0  0  0.296159  0.353706  0  0.983178  0
H  H6  1  0.02542947  0.69229415  0.83234473  1  0  0.074833  0  0.908487  0  0  0.084989  0  0.965179  0  0  0.087622  0  0.96228  0  0  0.113662  0.083097  0  0.967303  0
H  H7  1  0.52541989  0.30768769  0.16765906  1  0  0.074896  0  0.908294  0  0  0.085055  0  0.96497  0  0  0.08769  0  0.962071  0  0  0.113662  0.083162  0  0.967089  0
H  H8  1  0.94130506  0.64175523  0.99492867  1  0  0.074229  0  0.959946  0  0  0.091524  0  1.022043  0  0  0.092127  0  1.022318  0  0  0.089232  0.091108  0  1.021913  0
H  H9  1  0.44129036  0.35824767  0.00507776  1  0  0.074272  0  0.960118  0  0  0.091596  0  1.022141  0  0  0.092195  0  1.022423  0  0  0.089258  0.091186  0  1.022007  0
H  H10  1  0.70644597  0.57890967  0.94575189  1  0  0.08451  0  0.952535  0  0  0.097643  0  1.021986  0  0  0.098594  0  1.022687  0  0  0.095753  0.096932  0  1.021587  0
H  H11  1  0.20643759  0.42108955  0.05424761  1  0  0.084472  0  0.952633  0  0  0.097602  0  1.022071  0  0  0.09855  0  1.022769  0  0  0.095735  0.096889  0  1.021676  0
H  H12  1  0.24146062  0.50002066  0.82711248  1  0  0.105633  0  0.938908  0  0  0.118309  0  0.996348  0  0  0.121975  0  0.993613  0  0  0.103241  0.115501  0  0.998548  0
H  H13  1  0.74144081  0.49997467  0.17288569  1  0  0.105739  0  0.93884  0  0  0.118383  0  0.996311  0  0  0.122097  0  0.993514  0  0  0.103272  0.115574  0  0.998509  0
H  H14  1  0.36552483  0.28835643  0.78223310  1  0  0.100566  0  0.970152  0  0  0.111553  0  1.032171  0  0  0.114453  0  1.031439  0  0  0.099378  0.109454  0  1.032937  0
H  H15  1  0.86550662  0.71163134  0.21777187  1  0  0.100435  0  0.970246  0  0  0.111431  0  1.032259  0  0  0.114327  0  1.031532  0  0  0.099375  0.109335  0  1.033025  0
H  H16  1  0.81810293  0.16999743  0.90328759  1  0  0.093761  0  0.993727  0  0  0.104619  0  1.057856  0  0  0.107254  0  1.057055  0  0  0.093979  0.102742  0  1.058482  0
H  H17  1  0.31810375  0.83001662  0.09671440  1  0  0.093822  0  0.993831  0  0  0.104689  0  1.057937  0  0  0.107321  0  1.057141  0  0  0.094044  0.102813  0  1.058566  0
H  H18  1  0.69159386  0.38352189  0.94801657  1  0  0.084457  0  0.994316  0  0  0.096999  0  1.054505  0  0  0.099358  0  1.053499  0  0  0.095665  0.09522  0  1.055427  0
H  H19  1  0.19156568  0.61649610  0.05197700  1  0  0.08435  0  0.994346  0  0  0.096933  0  1.054495  0  0  0.099292  0  1.053491  0  0  0.095635  0.095157  0  1.055412  0
H  H20  1  0.64562901  0.03489564  0.98459222  1  0  0.141899  0  0.945243  0  0  0.160278  0  1.005808  0  0  0.163279  0  1.004293  0  0  0.101204  0.158077  0  1.006989  0
H  H21  1  0.14561300  0.96510699  0.01540085  1  0  0.141786  0  0.945245  0  0  0.160193  0  1.00581  0  0  0.163195  0  1.004289  0  0  0.101198  0.157975  0  1.00701  0
H  H22  1  0.46365908  0.92628211  0.91963107  1  0  0.129962  0  0.942036  0  0  0.151562  0  0.997271  0  0  0.154388  0  0.995608  0  0  0.099995  0.149472  0  0.998586  0
H  H23  1  0.96365437  0.07373626  0.08035132  1  0  0.129852  0  0.941962  0  0  0.151494  0  0.997179  0  0  0.154302  0  0.995539  0  0  0.099968  0.149404  0  0.998491  0
H  H24  1  0.58075602  0.02671176  0.85577504  1  0  0.135826  0  0.950768  0  0  0.15344  0  1.014441  0  0  0.156652  0  1.012122  0  0  0.099081  0.151215  0  1.016057  0
H  H25  1  0.08071485  0.97329240  0.14421333  1  0  0.135799  0  0.950652  0  0  0.153428  0  1.014322  0  0  0.156645  0  1.011992  0  0  0.099069  0.151198  0  1.015941  0
H  H26  1  0.61044082  0.61203609  0.37583523  1  0  0.091701  0  0.946967  0  0  0.100512  0  1.011956  0  0  0.103042  0  1.00957  0  0  0.11779  0.098431  0  1.013981  0
H  H27  1  0.11042469  0.38796086  0.62416865  1  0  0.091801  0  0.946933  0  0  0.10059  0  1.01194  0  0  0.103121  0  1.009555  0  0  0.117822  0.098505  0  1.013977  0
H  H28  1  0.63372734  0.82934857  0.37129364  1  0  0.102689  0  0.977483  0  0  0.111667  0  1.042638  0  0  0.113937  0  1.043204  0  0  0.104808  0.110004  0  1.04239  0
H  H29  1  0.13373636  0.17064918  0.62870919  1  0  0.102747  0  0.977577  0  0  0.111718  0  1.042731  0  0  0.113987  0  1.043298  0  0  0.104832  0.110055  0  1.042488  0
H  H30  1  0.46959366  0.93088486  0.69147295  1  0  0.105291  0  0.961171  0  0  0.118056  0  1.019617  0  0  0.120547  0  1.019427  0  0  0.107007  0.116185  0  1.02001  0
H  H31  1  0.96960361  0.06911810  0.30852641  1  0  0.10526  0  0.961009  0  0  0.117979  0  1.019528  0  0  0.12047  0  1.019341  0  0  0.106972  0.11611  0  1.019916  0
H  H32  1  0.47132904  0.70799779  0.68393001  1  0  0.087677  0  0.943788  0  0  0.098232  0  1.002705  0  0  0.101002  0  1.000258  0  0  0.11699  0.095972  0  1.004801  0
H  H33  1  0.97131419  0.29200123  0.31607578  1  0  0.08772  0  0.943795  0  0  0.098287  0  1.002689  0  0  0.101055  0  1.000244  0  0  0.117017  0.096027  0  1.004779  0
H  H34  1  0.51716187  0.22361152  0.37780188  1  0  0.094337  0  0.927116  0  0  0.101098  0  0.992255  0  0  0.104238  0  0.989432  0  0  0.118433  0.098599  0  0.994482  0
H  H35  1  0.01716889  0.77638052  0.62220209  1  0  0.09438  0  0.927209  0  0  0.101073  0  0.992373  0  0  0.104213  0  0.989551  0  0  0.118413  0.09857  0  0.994605  0
H  H36  1  0.51072642  0.00210460  0.36953321  1  0  0.107944  0  0.961029  0  0  0.117897  0  1.023  0  0  0.121221  0  1.021665  0  0  0.107519  0.115492  0  1.024073  0
H  H37  1  0.01071482  0.99788309  0.63046448  1  0  0.108013  0  0.961025  0  0  0.11795  0  1.023002  0  0  0.121276  0  1.021663  0  0  0.107568  0.115542  0  1.024088  0
H  H38  1  0.62988141  0.10063819  0.69475926  1  0  0.101377  0  0.954154  0  0  0.113255  0  1.014842  0  0  0.115772  0  1.014434  0  0  0.106759  0.111304  0  1.015487  0
H  H39  1  0.12987087  0.89934754  0.30524505  1  0  0.101421  0  0.954173  0  0  0.113309  0  1.014827  0  0  0.115817  0  1.014415  0  0  0.106733  0.111351  0  1.015477  0
H  H40  1  0.63981596  0.31836157  0.68804873  1  0  0.092384  0  0.941995  0  0  0.101321  0  1.004174  0  0  0.103544  0  1.002794  0  0  0.118833  0.099483  0  1.00541  0
H  H41  1  0.13981847  0.68162599  0.31195391  1  0  0.092411  0  0.94202  0  0  0.101346  0  1.004219  0  0  0.103563  0  1.002835  0  0  0.118828  0.099508  0  1.005455  0
C  C42  1  0.78340926  0.58276701  0.74281518  1  0  0.61434  0  3.938339  0  0  0.570651  0  4.234175  0  0  0.601317  0  4.232887  0  0  0.181314  0.549917  0  4.233518  0
C  C43  1  0.28340220  0.41723544  0.25718219  1  0  0.614322  0  3.938459  0  0  0.570681  0  4.23419  0  0  0.601346  0  4.232906  0  0  0.181358  0.549952  0  4.23353  0
C  C44  1  0.87206959  0.66051819  0.84503571  1  0  0.054786  0  3.605911  0  0  0.036015  0  3.84525  0  0  0.036422  0  3.856492  0  0  0.008694  0.035853  0  3.83744  0
C  C45  1  0.37204367  0.33948152  0.15496999  1  0  0.05457  0  3.605707  0  0  0.035807  0  3.845053  0  0  0.036211  0  3.856296  0  0  0.008687  0.035644  0  3.837247  0
C  C46  1  0.86714160  0.58686065  0.92502433  1  0  -0.189638  0  3.712657  0  0  -0.241478  0  3.965342  0  0  -0.24263  0  3.978672  0  0  -0.158781  -0.240499  0  3.956152  0
C  C47  1  0.36711757  0.41314120  0.07497374  1  0  -0.189674  0  3.712633  0  0  -0.241498  0  3.965219  0  0  -0.242645  0  3.978549  0  0  -0.158819  -0.240528  0  3.956046  0
C  C48  1  0.95412036  0.45894191  0.89225834  1  0  0.07127  0  3.747235  0  0  0.089368  0  3.991256  0  0  0.087506  0  4.015982  0  0  -0.024269  0.090319  0  3.974689  0
C  C49  1  0.45411674  0.54106052  0.10773263  1  0  0.071117  0  3.746835  0  0  0.08925  0  3.99081  0  0  0.08738  0  4.01555  0  0  -0.024351  0.0902  0  3.97425  0
C  C50  1  0.14475256  0.42959480  0.84474914  1  0  -0.086005  0  3.712994  0  0  -0.105118  0  3.960296  0  0  -0.104543  0  3.979261  0  0  -0.086002  -0.105265  0  3.947491  0
C  C51  1  0.64474357  0.57041363  0.15526301  1  0  -0.086349  0  3.713235  0  0  -0.105468  0  3.96055  0  0  -0.10493  0  3.979509  0  0  -0.086152  -0.105612  0  3.947759  0
C  C52  1  0.21705171  0.30922207  0.81865153  1  0  -0.195771  0  3.743308  0  0  -0.212591  0  3.995398  0  0  -0.218343  0  4.014867  0  0  -0.110311  -0.208615  0  3.982151  0
C  C53  1  0.71703255  0.69077958  0.18135530  1  0  -0.195384  0  3.743496  0  0  -0.21221  0  3.995529  0  0  -0.21796  0  4.015014  0  0  -0.110248  -0.208239  0  3.982284  0
C  C54  1  0.10080227  0.21410769  0.83886487  1  0  0.32037  0  3.864843  0  0  0.312009  0  4.129107  0  0  0.323538  0  4.144921  0  0  0.068131  0.304111  0  4.118083  0
C  C55  1  0.60080527  0.78589233  0.16113228  1  0  0.320421  0  3.86479  0  0  0.312123  0  4.128953  0  0  0.323651  0  4.14476  0  0  0.068228  0.304221  0  4.117935  0
C  C56  1  0.91086599  0.24239812  0.88680421  1  0  -0.243417  0  3.819493  0  0  -0.258565  0  4.069202  0  0  -0.265212  0  4.090225  0  0  -0.12786  -0.254016  0  4.054948  0
C  C57  1  0.41085295  0.75761054  0.11320184  1  0  -0.243767  0  3.819807  0  0  -0.25896  0  4.069549  0  0  -0.265605  0  4.090568  0  0  -0.128074  -0.254406  0  4.055297  0
C  C58  1  0.84042105  0.36284028  0.91198170  1  0  -0.096075  0  3.782236  0  0  -0.115806  0  4.029021  0  0  -0.115327  0  4.049203  0  0  -0.098188  -0.115956  0  4.015466  0
C  C59  1  0.34040601  0.63716995  0.08801959  1  0  -0.095596  0  3.782009  0  0  -0.115351  0  4.028758  0  0  -0.114871  0  4.048943  0  0  -0.097944  -0.115497  0  4.015198  0
C  C60  1  0.77983951  0.88250702  0.87424907  1  0  0.631102  0  3.805182  0  0  0.591667  0  4.101579  0  0  0.620696  0  4.101773  0  0  0.237359  0.572154  0  4.100616  0
C  C61  1  0.27983588  0.11749414  0.12573320  1  0  0.631123  0  3.804837  0  0  0.59171  0  4.101245  0  0  0.620744  0  4.101429  0  0  0.237408  0.572207  0  4.100264  0
C  C62  1  0.60716124  0.97207387  0.91034166  1  0  -0.447689  0  3.66878  0  0  -0.526223  0  3.906632  0  0  -0.532442  0  3.908628  0  0  -0.239779  -0.521742  0  3.905072  0
C  C63  1  0.10715725  0.02793915  0.08965207  1  0  -0.447407  0  3.668598  0  0  -0.526025  0  3.90648  0  0  -0.532223  0  3.908471  0  0  -0.239728  -0.521532  0  3.904934  0
C  C64  1  0.58667661  0.68620484  0.44456334  1  0  0.125688  0  3.696613  0  0  0.090809  0  3.951327  0  0  0.099091  0  3.966698  0  0  0.042579  0.085035  0  3.941615  0
C  C65  1  0.08667960  0.31378943  0.55544261  1  0  0.125486  0  3.696898  0  0  0.09075  0  3.95143  0  0  0.09903  0  3.966809  0  0  0.042603  0.084977  0  3.94172  0
C  C66  1  0.59487144  0.80799556  0.44261598  1  0  -0.149997  0  3.709534  0  0  -0.168962  0  3.957184  0  0  -0.176812  0  3.980031  0  0  -0.083226  -0.163776  0  3.941926  0
C  C67  1  0.09490265  0.19199341  0.55738139  1  0  -0.150226  0  3.709797  0  0  -0.169295  0  3.957365  0  0  -0.177149  0  3.980212  0  0  -0.083368  -0.164109  0  3.942115  0
C  C68  1  0.55661395  0.90065231  0.53199450  1  0  0.085232  0  3.775888  0  0  0.097452  0  4.004073  0  0  0.102086  0  4.02514  0  0  0.006417  0.09442  0  3.989718  0
C  C69  1  0.05663646  0.09934050  0.46800636  1  0  0.085485  0  3.77543  0  0  0.097844  0  4.003413  0  0  0.102494  0  4.024433  0  0  0.006435  0.094807  0  3.989047  0
C  C70  1  0.51091101  0.86400519  0.62074071  1  0  -0.159636  0  3.71005  0  0  -0.17856  0  3.956998  0  0  -0.186493  0  3.979174  0  0  -0.087182  -0.173529  0  3.94254  0
C  C71  1  0.01093617  0.13600834  0.37925734  1  0  -0.159469  0  3.709618  0  0  -0.178394  0  3.956488  0  0  -0.186328  0  3.978665  0  0  -0.086944  -0.173361  0  3.942021  0
C  C72  1  0.50709755  0.74049011  0.61703241  1  0  0.123332  0  3.700698  0  0  0.091728  0  3.948678  0  0  0.098775  0  3.966402  0  0  0.040293  0.086682  0  3.937648  0
C  C73  1  0.00710688  0.25951593  0.38296968  1  0  0.123153  0  3.701258  0  0  0.09158  0  3.949243  0  0  0.098627  0  3.966969  0  0  0.040207  0.086535  0  3.938208  0
C  C74  1  0.54355789  0.19178362  0.44598452  1  0  0.125942  0  3.698244  0  0  0.095655  0  3.947241  0  0  0.103175  0  3.965043  0  0  0.045992  0.090661  0  3.935642  0
C  C75  1  0.04354113  0.80820557  0.55401681  1  0  0.125786  0  3.698098  0  0  0.095608  0  3.946929  0  0  0.103127  0  3.964731  0  0  0.046  0.090618  0  3.935331  0
C  C76  1  0.53864105  0.06814781  0.44250504  1  0  -0.152556  0  3.70772  0  0  -0.17214  0  3.957373  0  0  -0.179336  0  3.977473  0  0  -0.082683  -0.167688  0  3.944381  0
C  C77  1  0.03863288  0.93185259  0.55749379  1  0  -0.152572  0  3.707792  0  0  -0.172195  0  3.95736  0  0  -0.179395  0  3.977467  0  0  -0.082721  -0.16775  0  3.944378  0
C  C78  1  0.56530317  0.03060295  0.53232388  1  0  0.087628  0  3.76535  0  0  0.098446  0  3.996428  0  0  0.102968  0  4.01653  0  0  0.00862  0.095423  0  3.98308  0
C  C79  1  0.06529452  0.96938883  0.46767830  1  0  0.087674  0  3.765816  0  0  0.09851  0  3.996769  0  0  0.103024  0  4.016885  0  0  0.008604  0.095496  0  3.983403  0
C  C80  1  0.60231034  0.12275610  0.62249069  1  0  -0.15565  0  3.707956  0  0  -0.176312  0  3.96108  0  0  -0.183315  0  3.981439  0  0  -0.083913  -0.172004  0  3.947879  0
C  C81  1  0.10230210  0.87724379  0.37751013  1  0  -0.155694  0  3.708116  0  0  -0.176397  0  3.961241  0  0  -0.183386  0  3.981585  0  0  -0.083848  -0.17208  0  3.948028  0
C  C82  1  0.60889358  0.24436445  0.61977316  1  0  0.117488  0  3.704546  0  0  0.088835  0  3.95116  0  0  0.095628  0  3.969417  0  0  0.043808  0.084302  0  3.939301  0
C  C83  1  0.10887697  0.75563091  0.38022369  1  0  0.117497  0  3.704528  0  0  0.088794  0  3.951168  0  0  0.095598  0  3.969406  0  0  0.043863  0.084258  0  3.939308  0
N  N84  1  0.74253110  0.76806401  0.88131818  1  0  -0.426321  0  3.308215  0  0  -0.372799  0  3.550747  0  0  -0.393695  0  3.561099  0  0  -0.408674  -0.358667  0  3.543343  0
N  N85  1  0.24250230  0.23193573  0.11868549  1  0  -0.425813  0  3.307954  0  0  -0.372378  0  3.550487  0  0  -0.393269  0  3.560828  0  0  -0.408501  -0.358246  0  3.543076  0
N  N86  1  0.57670706  0.27934443  0.53329870  1  0  -0.291975  0  3.35117  0  0  -0.205282  0  3.627109  0  0  -0.222437  0  3.642561  0  0  -0.34852  -0.194387  0  3.616979  0
N  N87  1  0.07670138  0.72064389  0.46669465  1  0  -0.291954  0  3.351177  0  0  -0.205196  0  3.626977  0  0  -0.222342  0  3.64242  0  0  -0.348525  -0.194294  0  3.616836  0
N  N88  1  0.54325663  0.65224366  0.53024946  1  0  -0.302248  0  3.36276  0  0  -0.215125  0  3.643627  0  0  -0.230986  0  3.654604  0  0  -0.354255  -0.205233  0  3.637189  0
N  N89  1  0.04327163  0.34774464  0.46975091  1  0  -0.302217  0  3.36311  0  0  -0.215266  0  3.644083  0  0  -0.231128  0  3.655063  0  0  -0.354416  -0.205373  0  3.637648  0
O  O90  1  0.89672901  0.56668868  0.66461069  1  0  -0.656614  0  1.983831  0  0  -0.598498  0  2.243456  0  0  -0.627569  0  2.234368  0  0  -0.342907  -0.576923  0  2.247909  0
O  O91  1  0.39671724  0.43331187  0.33539251  1  0  -0.656597  0  1.983793  0  0  -0.598531  0  2.243431  0  0  -0.627603  0  2.234344  0  0  -0.342932  -0.576959  0  2.247887  0
O  O92  1  0.60290942  0.54372080  0.74609879  1  0  -0.653897  0  1.895502  0  0  -0.602352  0  2.127497  0  0  -0.628274  0  2.118389  0  0  -0.354588  -0.583594  0  2.132632  0
O  O93  1  0.10291018  0.45629202  0.25390148  1  0  -0.653906  0  1.895467  0  0  -0.602379  0  2.127429  0  0  -0.6283  0  2.118328  0  0  -0.354668  -0.583619  0  2.132562  0
O  O94  1  0.17549730  0.09730748  0.81025024  1  0  -0.546334  0  2.090323  0  0  -0.498092  0  2.302714  0  0  -0.516241  0  2.292541  0  0  -0.370455  -0.484845  0  2.309142  0
O  O95  1  0.67548119  0.90269600  0.18976545  1  0  -0.546463  0  2.090322  0  0  -0.498243  0  2.302793  0  0  -0.516395  0  2.29262  0  0  -0.370503  -0.484988  0  2.309215  0
O  O96  1  0.94607126  0.91323829  0.84197615  1  0  -0.608462  0  1.919112  0  0  -0.561852  0  2.136673  0  0  -0.58337  0  2.127886  0  0  -0.316733  -0.546907  0  2.142217  0
O  O97  1  0.44608676  0.08675772  0.15801540  1  0  -0.608685  0  1.918515  0  0  -0.562051  0  2.136059  0  0  -0.583577  0  2.127268  0  0  -0.316828  -0.547117  0  2.14161  0
