# generated using pymatgen
data_Li2MgH20C11N2O11
_symmetry_space_group_name_H-M   'P 1'
_cell_length_a   7.44177003
_cell_length_b   9.19117469
_cell_length_c   12.64303371
_cell_angle_alpha   90.00029760
_cell_angle_beta   89.99976084
_cell_angle_gamma   91.40758999
_symmetry_Int_Tables_number   1
_chemical_formula_structural   Li2MgH20C11N2O11
_chemical_formula_sum   'Li4 Mg2 H40 C22 N4 O22'
_cell_volume   864.50496333
_cell_formula_units_Z   2
loop_
 _symmetry_equiv_pos_site_id
 _symmetry_equiv_pos_as_xyz
  1  'x, y, z'
loop_
 _atom_site_type_symbol
 _atom_site_label
 _atom_site_symmetry_multiplicity
 _atom_site_fract_x
 _atom_site_fract_y
 _atom_site_fract_z
 _atom_site_occupancy
 _atom_site_pbe_bader_spin_density
 _atom_site_pbe_cm5_charge
 _atom_site_pbe_ddec_charge
 _atom_site_pbe_ddec_spin_density
 _atom_site_pbe_ddec_sum_bond_order
 _atom_site_pbe_magmom
Li  Li0  1  0.40579533  0.91743605  0.76106856  1  0  0.491735  0.824087  0  0.457124  0
Li  Li1  1  0.59419711  0.08256165  0.26106811  1  0  0.491714  0.824033  0  0.457199  0
Li  Li2  1  0.46136197  0.70486880  0.57233650  1  0  0.509632  0.811281  0  0.512776  0
Li  Li3  1  0.53863175  0.29512539  0.07233776  1  0  0.509644  0.811249  0  0.512858  0
Mg  Mg4  1  0.10540510  0.19610067  0.68587518  1  0  0.858189  1.21667  0  1.543621  0
Mg  Mg5  1  0.89459598  0.80389872  0.18587828  1  0  0.858208  1.216598  0  1.543719  0
H  H6  1  0.45199852  0.05371833  0.93489701  1  0  0.304061  0.392084  0  0.940985  0
H  H7  1  0.54798996  0.94627841  0.43489831  1  0  0.304134  0.392205  0  0.940823  0
H  H8  1  0.26604019  0.09975746  0.88799006  1  0  0.29893  0.394469  0  0.944468  0
H  H9  1  0.73395281  0.90024659  0.38799154  1  0  0.29893  0.394508  0  0.944409  0
H  H10  1  0.72878616  0.79032841  0.65592545  1  0  0.288967  0.381309  0  0.965882  0
H  H11  1  0.27120575  0.20967180  0.15592230  1  0  0.288904  0.381155  0  0.966094  0
H  H12  1  0.81317469  0.69831095  0.55835920  1  0  0.286152  0.387227  0  0.954748  0
H  H13  1  0.18681548  0.30170052  0.05835975  1  0  0.286124  0.387162  0  0.95482  0
H  H14  1  0.28371043  0.59454934  0.70836319  1  0  0.31166  0.403742  0  0.913621  0
H  H15  1  0.71627819  0.40544034  0.20837077  1  0  0.31159  0.403698  0  0.913689  0
H  H16  1  0.17293219  0.72801860  0.67706729  1  0  0.336819  0.412051  0  0.87853  0
H  H17  1  0.82705935  0.27197197  0.17707727  1  0  0.336777  0.412083  0  0.878566  0
H  H18  1  0.15384760  0.03620760  0.40070988  1  0  0.111654  0.111373  0  1.022989  0
H  H19  1  0.84613961  0.96378127  0.90071103  1  0  0.111658  0.111422  0  1.022886  0
H  H20  1  0.99475217  0.98975241  0.50093739  1  0  0.127384  0.138255  0  0.972941  0
H  H21  1  0.00524088  0.01024888  0.00093650  1  0  0.127372  0.138264  0  0.972872  0
H  H22  1  0.26608197  0.32205329  0.39999210  1  0  0.116862  0.116819  0  0.975778  0
H  H23  1  0.73392149  0.67794111  0.89999878  1  0  0.116849  0.116796  0  0.975696  0
H  H24  1  0.38400533  0.21542658  0.49142472  1  0  0.124673  0.118563  0  0.988482  0
H  H25  1  0.61599864  0.78455978  0.99143840  1  0  0.124668  0.118565  0  0.988581  0
H  H26  1  0.58025050  0.19916573  0.72248134  1  0  0.122632  0.115844  0  0.990758  0
H  H27  1  0.41975440  0.80083612  0.22248636  1  0  0.122667  0.115838  0  0.990798  0
H  H28  1  0.70280559  0.18343838  0.84078426  1  0  0.126137  0.12756  0  1.01023  0
H  H29  1  0.29719048  0.81656753  0.34078488  1  0  0.12614  0.127553  0  1.010259  0
H  H30  1  0.76987604  0.43059128  0.85042868  1  0  0.112615  0.116598  0  0.996306  0
H  H31  1  0.23012263  0.56941362  0.35043171  1  0  0.112622  0.116633  0  0.99633  0
H  H32  1  0.96065344  0.49103896  0.77544023  1  0  0.118986  0.116177  0  0.987747  0
H  H33  1  0.03934974  0.50896326  0.27544270  1  0  0.118999  0.116249  0  0.987654  0
H  H34  1  0.91981834  0.21949620  0.38367067  1  0  0.10533  0.076294  0  0.998544  0
H  H35  1  0.08018000  0.78050458  0.88367376  1  0  0.105358  0.076316  0  0.998544  0
H  H36  1  0.98387659  0.38602068  0.44570981  1  0  0.107779  0.085537  0  1.023096  0
H  H37  1  0.01613070  0.61397951  0.94571718  1  0  0.107812  0.085607  0  1.023097  0
H  H38  1  0.72355956  0.16222873  0.54336902  1  0  0.098127  0.097025  0  1.014325  0
H  H39  1  0.27644271  0.83777835  0.04337531  1  0  0.098123  0.096981  0  1.014367  0
H  H40  1  0.66988872  0.31847798  0.47160021  1  0  0.106484  0.108733  0  0.979103  0
H  H41  1  0.33011865  0.68153436  0.97159759  1  0  0.1065  0.108669  0  0.979096  0
H  H42  1  0.86785917  0.46513834  0.60870895  1  0  0.111103  0.09543  0  1.009537  0
H  H43  1  0.13215992  0.53486061  0.10870576  1  0  0.111126  0.095397  0  1.009643  0
H  H44  1  0.64416343  0.41440392  0.63952847  1  0  0.103084  0.080715  0  0.997348  0
H  H45  1  0.35585024  0.58560282  0.13952572  1  0  0.103081  0.080665  0  0.997349  0
C  C46  1  0.12132838  0.04991718  0.48466448  1  0  -0.069727  -0.239058  0  3.885563  0
C  C47  1  0.87866646  0.95007996  0.98466866  1  0  -0.069702  -0.239101  0  3.885521  0
C  C48  1  0.26705000  0.98275751  0.55275255  1  0  0.238079  0.655934  0  4.138038  0
C  C49  1  0.73294650  0.01723437  0.05275785  1  0  0.238152  0.655983  0  4.137879  0
C  C50  1  0.26736961  0.28593922  0.48297844  1  0  -0.066979  -0.23956  0  3.914609  0
C  C51  1  0.73263319  0.71405251  0.98298921  1  0  -0.066993  -0.239607  0  3.91483  0
C  C52  1  0.30285351  0.41447167  0.55684145  1  0  0.218706  0.633029  0  4.201763  0
C  C53  1  0.69716175  0.58551927  0.05684816  1  0  0.218741  0.63299  0  4.201595  0
C  C54  1  0.71590064  0.18111337  0.75398861  1  0  -0.066631  -0.250937  0  3.910698  0
C  C55  1  0.28410269  0.81888870  0.25399007  1  0  -0.066653  -0.250801  0  3.910857  0
C  C56  1  0.77333330  0.02810076  0.72634932  1  0  0.21853  0.629877  0  4.202015  0
C  C57  1  0.22665127  0.97189447  0.22634516  1  0  0.218391  0.629617  0  4.202347  0
C  C58  1  0.88943916  0.39425163  0.80733913  1  0  -0.06884  -0.241145  0  3.903027  0
C  C59  1  0.11056781  0.60574975  0.30734258  1  0  -0.068892  -0.241224  0  3.90307  0
C  C60  1  0.01755024  0.32033241  0.88538222  1  0  0.225732  0.629328  0  4.135268  0
C  C61  1  0.98245097  0.67967711  0.38537912  1  0  0.225866  0.629548  0  4.135064  0
C  C62  1  0.94463355  0.27207139  0.46084763  1  0  -0.066676  -0.056178  0  3.859854  0
C  C63  1  0.05536967  0.72793215  0.96085058  1  0  -0.06675  -0.056357  0  3.85995  0
C  C64  1  0.77114213  0.27356502  0.52513700  1  0  -0.160467  -0.200262  0  3.920507  0
C  C65  1  0.22886426  0.72643979  0.02514141  1  0  -0.16047  -0.200094  0  3.920496  0
C  C66  1  0.77823491  0.37102183  0.62364834  1  0  -0.069237  -0.062335  0  3.86379  0
C  C67  1  0.22177748  0.62898262  0.12364924  1  0  -0.069336  -0.062311  0  3.864158  0
N  N68  1  0.10206609  0.20397348  0.51230452  1  0  -0.38749  -0.165085  0  3.529657  0
N  N69  1  0.89793490  0.79602576  0.01230995  1  0  -0.38747  -0.165029  0  3.529914  0
N  N70  1  0.84493631  0.29555310  0.71879696  1  0  -0.388603  -0.169294  0  3.558529  0
N  N71  1  0.15507260  0.70444657  0.21879751  1  0  -0.388513  -0.16943  0  3.558578  0
O  O72  1  0.29130157  0.03510254  0.64625679  1  0  -0.391959  -0.691093  0  2.235088  0
O  O73  1  0.70869310  0.96489762  0.14625699  1  0  -0.391981  -0.690997  0  2.235292  0
O  O74  1  0.35473415  0.87922885  0.51466883  1  0  -0.364474  -0.643202  0  2.223832  0
O  O75  1  0.64526286  0.12077365  0.01467077  1  0  -0.364508  -0.643248  0  2.223362  0
O  O76  1  0.24566623  0.40024223  0.65287540  1  0  -0.3423  -0.648553  0  2.170119  0
O  O77  1  0.75434298  0.59974935  0.15288124  1  0  -0.342245  -0.648509  0  2.170016  0
O  O78  1  0.39166509  0.52076985  0.52079639  1  0  -0.397959  -0.635146  0  2.177341  0
O  O79  1  0.60835713  0.47921978  0.02080293  1  0  -0.398058  -0.635106  0  2.177166  0
O  O80  1  0.93301546  0.01057376  0.69445644  1  0  -0.34784  -0.626267  0  2.236758  0
O  O81  1  0.06698686  0.98942352  0.19446142  1  0  -0.347727  -0.625991  0  2.237164  0
O  O82  1  0.65964870  0.92458300  0.74116561  1  0  -0.392142  -0.660464  0  2.220783  0
O  O83  1  0.34035353  0.07542550  0.24115863  1  0  -0.392099  -0.660367  0  2.220466  0
O  O84  1  0.12398323  0.22668353  0.84443131  1  0  -0.359431  -0.640657  0  2.258228  0
O  O85  1  0.87601676  0.77331808  0.34443355  1  0  -0.359488  -0.640668  0  2.258278  0
O  O86  1  0.01378070  0.35542531  0.98098039  1  0  -0.298216  -0.531083  0  2.16233  0
O  O87  1  0.98622532  0.64459036  0.48098664  1  0  -0.298261  -0.531224  0  2.162042  0
O  O88  1  0.35102314  0.01765151  0.89121847  1  0  -0.654378  -0.857058  0  1.926466  0
O  O89  1  0.64896310  0.98235144  0.39121966  1  0  -0.654421  -0.857213  0  1.926358  0
O  O90  1  0.70626515  0.71069824  0.60454130  1  0  -0.688872  -0.888003  0  1.964765  0
O  O91  1  0.29373122  0.28930489  0.10453997  1  0  -0.688816  -0.887833  0  1.964954  0
O  O92  1  0.28629400  0.70300866  0.71058596  1  0  -0.59786  -0.830666  0  1.914966  0
O  O93  1  0.71369196  0.29698320  0.21059235  1  0  -0.597727  -0.830635  0  1.914907  0
