# generated using pymatgen
data_Zn2H15C46I9(NO4)2
_symmetry_space_group_name_H-M   'P 1'
_cell_length_a   12.58145728
_cell_length_b   13.54561064
_cell_length_c   15.27998861
_cell_angle_alpha   86.42548280
_cell_angle_beta   69.01383427
_cell_angle_gamma   80.04520872
_symmetry_Int_Tables_number   1
_chemical_formula_structural   Zn2H15C46I9(NO4)2
_chemical_formula_sum   'Zn2 H15 C46 I9 N2 O8'
_cell_volume   2394.72824085
_cell_formula_units_Z   1
loop_
 _symmetry_equiv_pos_site_id
 _symmetry_equiv_pos_as_xyz
  1  'x, y, z'
loop_
 _atom_site_type_symbol
 _atom_site_label
 _atom_site_symmetry_multiplicity
 _atom_site_fract_x
 _atom_site_fract_y
 _atom_site_fract_z
 _atom_site_occupancy
 _atom_site_pbe_bader_charge
 _atom_site_pbe_bader_spin_density
 _atom_site_pbe_cm5_charge
 _atom_site_pbe_ddec_charge
 _atom_site_pbe_ddec_spin_density
 _atom_site_pbe_ddec_sum_bond_order
 _atom_site_pbe_magmom
Zn  Zn0  1  0.62501170  0.50792996  0.46433207  1  1.318714  0  0.678773  0.888919  0  2.338918  0
Zn  Zn1  1  0.37520762  0.48577068  0.53328371  1  1.306869  0  0.672074  0.884627  0  2.236736  0
H  H2  1  0.22408441  0.62990567  0.48543877  1  0.164954  0  0.112827  0.137323  0  1.046585  0
H  H3  1  0.34910629  0.59887452  0.26277205  1  0.10741  0  0.105159  0.114338  0  0.999554  0
H  H4  1  0.24917241  0.95693846  0.74336449  1  0.10098  0  0.0868  0.104825  0  1.048275  0
H  H5  1  0.56032829  0.82150400  0.45403946  1  0.070513  0  0.10619  0.107243  0  1.026239  0
H  H6  1  0.69387156  0.23045933  0.32036487  1  0.09703  0  0.083444  0.085467  0  1.080026  0
H  H7  1  0.63770005  0.92506088  0.36438552  1  0.054332  0  0.102749  0.102486  0  1.010945  0
H  H8  1  0.73568097  0.05475562  0.26158887  1  0.052077  0  0.104293  0.103365  0  0.986935  0
H  H9  1  0.72296539  0.68523730  0.40574085  1  0.126631  0  0.12467  0.104563  0  0.998673  0
H  H10  1  0.08256924  0.73375114  0.42667524  1  0.075301  0  0.113709  0.117314  0  0.976017  0
H  H11  1  0.89652301  0.75854827  0.39962262  1  0.071538  0  0.116733  0.125507  0  0.982665  0
H  H12  1  0.96121292  0.32530015  0.53871464  1  0.124554  0  0.093169  0.096944  0  1.063684  0
H  H13  1  0.07868874  0.24616998  0.63067434  1  0.101572  0  0.108241  0.133323  0  0.974387  0
H  H14  1  0.78734580  0.38104616  0.99667462  1  0.080195  0  0.084557  0.099523  0  1.074551  0
H  H15  1  0.68079170  0.44528782  0.72278651  1  0.107029  0  0.089678  0.103988  0  1.06116  0
H  H16  1  0.27292560  0.68815959  0.14280595  1  0.074606  0  0.100973  0.117255  0  0.995868  0
C  C17  1  0.55600997  0.30440874  0.48235604  1  1.586609  0  0.207043  0.598634  0  4.18938  0
C  C18  1  0.42324195  0.57179007  0.11332679  1  0.023683  0  -0.008956  0.087207  0  4.060627  0
C  C19  1  0.71220416  0.42050930  0.98241418  1  0.026941  0  -0.108234  -0.173661  0  4.01204  0
C  C20  1  0.70991256  0.42436060  0.89369875  1  -0.276747  0  -0.046196  0.029064  0  3.906832  0
C  C21  1  0.61189459  0.47343109  0.87181409  1  0.053681  0  -0.017179  0.040788  0  4.035571  0
C  C22  1  0.51593450  0.52358141  0.94675430  1  -0.003112  0  0.009994  0.032339  0  3.879737  0
C  C23  1  0.41546517  0.57320169  0.92789521  1  0.026332  0  -0.015986  0.011209  0  3.968495  0
C  C24  1  0.33373645  0.64040437  0.00026866  1  -0.240266  0  -0.051363  0.022741  0  3.892021  0
C  C25  1  0.33504043  0.63646178  0.08958094  1  0.023097  0  -0.097615  -0.164983  0  3.98762  0
C  C26  1  0.60540730  0.47519060  0.78230066  1  -0.04017  0  -0.093317  -0.134693  0  3.952394  0
C  C27  1  0.50243135  0.50906750  0.76640543  1  0.035258  0  -0.023771  -0.049965  0  3.945124  0
C  C28  1  0.50829858  0.49902259  0.66631649  1  1.570355  0  0.208637  0.598213  0  4.158453  0
C  C29  1  0.40457204  0.55075357  0.84199003  1  -0.220084  0  -0.041862  0.008637  0  3.798584  0
C  C30  1  0.31702410  0.92790648  0.67873093  1  0.056357  0  -0.107378  -0.173916  0  3.984559  0
C  C31  1  0.40501802  0.79688222  0.56148571  1  0.005089  0  -0.021741  -0.060623  0  3.945913  0
C  C32  1  0.66211040  0.17011462  0.36803036  1  -0.047443  0  -0.093011  -0.094539  0  3.9766  0
C  C33  1  0.68299795  0.07190746  0.33465616  1  -0.047947  0  -0.094096  -0.08136  0  4.049709  0
C  C34  1  0.62970127  0.99885587  0.39286706  1  -0.031738  0  -0.091629  -0.131931  0  4.004703  0
C  C35  1  0.56111947  0.01993581  0.48760951  1  -0.036602  0  -0.002247  0.043031  0  3.961271  0
C  C36  1  0.55227694  0.11654452  0.52451184  1  0.03182  0  -0.006593  0.036984  0  3.94042  0
C  C37  1  0.48980287  0.95042385  0.54579878  1  0.083042  0  -0.005174  0.036161  0  3.972742  0
C  C38  1  0.40939410  0.98132677  0.63628380  1  -0.037934  0  -0.010177  0.075076  0  3.989005  0
C  C39  1  0.42907961  0.68930925  0.53055366  1  1.595493  0  0.216425  0.607328  0  4.148301  0
C  C40  1  0.43002450  0.06472278  0.67917161  1  -0.232441  0  -0.060939  -0.038287  0  3.903528  0
C  C41  1  0.50271585  0.12802991  0.62564549  1  -0.181963  0  -0.056142  -0.031152  0  3.897252  0
C  C42  1  0.49055627  0.85452188  0.51576466  1  -0.031149  0  -0.078889  -0.123404  0  3.953324  0
C  C43  1  0.30975441  0.84136101  0.63833572  1  -0.245757  0  -0.042257  0.060165  0  3.874216  0
C  C44  1  0.59488088  0.19383879  0.46093267  1  -0.009158  0  -0.015509  -0.055443  0  3.902649  0
C  C45  1  0.89263833  0.67912766  0.41358315  1  0.051486  0  -0.080697  -0.178365  0  3.965519  0
C  C46  1  0.17805158  0.36687540  0.60585790  1  0.360082  0  0.090551  0.210829  0  3.908099  0
C  C47  1  0.09486902  0.31678138  0.59427844  1  0.017775  0  -0.09616  -0.148616  0  3.983489  0
C  C48  1  0.03085826  0.36094796  0.54169275  1  -0.088671  0  -0.072165  -0.061123  0  3.973964  0
C  C49  1  0.04931295  0.45505713  0.49910403  1  0.064204  0  0.000797  0.004755  0  3.937284  0
C  C50  1  0.51184454  0.51196034  0.32594069  1  1.616976  0  0.214056  0.608341  0  4.157832  0
C  C51  1  0.13891936  0.49871716  0.51069339  1  0.423675  0  0.12551  0.230206  0  3.905687  0
C  C52  1  0.97328154  0.51296181  0.45573320  1  0.032817  0  0.00208  -0.028062  0  3.915408  0
C  C53  1  0.98048641  0.61685947  0.43738939  1  -0.056802  0  0.010072  0.114268  0  4.00785  0
C  C54  1  0.07561406  0.65538021  0.44507136  1  -0.023862  0  -0.075633  -0.114643  0  3.963684  0
C  C55  1  0.15436171  0.59808013  0.47737740  1  -0.032305  0  -0.072911  -0.134497  0  3.930377  0
C  C56  1  0.88617094  0.47763851  0.43245933  1  0.422423  0  0.103767  0.161138  0  3.830817  0
C  C57  1  0.79927445  0.63950802  0.41334491  1  0.431142  0  0.045471  0.100737  0  3.936641  0
C  C58  1  0.42352730  0.56329948  0.20514652  1  -0.002199  0  -0.080096  -0.136129  0  3.923624  0
C  C59  1  0.51841906  0.51173329  0.22535517  1  -0.037613  0  -0.017978  -0.045709  0  3.974506  0
C  C60  1  0.61549643  0.46582827  0.15203561  1  -0.201005  0  -0.038771  -0.007907  0  3.801124  0
C  C61  1  0.61669972  0.46812312  0.05879906  1  -0.002724  0  -0.011339  0.059294  0  4.015131  0
C  C62  1  0.51889746  0.52153835  0.03941471  1  0.014317  0  0.003765  0.004625  0  3.910815  0
I  I63  1  0.35482208  0.07766544  0.82600729  1  0.142473  0  0.081415  -0.000285  0  1.593647  0
I  I64  1  0.56609659  0.22914187  0.68621033  1  0.156432  0  0.099374  0.023977  0  1.715182  0
I  I65  1  0.76193792  0.38886263  0.17928513  1  0.125036  0  0.089195  -0.012997  0  1.614106  0
I  I66  1  0.90644249  0.32807597  0.38892953  1  0.189459  0  0.145699  0.041904  0  1.554778  0
I  I67  1  0.24056708  0.30915094  0.71117026  1  0.227802  0  0.125952  0.005463  0  1.879365  0
I  I68  1  0.85847056  0.35610924  0.78631682  1  0.091704  0  0.067437  -0.051282  0  1.570753  0
I  I69  1  0.23670847  0.55679261  0.84166228  1  0.177607  0  0.080616  0.006816  0  1.822142  0
I  I70  1  0.23298475  0.77050620  0.96883508  1  0.095698  0  0.031464  -0.075464  0  1.519658  0
I  I71  1  0.15033878  0.78947032  0.69286188  1  0.125739  0  0.057671  -0.029934  0  1.496482  0
N  N72  1  0.79716578  0.53903570  0.42090978  1  -1.250943  0  -0.321718  -0.252452  0  3.507078  0
N  N73  1  0.20545989  0.45179221  0.56096054  1  -1.200244  0  -0.308656  -0.28864  0  3.391563  0
O  O74  1  0.63386640  0.35952057  0.45373202  1  -1.177162  0  -0.32428  -0.574071  0  2.489731  0
O  O75  1  0.44804846  0.33430707  0.51864025  1  -1.159466  0  -0.316245  -0.545784  0  2.369648  0
O  O76  1  0.60841143  0.49629257  0.60385124  1  -1.157546  0  -0.320612  -0.542066  0  2.309015  0
O  O77  1  0.41609201  0.49486185  0.65180665  1  -1.169974  0  -0.314768  -0.553377  0  2.474774  0
O  O78  1  0.53581339  0.65267109  0.49808756  1  -1.168258  0  -0.31354  -0.554391  0  2.361917  0
O  O79  1  0.34589870  0.64265523  0.54086211  1  -1.175692  0  -0.311851  -0.543476  0  2.391755  0
O  O80  1  0.59950005  0.53238223  0.33929846  1  -1.159106  0  -0.318339  -0.54604  0  2.385742  0
O  O81  1  0.41846866  0.49331265  0.38815452  1  -1.172822  0  -0.315008  -0.547673  0  2.299325  0
