# generated using pymatgen
data_TmH4(C3O4)2
_symmetry_space_group_name_H-M   'P 1'
_cell_length_a   5.76160706
_cell_length_b   8.95550830
_cell_length_c   14.76033014
_cell_angle_alpha   89.99990575
_cell_angle_beta   89.99998882
_cell_angle_gamma   93.07364506
_symmetry_Int_Tables_number   1
_chemical_formula_structural   TmH4(C3O4)2
_chemical_formula_sum   'Tm4 H16 C24 O32'
_cell_volume   760.50966837
_cell_formula_units_Z   4
loop_
 _symmetry_equiv_pos_site_id
 _symmetry_equiv_pos_as_xyz
  1  'x, y, z'
loop_
 _atom_site_type_symbol
 _atom_site_label
 _atom_site_symmetry_multiplicity
 _atom_site_fract_x
 _atom_site_fract_y
 _atom_site_fract_z
 _atom_site_occupancy
 _atom_site_hle17_bader_spin_density
 _atom_site_hle17_ddec_charge
 _atom_site_hle17_ddec_spin_density
 _atom_site_hle17_ddec_sum_bond_order
 _atom_site_hle17_magmom
 _atom_site_hse06_10hf_bader_spin_density
 _atom_site_hse06_10hf_ddec_charge
 _atom_site_hse06_10hf_ddec_spin_density
 _atom_site_hse06_10hf_ddec_sum_bond_order
 _atom_site_hse06_10hf_magmom
 _atom_site_hse06_bader_spin_density
 _atom_site_hse06_ddec_charge
 _atom_site_hse06_ddec_spin_density
 _atom_site_hse06_ddec_sum_bond_order
 _atom_site_hse06_magmom
 _atom_site_pbe_bader_spin_density
 _atom_site_pbe_cm5_charge
 _atom_site_pbe_ddec_charge
 _atom_site_pbe_ddec_spin_density
 _atom_site_pbe_ddec_sum_bond_order
 _atom_site_pbe_magmom
Tm  Tm0  1  0.86641146  0.94083618  0.87073474  1  0  2.21529  0  1.738203  0  0  2.245613  0  1.880884  0  0  2.292792  0  1.840493  0  0  1.536701  2.118197  0  2.08063  0
Tm  Tm1  1  0.86641151  0.44083773  0.62926614  1  0  2.215244  0  1.738244  0  0  2.245569  0  1.880932  0  0  2.292744  0  1.840544  0  0  1.536669  2.118125  0  2.080709  0
Tm  Tm2  1  0.13358690  0.05915910  0.12926469  1  0  2.215213  0  1.738287  0  0  2.245548  0  1.880958  0  0  2.292728  0  1.840563  0  0  1.536658  2.118124  0  2.080717  0
Tm  Tm3  1  0.13358590  0.55916651  0.37073328  1  0  2.215307  0  1.738191  0  0  2.24559  0  1.880932  0  0  2.29277  0  1.840538  0  0  1.536706  2.118151  0  2.080711  0
H  H4  1  0.10940551  0.93861805  0.70059563  1  0  0.454532  0  0.837824  0  0  0.422827  0  0.902109  0  0  0.433159  0  0.887182  0  0  0.306093  0.415211  0  0.912904  0
H  H5  1  0.10940894  0.43861914  0.79940398  1  0  0.454486  0  0.837864  0  0  0.422757  0  0.902204  0  0  0.433091  0  0.887271  0  0  0.306042  0.415141  0  0.912998  0
H  H6  1  0.89059518  0.06138394  0.29940447  1  0  0.454509  0  0.83785  0  0  0.422798  0  0.902147  0  0  0.433131  0  0.887219  0  0  0.306068  0.415182  0  0.912941  0
H  H7  1  0.89059205  0.56138621  0.20059274  1  0  0.45449  0  0.837873  0  0  0.422792  0  0.902143  0  0  0.433123  0  0.887219  0  0  0.306069  0.415178  0  0.912936  0
H  H8  1  0.31626517  0.96282697  0.77141313  1  0  0.455583  0  0.817768  0  0  0.428244  0  0.878891  0  0  0.43787  0  0.864729  0  0  0.317003  0.420455  0  0.890198  0
H  H9  1  0.31626323  0.46282602  0.72858508  1  0  0.455529  0  0.817846  0  0  0.428217  0  0.878939  0  0  0.437844  0  0.864777  0  0  0.316989  0.420426  0  0.890249  0
H  H10  1  0.68373900  0.03717501  0.22858494  1  0  0.455557  0  0.81777  0  0  0.428247  0  0.878883  0  0  0.437872  0  0.864723  0  0  0.317007  0.420456  0  0.890192  0
H  H11  1  0.68373746  0.53717597  0.27141232  1  0  0.4556  0  0.817746  0  0  0.42827  0  0.878851  0  0  0.437893  0  0.864694  0  0  0.317035  0.42048  0  0.89016  0
H  H12  1  0.84920337  0.80488189  0.07006031  1  0  0.443827  0  0.852894  0  0  0.410584  0  0.921337  0  0  0.422013  0  0.904741  0  0  0.308281  0.40246  0  0.932358  0
H  H13  1  0.84920539  0.30488710  0.42994005  1  0  0.443734  0  0.852926  0  0  0.410471  0  0.921483  0  0  0.421899  0  0.904889  0  0  0.308233  0.402346  0  0.932503  0
H  H14  1  0.15080407  0.19511785  0.92993980  1  0  0.443803  0  0.852924  0  0  0.410562  0  0.921366  0  0  0.42199  0  0.904771  0  0  0.308288  0.402437  0  0.932387  0
H  H15  1  0.15079366  0.69511601  0.57006006  1  0  0.44381  0  0.852867  0  0  0.410565  0  0.921351  0  0  0.421993  0  0.904758  0  0  0.308273  0.402442  0  0.93237  0
H  H16  1  0.67935038  0.94447676  0.06580153  1  0  0.454841  0  0.826071  0  0  0.423731  0  0.897366  0  0  0.434824  0  0.880985  0  0  0.317368  0.4156  0  0.908703  0
H  H17  1  0.67934864  0.44447862  0.43420005  1  0  0.454805  0  0.8262  0  0  0.423699  0  0.897427  0  0  0.43479  0  0.88105  0  0  0.317352  0.415564  0  0.90877  0
H  H18  1  0.32065715  0.05552410  0.93419789  1  0  0.454809  0  0.8261  0  0  0.423707  0  0.897397  0  0  0.434799  0  0.881018  0  0  0.317385  0.415573  0  0.908737  0
H  H19  1  0.32064868  0.55552450  0.56580005  1  0  0.454817  0  0.826179  0  0  0.423709  0  0.897414  0  0  0.434802  0  0.881033  0  0  0.317343  0.415577  0  0.908752  0
C  C20  1  0.64742965  0.40819232  0.95275622  1  0  -0.038646  0  3.633827  0  0  -0.03893  0  3.87756  0  0  -0.040602  0  3.893004  0  0  0.00872  -0.038944  0  3.870634  0
C  C21  1  0.64742977  0.90819163  0.54724065  1  0  -0.038536  0  3.633651  0  0  -0.038674  0  3.877436  0  0  -0.04039  0  3.892897  0  0  0.00883  -0.038699  0  3.870519  0
C  C22  1  0.35256226  0.59180857  0.04724117  1  0  -0.038427  0  3.63348  0  0  -0.03877  0  3.877367  0  0  -0.040355  0  3.892673  0  0  0.008805  -0.038782  0  3.870438  0
C  C23  1  0.35257806  0.09181258  0.45275742  1  0  -0.038507  0  3.633657  0  0  -0.038673  0  3.877377  0  0  -0.040381  0  3.892874  0  0  0.008842  -0.03869  0  3.870444  0
C  C24  1  0.55844181  0.36408812  0.03794473  1  0  -0.062034  0  3.654938  0  0  -0.065052  0  3.903543  0  0  -0.066985  0  3.919039  0  0  0.006707  -0.064183  0  3.894908  0
C  C25  1  0.55844790  0.86409751  0.46205423  1  0  -0.062052  0  3.655102  0  0  -0.06522  0  3.90383  0  0  -0.067151  0  3.919338  0  0  0.006593  -0.064346  0  3.895186  0
C  C26  1  0.44154247  0.63590495  0.96206011  1  0  -0.062083  0  3.655027  0  0  -0.065138  0  3.903616  0  0  -0.067098  0  3.919103  0  0  0.00659  -0.064269  0  3.894977  0
C  C27  1  0.44155666  0.13590895  0.53794248  1  0  -0.062121  0  3.655097  0  0  -0.065185  0  3.903714  0  0  -0.067132  0  3.919214  0  0  0.006611  -0.064311  0  3.895069  0
C  C28  1  0.58988019  0.54447645  0.91434509  1  0  -0.060555  0  3.664329  0  0  -0.06214  0  3.912005  0  0  -0.063776  0  3.92704  0  0  0.006194  -0.061745  0  3.903389  0
C  C29  1  0.58988538  0.04447698  0.58565826  1  0  -0.060504  0  3.664163  0  0  -0.062292  0  3.911999  0  0  -0.063832  0  3.926919  0  0  0.006147  -0.061904  0  3.903389  0
C  C30  1  0.41010553  0.45551326  0.08566043  1  0  -0.060546  0  3.664268  0  0  -0.062289  0  3.912071  0  0  -0.063915  0  3.927022  0  0  0.006137  -0.061901  0  3.90347  0
C  C31  1  0.41012062  0.95552611  0.41433981  1  0  -0.060564  0  3.664331  0  0  -0.062197  0  3.912082  0  0  -0.063791  0  3.927076  0  0  0.00617  -0.061812  0  3.903469  0
C  C32  1  0.80911273  0.30267304  0.90851878  1  0  0.720428  0  3.835896  0  0  0.665964  0  4.141902  0  0  0.701229  0  4.129699  0  0  0.235651  0.641025  0  4.148381  0
C  C33  1  0.80910048  0.80267003  0.59148157  1  0  0.720357  0  3.83562  0  0  0.665733  0  4.141929  0  0  0.700988  0  4.129756  0  0  0.235589  0.640796  0  4.148401  0
C  C34  1  0.19088583  0.69732448  0.09148471  1  0  0.720396  0  3.83589  0  0  0.665929  0  4.141952  0  0  0.701166  0  4.129754  0  0  0.235666  0.640991  0  4.148434  0
C  C35  1  0.19089867  0.19733420  0.40851717  1  0  0.720441  0  3.835529  0  0  0.665801  0  4.141857  0  0  0.70105  0  4.129696  0  0  0.235632  0.640864  0  4.148328  0
C  C36  1  0.65019840  0.22292413  0.07631928  1  0  0.733348  0  3.823597  0  0  0.685429  0  4.120849  0  0  0.720485  0  4.108855  0  0  0.242414  0.660539  0  4.124151  0
C  C37  1  0.65019534  0.72292804  0.42368050  1  0  0.733416  0  3.82343  0  0  0.685558  0  4.120653  0  0  0.720629  0  4.10863  0  0  0.242448  0.660667  0  4.123949  0
C  C38  1  0.34980200  0.77707451  0.92368488  1  0  0.733285  0  3.823459  0  0  0.685456  0  4.120585  0  0  0.720534  0  4.108552  0  0  0.242437  0.660566  0  4.123885  0
C  C39  1  0.34980535  0.27707395  0.57631893  1  0  0.733395  0  3.823535  0  0  0.685547  0  4.120693  0  0  0.720619  0  4.108671  0  0  0.242457  0.660654  0  4.123989  0
C  C40  1  0.68450256  0.58634579  0.82213033  1  0  0.730278  0  3.835055  0  0  0.683894  0  4.135474  0  0  0.718496  0  4.123494  0  0  0.239952  0.659427  0  4.137857  0
C  C41  1  0.68450824  0.08633265  0.67787297  1  0  0.730108  0  3.835201  0  0  0.683928  0  4.135302  0  0  0.718506  0  4.123317  0  0  0.239991  0.659469  0  4.137685  0
C  C42  1  0.31548772  0.41365623  0.17787181  1  0  0.730013  0  3.835614  0  0  0.683888  0  4.135583  0  0  0.718479  0  4.123609  0  0  0.239943  0.659423  0  4.137978  0
C  C43  1  0.31550024  0.91365926  0.32212646  1  0  0.730193  0  3.835145  0  0  0.68386  0  4.135462  0  0  0.718453  0  4.123485  0  0  0.239908  0.659401  0  4.137845  0
O  O44  1  0.15171424  0.98129527  0.76139980  1  0  -0.906817  0  1.837104  0  0  -0.880304  0  2.01314  0  0  -0.898307  0  1.981468  0  0  -0.645454  -0.85438  0  2.044863  0
O  O45  1  0.15171413  0.48129540  0.73859840  1  0  -0.906732  0  1.837179  0  0  -0.880235  0  2.013166  0  0  -0.898244  0  1.981493  0  0  -0.645424  -0.854296  0  2.044876  0
O  O46  1  0.84828789  0.01870336  0.23860098  1  0  -0.906775  0  1.837114  0  0  -0.88028  0  2.013127  0  0  -0.89829  0  1.981456  0  0  -0.645442  -0.854349  0  2.044853  0
O  O47  1  0.84828676  0.51870882  0.26139831  1  0  -0.906821  0  1.837154  0  0  -0.880305  0  2.013198  0  0  -0.898314  0  1.981528  0  0  -0.645495  -0.854367  0  2.0449  0
O  O48  1  0.83091328  0.90888741  0.04532300  1  0  -0.964973  0  1.976196  0  0  -0.947765  0  2.177713  0  0  -0.968396  0  2.146368  0  0  -0.629211  -0.910895  0  2.205195  0
O  O49  1  0.83091182  0.40889257  0.45467725  1  0  -0.964835  0  1.976251  0  0  -0.947608  0  2.177777  0  0  -0.96824  0  2.146441  0  0  -0.629151  -0.910739  0  2.205258  0
O  O50  1  0.16909435  0.09111456  0.95467846  1  0  -0.96491  0  1.976213  0  0  -0.947686  0  2.17769  0  0  -0.968315  0  2.146347  0  0  -0.629232  -0.910815  0  2.205171  0
O  O51  1  0.16908723  0.59111054  0.54532218  1  0  -0.964912  0  1.976196  0  0  -0.947681  0  2.177664  0  0  -0.968312  0  2.146322  0  0  -0.629175  -0.910813  0  2.205147  0
O  O52  1  0.01831859  0.34629985  0.89253406  1  0  -0.626641  0  1.964595  0  0  -0.569368  0  2.181881  0  0  -0.594473  0  2.171298  0  0  -0.296224  -0.552567  0  2.189555  0
O  O53  1  0.01830902  0.84628784  0.60746972  1  0  -0.626551  0  1.964643  0  0  -0.569256  0  2.18203  0  0  -0.594347  0  2.171451  0  0  -0.296153  -0.552462  0  2.189705  0
O  O54  1  0.98167555  0.65370663  0.10746875  1  0  -0.626619  0  1.964732  0  0  -0.56935  0  2.182016  0  0  -0.594458  0  2.171452  0  0  -0.296199  -0.552554  0  2.189693  0
O  O55  1  0.98168811  0.15371304  0.39253106  1  0  -0.626608  0  1.964592  0  0  -0.569283  0  2.181975  0  0  -0.594378  0  2.171404  0  0  -0.29617  -0.552489  0  2.18965  0
O  O56  1  0.72612119  0.16875142  0.89859766  1  0  -0.717876  0  2.050435  0  0  -0.689371  0  2.298728  0  0  -0.714162  0  2.286469  0  0  -0.400697  -0.659198  0  2.311245  0
O  O57  1  0.72609987  0.66874393  0.60140216  1  0  -0.717949  0  2.050185  0  0  -0.689356  0  2.298528  0  0  -0.714145  0  2.286278  0  0  -0.400761  -0.65918  0  2.311041  0
O  O58  1  0.27388624  0.83124832  0.10140244  1  0  -0.717895  0  2.050335  0  0  -0.689364  0  2.298609  0  0  -0.714161  0  2.286366  0  0  -0.400736  -0.659187  0  2.311126  0
O  O59  1  0.27389552  0.33125696  0.39859862  1  0  -0.717963  0  2.050175  0  0  -0.689387  0  2.298551  0  0  -0.714172  0  2.286303  0  0  -0.400786  -0.659215  0  2.311065  0
O  O60  1  0.86791136  0.22310122  0.08459957  1  0  -0.685618  0  2.093178  0  0  -0.656715  0  2.334952  0  0  -0.682904  0  2.326848  0  0  -0.383005  -0.625592  0  2.343746  0
O  O61  1  0.86790647  0.72310404  0.41539883  1  0  -0.68569  0  2.093155  0  0  -0.656807  0  2.334952  0  0  -0.683001  0  2.326838  0  0  -0.383043  -0.625685  0  2.343747  0
O  O62  1  0.13208769  0.77690189  0.91540324  1  0  -0.685597  0  2.093093  0  0  -0.656704  0  2.334796  0  0  -0.682899  0  2.32668  0  0  -0.382994  -0.625582  0  2.343592  0
O  O63  1  0.13209258  0.27689907  0.58460060  1  0  -0.685638  0  2.093218  0  0  -0.656738  0  2.334946  0  0  -0.682929  0  2.326832  0  0  -0.383001  -0.625614  0  2.343738  0
O  O64  1  0.51456970  0.10931789  0.09471121  1  0  -0.744357  0  2.143592  0  0  -0.709057  0  2.390697  0  0  -0.733967  0  2.377405  0  0  -0.394264  -0.678683  0  2.401327  0
O  O65  1  0.51456318  0.60932186  0.40528938  1  0  -0.744376  0  2.143531  0  0  -0.709086  0  2.390629  0  0  -0.733995  0  2.377321  0  0  -0.39426  -0.678716  0  2.401263  0
O  O66  1  0.48543754  0.89067961  0.90529228  1  0  -0.744328  0  2.143593  0  0  -0.709065  0  2.390651  0  0  -0.73399  0  2.37737  0  0  -0.394278  -0.678695  0  2.401285  0
O  O67  1  0.48543761  0.39068124  0.59471140  1  0  -0.744365  0  2.143564  0  0  -0.709105  0  2.390653  0  0  -0.734024  0  2.377365  0  0  -0.394309  -0.678734  0  2.401286  0
O  O68  1  0.67118402  0.48337081  0.76220625  1  0  -0.716664  0  2.055693  0  0  -0.682963  0  2.293383  0  0  -0.708734  0  2.282653  0  0  -0.389422  -0.652857  0  2.304911  0
O  O69  1  0.67120342  0.98337293  0.73778987  1  0  -0.716616  0  2.056225  0  0  -0.682928  0  2.29377  0  0  -0.708717  0  2.283093  0  0  -0.389397  -0.652802  0  2.305236  0
O  O70  1  0.32879343  0.51662340  0.23778979  1  0  -0.716554  0  2.056032  0  0  -0.682901  0  2.293601  0  0  -0.708663  0  2.28287  0  0  -0.389349  -0.652771  0  2.305075  0
O  O71  1  0.32880546  0.01662345  0.26220549  1  0  -0.716589  0  2.055995  0  0  -0.682899  0  2.293672  0  0  -0.708664  0  2.282941  0  0  -0.389363  -0.652785  0  2.30517  0
O  O72  1  0.77283196  0.71585425  0.80894491  1  0  -0.683911  0  2.111425  0  0  -0.66458  0  2.36788  0  0  -0.688523  0  2.356261  0  0  -0.386704  -0.633824  0  2.376871  0
O  O73  1  0.77284279  0.21586008  0.69105621  1  0  -0.683897  0  2.111121  0  0  -0.664603  0  2.367462  0  0  -0.688549  0  2.35585  0  0  -0.386776  -0.633844  0  2.376455  0
O  O74  1  0.22716224  0.28413321  0.19105993  1  0  -0.683865  0  2.111346  0  0  -0.6646  0  2.367654  0  0  -0.688552  0  2.35604  0  0  -0.386766  -0.633845  0  2.37665  0
O  O75  1  0.22716639  0.78413965  0.30894119  1  0  -0.683924  0  2.111212  0  0  -0.664578  0  2.367638  0  0  -0.688531  0  2.356027  0  0  -0.386756  -0.633823  0  2.376632  0
