# generated using pymatgen
data_Zn2H14C18N4O11
_symmetry_space_group_name_H-M   'P 1'
_cell_length_a   9.94277840
_cell_length_b   11.18589303
_cell_length_c   14.49210760
_cell_angle_alpha   88.30758310
_cell_angle_beta   94.21830216
_cell_angle_gamma   99.54788351
_symmetry_Int_Tables_number   1
_chemical_formula_structural   Zn2H14C18N4O11
_chemical_formula_sum   'Zn2 H14 C18 N4 O11'
_cell_volume   1584.91591610
_cell_formula_units_Z   1
loop_
 _symmetry_equiv_pos_site_id
 _symmetry_equiv_pos_as_xyz
  1  'x, y, z'
loop_
 _atom_site_type_symbol
 _atom_site_label
 _atom_site_symmetry_multiplicity
 _atom_site_fract_x
 _atom_site_fract_y
 _atom_site_fract_z
 _atom_site_occupancy
 _atom_site_pbe_bader_charge
 _atom_site_pbe_bader_spin_density
 _atom_site_pbe_cm5_charge
 _atom_site_pbe_ddec_charge
 _atom_site_pbe_ddec_spin_density
 _atom_site_pbe_ddec_sum_bond_order
 _atom_site_pbe_magmom
Zn  Zn0  1  0.35523545  0.46690007  0.49219948  1  1.300812  0  0.676037  0.891258  0  2.388358  0
Zn  Zn1  1  0.65499412  0.52461984  0.51296345  1  1.295258  0  0.687538  0.849392  0  2.350196  0
H  H2  1  0.70256220  0.90239339  0.52707615  1  0.093482  0  0.104964  0.103986  0  1.008593  0
H  H3  1  0.75289234  0.43695039  0.36426515  1  0.663088  0  0.311083  0.376761  0  0.959812  0
H  H4  1  0.04240057  0.56719910  0.58415057  1  0.405908  0  0.307186  0.222548  0  0.96781  0
H  H5  1  0.98860878  0.71551193  0.67697936  1  0.057529  0  0.11166  0.126503  0  0.968972  0
H  H6  1  0.81403236  0.68478066  0.63562865  1  0.071428  0  0.104075  0.127319  0  1.012327  0
H  H7  1  0.93928656  0.75841015  0.56047829  1  0.040226  0  0.088056  0.089763  0  0.997842  0
H  H8  1  0.38985794  0.87824186  0.49871863  1  0.141504  0  0.108982  0.137481  0  1.009407  0
H  H9  1  0.14255597  0.53281956  0.42381494  1  0.437147  0  0.309834  0.310001  0  0.918422  0
H  H10  1  0.79084027  0.06263314  0.59194996  1  0.600366  0  0.333908  0.354893  0  0.890205  0
H  H11  1  0.34585936  0.14407424  0.44435312  1  0.644726  0  0.314492  0.349658  0  0.934428  0
H  H12  1  0.91203506  0.26311963  0.54614598  1  0.515386  0  0.317339  0.274856  0  0.971166  0
H  H13  1  0.16583701  0.19112898  0.52948992  1  0.060602  0  0.105083  0.114281  0  0.994699  0
H  H14  1  0.07151545  0.16925740  0.63066946  1  0.051494  0  0.113274  0.118236  0  0.971642  0
H  H15  1  0.19816393  0.30034438  0.61895966  1  0.103247  0  0.111975  0.138283  0  1.01101  0
C  C16  1  0.50031155  0.72394154  0.50173136  1  1.554323  0  0.206264  0.633446  0  4.175371  0
C  C17  1  0.52398836  0.26757704  0.50218978  1  1.549999  0  0.204348  0.544891  0  4.218119  0
C  C18  1  0.50678441  0.49596223  0.31897960  1  1.660953  0  0.228412  0.667914  0  4.236961  0
C  C19  1  0.49601672  0.48096835  0.78033782  1  0.193218  0  -0.00751  -0.125943  0  3.838557  0
C  C20  1  0.49811627  0.48006373  0.86514448  1  -0.236498  0  -0.017446  0.011606  0  4.270716  0
C  C21  1  0.50163388  0.48061715  0.95778077  1  0.062547  0  -0.003799  -0.001537  0  4.199219  0
C  C22  1  0.50574163  0.48271913  0.04309022  1  -0.157036  0  -0.004593  -0.010955  0  4.198723  0
C  C23  1  0.50908379  0.48639586  0.13561445  1  -0.231974  0  -0.012045  0.028853  0  4.265597  0
C  C24  1  0.11811888  0.23695254  0.58132781  1  0.289749  0  -0.127962  -0.210832  0  3.901795  0
C  C25  1  0.91922579  0.68925948  0.61595553  1  0.246257  0  -0.143793  -0.252487  0  3.97005  0
C  C26  1  0.51117957  0.49077614  0.22025342  1  0.161582  0  -0.012158  -0.146482  0  3.848439  0
C  C27  1  0.61826085  0.06771849  0.52702695  1  0.481899  0  0.065092  0.204716  0  4.048765  0
C  C28  1  0.51771804  0.13405801  0.49895128  1  0.590298  0  0.059008  0.039759  0  3.969895  0
C  C29  1  0.60575988  0.93807330  0.51943050  1  -0.101117  0  -0.088152  -0.133761  0  4.027734  0
C  C30  1  0.49166259  0.85430611  0.50511183  1  -0.037259  0  -0.094178  -0.201575  0  3.867873  0
C  C31  1  0.03426363  0.40075442  0.48669805  1  1.229077  0  0.262608  0.362947  0  4.117949  0
C  C32  1  0.90625185  0.45063960  0.45771446  1  1.285107  0  0.22869  0.313054  0  4.103002  0
C  C33  1  0.49931116  0.48488955  0.68090125  1  1.672858  0  0.222173  0.65257  0  4.263026  0
N  N34  1  0.15343906  0.45936500  0.46555935  1  -1.260995  0  -0.522578  -0.615398  0  3.260134  0
N  N35  1  0.86354511  0.52873331  0.50854183  1  -0.858703  0  -0.267865  -0.275369  0  3.506438  0
N  N36  1  0.01196872  0.29987582  0.53875243  1  -1.263527  0  -0.402878  -0.25422  0  3.571298  0
N  N37  1  0.94075701  0.56889245  0.59003221  1  -0.679403  0  -0.366749  -0.172942  0  3.436038  0
O  O38  1  0.38892903  0.65037339  0.51072282  1  -1.168089  0  -0.32672  -0.566172  0  2.292068  0
O  O39  1  0.39480911  0.07549876  0.46215195  1  -1.147515  0  -0.348427  -0.408007  0  2.323202  0
O  O40  1  0.84150892  0.40364084  0.38039543  1  -1.146649  0  -0.331357  -0.434832  0  2.279046  0
O  O41  1  0.61677765  0.69369871  0.49070693  1  -1.161633  0  -0.326599  -0.559451  0  2.323007  0
O  O42  1  0.39008980  0.43915760  0.63434832  1  -1.149837  0  -0.306364  -0.549877  0  2.289685  0
O  O43  1  0.61193205  0.53419518  0.64971311  1  -1.134152  0  -0.298623  -0.520593  0  2.277248  0
O  O44  1  0.41061841  0.30125498  0.47137895  1  -1.164346  0  -0.320045  -0.573207  0  2.372476  0
O  O45  1  0.63119317  0.33679705  0.53170022  1  -1.152406  0  -0.304455  -0.51139  0  2.342847  0
O  O46  1  0.39461662  0.50683969  0.35036089  1  -1.120177  0  -0.293254  -0.510077  0  2.218526  0
O  O47  1  0.61854661  0.48914361  0.36834258  1  -1.173577  0  -0.303534  -0.566727  0  2.361823  0
O  O48  1  0.74426286  0.12623027  0.56398077  1  -1.115178  0  -0.350996  -0.44314  0  2.315114  0
