# generated using pymatgen
data_Ag3H13C17(NO)6
_symmetry_space_group_name_H-M   'P 1'
_cell_length_a   7.29421314
_cell_length_b   9.76886227
_cell_length_c   13.40755686
_cell_angle_alpha   96.98429736
_cell_angle_beta   98.23703023
_cell_angle_gamma   94.13866168
_symmetry_Int_Tables_number   1
_chemical_formula_structural   Ag3H13C17(NO)6
_chemical_formula_sum   'Ag6 H26 C34 N12 O12'
_cell_volume   934.58783151
_cell_formula_units_Z   2
loop_
 _symmetry_equiv_pos_site_id
 _symmetry_equiv_pos_as_xyz
  1  'x, y, z'
loop_
 _atom_site_type_symbol
 _atom_site_label
 _atom_site_symmetry_multiplicity
 _atom_site_fract_x
 _atom_site_fract_y
 _atom_site_fract_z
 _atom_site_occupancy
 _atom_site_hle17_bader_spin_density
 _atom_site_hle17_ddec_charge
 _atom_site_hle17_ddec_spin_density
 _atom_site_hle17_ddec_sum_bond_order
 _atom_site_hle17_magmom
 _atom_site_hse06_10hf_bader_spin_density
 _atom_site_hse06_10hf_ddec_charge
 _atom_site_hse06_10hf_ddec_spin_density
 _atom_site_hse06_10hf_ddec_sum_bond_order
 _atom_site_hse06_10hf_magmom
 _atom_site_hse06_bader_spin_density
 _atom_site_hse06_ddec_charge
 _atom_site_hse06_ddec_spin_density
 _atom_site_hse06_ddec_sum_bond_order
 _atom_site_hse06_magmom
 _atom_site_pbe_bader_spin_density
 _atom_site_pbe_cm5_charge
 _atom_site_pbe_ddec_charge
 _atom_site_pbe_ddec_spin_density
 _atom_site_pbe_ddec_sum_bond_order
 _atom_site_pbe_magmom
Ag  Ag0  1  0.84703711  0.95253482  0.92610763  1  0  0.51062  0  1.538534  0  0  0.37843  0  2.034656  0  0  0.418297  0  1.964683  0  0  0.396904  0.351063  0  2.083723  0
Ag  Ag1  1  0.15296912  0.04746852  0.07389155  1  0  0.510623  0  1.53849  0  0  0.378395  0  2.034671  0  0  0.418262  0  1.9647  0  0  0.396903  0.351028  0  2.083742  0
Ag  Ag2  1  0.42036662  0.06463575  0.92078530  1  0  0.491723  0  1.62204  0  0  0.375399  0  2.112554  0  0  0.409607  0  2.046864  0  0  0.401526  0.351755  0  2.158009  0
Ag  Ag3  1  0.57963931  0.93536555  0.07921592  1  0  0.491719  0  1.622026  0  0  0.375394  0  2.112549  0  0  0.409607  0  2.046854  0  0  0.401519  0.351752  0  2.157991  0
Ag  Ag4  1  0.64407195  0.51549735  0.42167058  1  0  0.548035  0  1.362371  0  0  0.40517  0  1.799431  0  0  0.439637  0  1.75012  0  0  0.447098  0.381534  0  1.833624  0
Ag  Ag5  1  0.35591706  0.48450176  0.57833123  1  0  0.54802  0  1.362445  0  0  0.405163  0  1.799506  0  0  0.439631  0  1.750195  0  0  0.447109  0.381529  0  1.833713  0
H  H6  1  0.69511505  0.06751269  0.73502708  1  0  0.079965  0  0.944134  0  0  0.089082  0  1.01057  0  0  0.091716  0  1.00674  0  0  0.115994  0.087474  0  1.01254  0
H  H7  1  0.30488340  0.93248337  0.26497231  1  0  0.079912  0  0.944271  0  0  0.089044  0  1.010665  0  0  0.09168  0  1.006835  0  0  0.115986  0.087437  0  1.012639  0
H  H8  1  0.90822066  0.02976719  0.58176891  1  0  0.107728  0  0.972066  0  0  0.118479  0  1.031713  0  0  0.121039  0  1.033447  0  0  0.104069  0.116609  0  1.030824  0
H  H9  1  0.09178062  0.97022994  0.41823304  1  0  0.107716  0  0.972146  0  0  0.118489  0  1.031759  0  0  0.12105  0  1.033496  0  0  0.104075  0.11662  0  1.030875  0
H  H10  1  0.46815045  0.02046220  0.57053791  1  0  0.110293  0  0.981308  0  0  0.121162  0  1.040194  0  0  0.123911  0  1.041658  0  0  0.103483  0.11919  0  1.039598  0
H  H11  1  0.53184628  0.97953075  0.42946107  1  0  0.110274  0  0.981302  0  0  0.121152  0  1.040189  0  0  0.123889  0  1.041669  0  0  0.103509  0.11921  0  1.039551  0
H  H12  1  0.06955880  0.71325162  0.74291551  1  0  0.107654  0  0.945122  0  0  0.114956  0  1.012949  0  0  0.118668  0  1.009303  0  0  0.104676  0.11208  0  1.016205  0
H  H13  1  0.93043775  0.28675271  0.25708590  1  0  0.107652  0  0.945042  0  0  0.114945  0  1.012872  0  0  0.118657  0  1.009226  0  0  0.104665  0.112072  0  1.016125  0
H  H14  1  0.86647742  0.29163807  0.74858549  1  0  0.091327  0  0.985611  0  0  0.099177  0  1.055901  0  0  0.102481  0  1.053125  0  0  0.100966  0.096903  0  1.057771  0
H  H15  1  0.13352599  0.70836421  0.25141112  1  0  0.091313  0  0.985587  0  0  0.099205  0  1.055835  0  0  0.102513  0  1.053062  0  0  0.100939  0.096926  0  1.057714  0
H  H16  1  0.26128873  0.50403580  0.99771607  1  0  0.111753  0  0.933873  0  0  0.122407  0  0.993829  0  0  0.126608  0  0.990119  0  0  0.107598  0.119261  0  0.996532  0
H  H17  1  0.73871184  0.49596647  0.00228253  1  0  0.111737  0  0.933857  0  0  0.122401  0  0.993806  0  0  0.126602  0  0.990095  0  0  0.107619  0.119256  0  0.9965  0
H  H18  1  0.05359295  0.23475032  0.50931458  1  0  0.097243  0  0.931288  0  0  0.109612  0  0.988492  0  0  0.112359  0  0.984752  0  0  0.123366  0.107487  0  0.991345  0
H  H19  1  0.94640698  0.76524679  0.49068576  1  0  0.097266  0  0.93127  0  0  0.10963  0  0.988474  0  0  0.112378  0  0.984732  0  0  0.123374  0.107504  0  0.991325  0
H  H20  1  0.07043391  0.97770942  0.75185468  1  0  0.086138  0  0.927472  0  0  0.096198  0  0.991924  0  0  0.098754  0  0.987583  0  0  0.118568  0.094127  0  0.995303  0
H  H21  1  0.92956919  0.02229186  0.24814853  1  0  0.08611  0  0.927466  0  0  0.096166  0  0.991932  0  0  0.098723  0  0.98759  0  0  0.118553  0.094099  0  0.99531  0
H  H22  1  0.33548123  0.76904291  0.51428836  1  0  0.091578  0  0.950278  0  0  0.101747  0  1.01081  0  0  0.104521  0  1.007054  0  0  0.117635  0.099609  0  1.013583  0
H  H23  1  0.66451546  0.23095004  0.48571211  1  0  0.091584  0  0.950288  0  0  0.101704  0  1.010867  0  0  0.104474  0  1.007121  0  0  0.117651  0.099565  0  1.013638  0
H  H24  1  0.67037713  0.67157437  0.87227205  1  0  0.362948  0  0.886671  0  0  0.34276  0  0.948933  0  0  0.351036  0  0.942076  0  0  0.309521  0.336786  0  0.954063  0
H  H25  1  0.32962290  0.32842378  0.12772914  1  0  0.362937  0  0.886583  0  0  0.342689  0  0.948938  0  0  0.350962  0  0.942089  0  0  0.309502  0.336716  0  0.95407  0
H  H26  1  0.51860030  0.55019980  0.78471333  1  0  0.325145  0  0.911691  0  0  0.303853  0  0.98552  0  0  0.311213  0  0.979803  0  0  0.302888  0.299245  0  0.988593  0
H  H27  1  0.48140098  0.44979733  0.21528863  1  0  0.325127  0  0.911743  0  0  0.303821  0  0.985564  0  0  0.311181  0  0.979847  0  0  0.302896  0.299215  0  0.988632  0
H  H28  1  0.57228609  0.28641486  0.83113510  1  0  0.346758  0  0.879923  0  0  0.329461  0  0.943527  0  0  0.336684  0  0.937405  0  0  0.305048  0.32423  0  0.947885  0
H  H29  1  0.42771705  0.71358536  0.16886280  1  0  0.34681  0  0.879808  0  0  0.329547  0  0.943382  0  0  0.33675  0  0.937286  0  0  0.305071  0.32434  0  0.947708  0
H  H30  1  0.59218141  0.35379097  0.71563618  1  0  0.331456  0  0.947963  0  0  0.309722  0  1.018816  0  0  0.318525  0  1.01119  0  0  0.288634  0.303488  0  1.024056  0
H  H31  1  0.40782032  0.64620924  0.28436235  1  0  0.331464  0  0.947965  0  0  0.309724  0  1.018826  0  0  0.318527  0  1.011198  0  0  0.288631  0.303488  0  1.024071  0
C  C32  1  0.62130147  0.96550904  0.70804928  1  0  0.19344  0  3.739751  0  0  0.15783  0  3.996406  0  0  0.1728  0  4.010626  0  0  0.054754  0.148254  0  3.986168  0
C  C33  1  0.37869676  0.03448495  0.29194991  1  0  0.193406  0  3.739981  0  0  0.157833  0  3.996561  0  0  0.172803  0  4.010779  0  0  0.054727  0.148256  0  3.986333  0
C  C34  1  0.03405312  0.09069414  0.62111865  1  0  -0.234128  0  3.765568  0  0  -0.245721  0  4.026035  0  0  -0.260774  0  4.048448  0  0  -0.107914  -0.236119  0  4.011513  0
C  C35  1  0.96594700  0.90930505  0.37888339  1  0  -0.234153  0  3.765694  0  0  -0.245761  0  4.026148  0  0  -0.260817  0  4.04856  0  0  -0.107906  -0.23616  0  4.011632  0
C  C36  1  0.50014881  0.93888209  0.61663984  1  0  -0.240806  0  3.780795  0  0  -0.254222  0  4.040042  0  0  -0.269419  0  4.062186  0  0  -0.118184  -0.244635  0  4.025694  0
C  C37  1  0.49984956  0.06111293  0.38335871  1  0  -0.240746  0  3.780747  0  0  -0.254171  0  4.039956  0  0  -0.269358  0  4.062104  0  0  -0.118165  -0.244601  0  4.025586  0
C  C38  1  0.04802578  0.25478620  0.92808412  1  0  0.646575  0  3.905016  0  0  0.588013  0  4.194798  0  0  0.62428  0  4.191125  0  0  0.203238  0.5634  0  4.19635  0
C  C39  1  0.95197488  0.74521711  0.07191532  1  0  0.646612  0  3.905265  0  0  0.588038  0  4.194996  0  0  0.624308  0  4.19132  0  0  0.203174  0.563427  0  4.196546  0
C  C40  1  0.17657737  0.62183949  0.87563882  1  0  -0.071791  0  3.750078  0  0  -0.04083  0  3.982437  0  0  -0.052136  0  4.006161  0  0  -0.019559  -0.033718  0  3.966703  0
C  C41  1  0.82342330  0.37816383  0.12436062  1  0  -0.071857  0  3.750091  0  0  -0.041003  0  3.982636  0  0  -0.052314  0  4.00636  0  0  -0.019583  -0.033894  0  3.966903  0
C  C42  1  0.06795111  0.62073199  0.78045911  1  0  -0.044841  0  3.673024  0  0  -0.085574  0  3.927442  0  0  -0.080042  0  3.943077  0  0  -0.072935  -0.089954  0  3.918488  0
C  C43  1  0.93204678  0.37927130  0.21954009  1  0  -0.044882  0  3.673026  0  0  -0.085568  0  3.92746  0  0  -0.080032  0  3.943092  0  0  -0.072929  -0.089951  0  3.918506  0
C  C44  1  0.95255749  0.38497235  0.78412355  1  0  -0.061232  0  3.708974  0  0  -0.098047  0  3.95054  0  0  -0.093775  0  3.9698  0  0  -0.082789  -0.101612  0  3.938308  0
C  C45  1  0.04744308  0.61502992  0.21587505  1  0  -0.061294  0  3.709037  0  0  -0.098184  0  3.950579  0  0  -0.093916  0  3.969835  0  0  -0.082835  -0.101749  0  3.938347  0
C  C46  1  0.17526470  0.50278203  0.92420132  1  0  -0.040377  0  3.650119  0  0  -0.081316  0  3.899483  0  0  -0.075657  0  3.915216  0  0  -0.071712  -0.083863  0  3.887801  0
C  C47  1  0.82473733  0.49722130  0.07579899  1  0  -0.040254  0  3.649993  0  0  -0.081185  0  3.899333  0  0  -0.075526  0  3.915071  0  0  -0.071723  -0.083728  0  3.887647  0
C  C48  1  0.11334453  0.20181565  0.58105882  1  0  0.191941  0  3.700201  0  0  0.153297  0  3.954769  0  0  0.168104  0  3.968458  0  0  0.063304  0.143574  0  3.945457  0
C  C49  1  0.88665265  0.79818143  0.41894054  1  0  0.191892  0  3.70023  0  0  0.153259  0  3.954786  0  0  0.168066  0  3.968478  0  0  0.063274  0.143543  0  3.945466  0
C  C50  1  0.06116816  0.38379526  0.87863722  1  0  -0.071857  0  3.751544  0  0  -0.042825  0  3.989044  0  0  -0.054121  0  4.012565  0  0  -0.020881  -0.035079  0  3.972561  0
C  C51  1  0.93883401  0.61620910  0.12136245  1  0  -0.071964  0  3.75162  0  0  -0.042805  0  3.988929  0  0  -0.0541  0  4.012451  0  0  -0.020835  -0.035068  0  3.972455  0
C  C52  1  0.29044178  0.75271619  0.92505360  1  0  0.635582  0  3.925869  0  0  0.581101  0  4.211316  0  0  0.616988  0  4.208237  0  0  0.199913  0.556951  0  4.21236  0
C  C53  1  0.70955863  0.24728506  0.07494639  1  0  0.635637  0  3.925872  0  0  0.581107  0  4.211453  0  0  0.616998  0  4.208369  0  0  0.199876  0.556961  0  4.212491  0
C  C54  1  0.56522418  0.73992669  0.73870409  1  0  0.646204  0  3.768639  0  0  0.601017  0  4.028462  0  0  0.627601  0  4.039167  0  0  0.353572  0.583447  0  4.020618  0
C  C55  1  0.43477703  0.26006939  0.26129629  1  0  0.646277  0  3.768687  0  0  0.601031  0  4.02861  0  0  0.627665  0  4.039238  0  0  0.353587  0.583435  0  4.020798  0
C  C56  1  0.12252751  0.06236238  0.71441257  1  0  0.213437  0  3.699321  0  0  0.175218  0  3.95463  0  0  0.190066  0  3.969196  0  0  0.064873  0.165143  0  3.945271  0
C  C57  1  0.87747416  0.93763784  0.28558819  1  0  0.213517  0  3.699272  0  0  0.1753  0  3.954607  0  0  0.190147  0  3.969172  0  0  0.064912  0.165222  0  3.945254  0
C  C58  1  0.83018829  0.50049438  0.63437288  1  0  0.634397  0  3.946447  0  0  0.583499  0  4.235541  0  0  0.617626  0  4.230498  0  0  0.189125  0.5604  0  4.23782  0
C  C59  1  0.16981131  0.49951204  0.36562747  1  0  0.634369  0  3.946647  0  0  0.583461  0  4.235745  0  0  0.617588  0  4.230701  0  0  0.189127  0.560362  0  4.238019  0
C  C60  1  0.34924584  0.24068365  0.71883135  1  0  0.617705  0  3.801745  0  0  0.572787  0  4.069126  0  0  0.59786  0  4.080376  0  0  0.343017  0.556029  0  4.061154  0
C  C61  1  0.65075714  0.75931554  0.28116795  1  0  0.617643  0  3.801866  0  0  0.572743  0  4.069237  0  0  0.597815  0  4.080484  0  0  0.343004  0.555979  0  4.061277  0
C  C62  1  0.42250535  0.80305958  0.58771268  1  0  0.200875  0  3.692055  0  0  0.163413  0  3.944248  0  0  0.178939  0  3.957192  0  0  0.061767  0.15316  0  3.935681  0
C  C63  1  0.57749295  0.19693545  0.41228810  1  0  0.2009  0  3.692004  0  0  0.163473  0  3.94423  0  0  0.178995  0  3.957171  0  0  0.061761  0.153221  0  3.93566  0
C  C64  1  0.95480844  0.50226129  0.73429300  1  0  -0.078654  0  3.77965  0  0  -0.049372  0  4.014717  0  0  -0.060021  0  4.038094  0  0  -0.02444  -0.042519  0  3.999796  0
C  C65  1  0.04519236  0.49774305  0.26570580  1  0  -0.078549  0  3.779587  0  0  -0.049269  0  4.014657  0  0  -0.059917  0  4.038034  0  0  -0.02442  -0.042406  0  3.999722  0
N  N66  1  0.58828390  0.64600374  0.80287887  1  0  -0.674022  0  3.096299  0  0  -0.632141  0  3.329921  0  0  -0.655807  0  3.32742  0  0  -0.560465  -0.616118  0  3.33086  0
N  N67  1  0.41171742  0.35399338  0.19712160  1  0  -0.673996  0  3.096155  0  0  -0.632008  0  3.329919  0  0  -0.65569  0  3.327396  0  0  -0.560479  -0.615976  0  3.330866  0
N  N68  1  0.26861487  0.27722440  0.62898008  1  0  -0.43873  0  3.170582  0  0  -0.359115  0  3.45116  0  0  -0.384391  0  3.462281  0  0  -0.342701  -0.342316  0  3.44345  0
N  N69  1  0.73138532  0.72277478  0.37101972  1  0  -0.438685  0  3.170639  0  0  -0.359058  0  3.451162  0  0  -0.384331  0  3.462284  0  0  -0.342674  -0.34226  0  3.443445  0
N  N70  1  0.65564741  0.86858098  0.76866275  1  0  -0.452404  0  3.135549  0  0  -0.375185  0  3.412861  0  0  -0.401779  0  3.423281  0  0  -0.34294  -0.357609  0  3.405727  0
N  N71  1  0.34435403  0.13141717  0.23133781  1  0  -0.452372  0  3.135589  0  0  -0.375161  0  3.412912  0  0  -0.401772  0  3.423315  0  0  -0.342935  -0.357575  0  3.405787  0
N  N72  1  0.50934098  0.31478923  0.76473443  1  0  -0.715928  0  3.068024  0  0  -0.674415  0  3.304398  0  0  -0.696673  0  3.298867  0  0  -0.576901  -0.658666  0  3.306834  0
N  N73  1  0.49066202  0.68520996  0.23526412  1  0  -0.716003  0  3.067915  0  0  -0.674549  0  3.304279  0  0  -0.696785  0  3.298788  0  0  -0.576939  -0.658821  0  3.30668  0
N  N74  1  0.45429220  0.70309934  0.64663779  1  0  -0.444576  0  3.180066  0  0  -0.361183  0  3.462602  0  0  -0.387646  0  3.472586  0  0  -0.341434  -0.343501  0  3.4558  0
N  N75  1  0.54570456  0.29689465  0.35336426  1  0  -0.444661  0  3.18006  0  0  -0.361258  0  3.462631  0  0  -0.387725  0  3.472584  0  0  -0.341434  -0.343565  0  3.455824  0
N  N76  1  0.27842606  0.13585465  0.76342321  1  0  -0.446336  0  3.139697  0  0  -0.37125  0  3.412349  0  0  -0.396746  0  3.424969  0  0  -0.337954  -0.354471  0  3.404088  0
N  N77  1  0.72157687  0.86414455  0.23657758  1  0  -0.446289  0  3.13965  0  0  -0.371219  0  3.412302  0  0  -0.39672  0  3.42494  0  0  -0.337959  -0.354435  0  3.404036  0
O  O78  1  0.26902312  0.85809374  0.87836482  1  0  -0.622691  0  2.142109  0  0  -0.547035  0  2.42153  0  0  -0.580181  0  2.410648  0  0  -0.325684  -0.523984  0  2.428222  0
O  O79  1  0.73098029  0.14190960  0.12163560  1  0  -0.622674  0  2.1421  0  0  -0.546996  0  2.421564  0  0  -0.580147  0  2.410691  0  0  -0.325626  -0.523948  0  2.428253  0
O  O80  1  0.92655833  0.15858124  0.88327515  1  0  -0.61788  0  2.137373  0  0  -0.539646  0  2.41563  0  0  -0.573436  0  2.405962  0  0  -0.322539  -0.515432  0  2.421124  0
O  O81  1  0.07344222  0.84142104  0.11672420  1  0  -0.617797  0  2.137531  0  0  -0.539573  0  2.415794  0  0  -0.573367  0  2.406127  0  0  -0.322458  -0.515358  0  2.421285  0
O  O82  1  0.15829115  0.24962623  0.01037854  1  0  -0.623181  0  2.127695  0  0  -0.539004  0  2.391505  0  0  -0.572022  0  2.381692  0  0  -0.319075  -0.516497  0  2.398175  0
O  O83  1  0.84170949  0.75037709  0.98962164  1  0  -0.623215  0  2.127721  0  0  -0.539089  0  2.391575  0  0  -0.572102  0  2.381745  0  0  -0.319063  -0.516578  0  2.398236  0
O  O84  1  0.69859845  0.40194260  0.61154235  1  0  -0.686279  0  2.04015  0  0  -0.616227  0  2.284844  0  0  -0.644865  0  2.274019  0  0  -0.338815  -0.595766  0  2.291193  0
O  O85  1  0.30140375  0.59806175  0.38845582  1  0  -0.686295  0  2.040194  0  0  -0.616277  0  2.284984  0  0  -0.644918  0  2.274157  0  0  -0.338847  -0.595816  0  2.291338  0
O  O86  1  0.85913353  0.59455313  0.58012530  1  0  -0.616499  0  1.970853  0  0  -0.557477  0  2.218535  0  0  -0.585613  0  2.20858  0  0  -0.33034  -0.537485  0  2.224504  0
O  O87  1  0.14086218  0.40545638  0.41987722  1  0  -0.616453  0  1.970902  0  0  -0.557426  0  2.218593  0  0  -0.585562  0  2.208638  0  0  -0.330295  -0.537445  0  2.224584  0
O  O88  1  0.39751467  0.74844842  0.00829870  1  0  -0.598335  0  2.096114  0  0  -0.523183  0  2.358531  0  0  -0.554199  0  2.348049  0  0  -0.324313  -0.501846  0  2.365149  0
O  O89  1  0.60248856  0.25155283  0.99170005  1  0  -0.598352  0  2.096137  0  0  -0.523171  0  2.358579  0  0  -0.554187  0  2.348098  0  0  -0.324303  -0.501839  0  2.365207  0
