# generated using pymatgen
data_Mg2H27C30(NO6)2
_symmetry_space_group_name_H-M   'P 1'
_cell_length_a   10.90149735
_cell_length_b   15.94497061
_cell_length_c   23.80987815
_cell_angle_alpha   90.02192843
_cell_angle_beta   90.04308530
_cell_angle_gamma   89.96764955
_symmetry_Int_Tables_number   1
_chemical_formula_structural   Mg2H27C30(NO6)2
_chemical_formula_sum   'Mg8 H108 C120 N8 O48'
_cell_volume   4138.72743374
_cell_formula_units_Z   4
loop_
 _symmetry_equiv_pos_site_id
 _symmetry_equiv_pos_as_xyz
  1  'x, y, z'
loop_
 _atom_site_type_symbol
 _atom_site_label
 _atom_site_symmetry_multiplicity
 _atom_site_fract_x
 _atom_site_fract_y
 _atom_site_fract_z
 _atom_site_occupancy
 _atom_site_pbe_bader_charge
 _atom_site_pbe_bader_spin_density
 _atom_site_pbe_cm5_charge
 _atom_site_pbe_ddec_charge
 _atom_site_pbe_ddec_spin_density
 _atom_site_pbe_ddec_sum_bond_order
 _atom_site_pbe_magmom
Mg  Mg0  1  0.55435267  0.13712716  0.16059311  1  1.686282  0  0.821113  1.355667  0  1.42444  0
Mg  Mg1  1  0.34743464  0.28756760  0.22921229  1  1.705191  0  0.816712  1.410488  0  1.388805  0
Mg  Mg2  1  0.34869997  0.46376306  0.72997619  1  1.704509  0  0.817433  1.410255  0  1.391679  0
Mg  Mg3  1  0.43977711  0.62599578  0.34029600  1  1.689885  0  0.834276  1.37054  0  1.393114  0
Mg  Mg4  1  0.65862923  0.78165349  0.26591272  1  1.706643  0  0.818069  1.421273  0  1.388898  0
Mg  Mg5  1  0.55736015  0.61349185  0.66189650  1  1.688256  0  0.818181  1.356162  0  1.416637  0
Mg  Mg6  1  0.43134106  0.12033671  0.83791730  1  1.688756  0  0.827003  1.365224  0  1.393316  0
Mg  Mg7  1  0.63917554  0.96650400  0.76470837  1  1.703514  0  0.81503  1.403861  0  1.40932  0
H  H8  1  0.53065550  0.84939502  0.18504223  1  0.642378  0  0.326541  0.409566  0  0.87863  0
H  H9  1  0.20058723  0.10577208  0.34020651  1  0.113633  0  0.102277  0.104528  0  1.031383  0
H  H10  1  0.17752845  0.27360465  0.33766018  1  0.087391  0  0.121883  0.035896  0  1.009228  0
H  H11  1  0.38549302  0.19199221  0.00048458  1  0.119608  0  0.118783  0.133866  0  0.986422  0
H  H12  1  0.17640960  0.34629346  0.11256961  1  0.081276  0  0.111111  0.117392  0  1.015359  0
H  H13  1  0.15421720  0.38552845  0.93300795  1  0.042709  0  0.097112  0.093785  0  1.050221  0
H  H14  1  0.95869630  0.31298768  0.22743579  1  0.117705  0  0.118883  0.143733  0  0.984875  0
H  H15  1  0.84908984  0.34932837  0.27791648  1  0.045858  0  0.104284  0.115479  0  0.989114  0
H  H16  1  0.85363591  0.24077132  0.25881835  1  0.069517  0  0.109586  0.128318  0  0.976665  0
H  H17  1  0.90279693  0.19774243  0.36226342  1  0.052552  0  0.100408  0.108362  0  1.014041  0
H  H18  1  0.89285319  0.30552937  0.38239602  1  0.064326  0  0.108776  0.122917  0  0.967265  0
H  H19  1  0.73157276  0.75538948  0.03273659  1  0.081598  0  0.101074  0.105823  0  1.025437  0
H  H20  1  0.28510671  0.11351212  0.42490381  1  0.049323  0  0.098405  0.101452  0  1.029444  0
H  H21  1  0.26898002  0.24659636  0.47529196  1  0.070205  0  0.099474  0.101664  0  1.029155  0
H  H22  1  0.15558491  0.36259439  0.43464047  1  0.065423  0  0.097192  0.09503  0  1.045661  0
H  H23  1  0.39202277  0.55376597  0.50129236  1  0.11836  0  0.118165  0.133442  0  0.986889  0
H  H24  1  0.17818204  0.40392471  0.61400826  1  0.102881  0  0.110408  0.115464  0  1.016973  0
H  H25  1  0.56124043  0.42361902  0.24674757  1  0.118978  0  0.108263  0.11098  0  1.047868  0
H  H26  1  0.79351679  0.60355284  0.16604966  1  0.087588  0  0.101383  0.101802  0  1.043359  0
H  H27  1  0.77765766  0.34825627  0.10484999  1  0.129136  0  0.111038  0.120536  0  1.004018  0
H  H28  1  0.97424817  0.37711432  0.09630074  1  0.079829  0  0.109995  0.118433  0  1.001926  0
H  H29  1  0.71619794  0.62170419  0.08184154  1  0.071146  0  0.100273  0.10396  0  1.030236  0
H  H30  1  0.82124667  0.99337549  0.66394868  1  0.08457  0  0.127448  0.049564  0  0.995969  0
H  H31  1  0.84323443  0.87391377  0.06760016  1  0.084316  0  0.100119  0.101404  0  1.028922  0
H  H32  1  0.02367282  0.90380584  0.76748854  1  0.093167  0  0.115258  0.137069  0  0.994918  0
H  H33  1  0.11981335  0.86336890  0.71279193  1  0.082703  0  0.109059  0.124274  0  0.975205  0
H  H34  1  0.14848131  0.96516320  0.74111981  1  0.049106  0  0.103722  0.116588  0  0.995243  0
H  H35  1  0.09096456  0.93504867  0.61363349  1  0.068835  0  0.109409  0.124675  0  0.967323  0
H  H36  1  0.84199832  0.87845633  0.56781115  1  0.098023  0  0.099401  0.099887  0  1.035232  0
H  H37  1  0.60736200  0.68755687  0.49970312  1  0.155765  0  0.118508  0.133248  0  0.986359  0
H  H38  1  0.81999501  0.84031747  0.38809904  1  0.124773  0  0.106568  0.110073  0  1.025563  0
H  H39  1  0.26364611  0.50144908  0.97082455  1  0.049021  0  0.099362  0.101709  0  1.027957  0
H  H40  1  0.83660141  0.75445419  0.16211513  1  0.103299  0  0.126693  0.048888  0  0.996049  0
H  H41  1  0.42559049  0.81791624  0.75005413  1  0.09555  0  0.105311  0.097827  0  1.052133  0
H  H42  1  0.19376724  0.64411190  0.83623415  1  0.105431  0  0.102031  0.103962  0  1.032489  0
H  H43  1  0.20999739  0.90371894  0.88921157  1  0.111507  0  0.109416  0.119704  0  1.001825  0
H  H44  1  0.01418788  0.87555530  0.90195345  1  0.079952  0  0.106872  0.114325  0  1.007896  0
H  H45  1  0.27676792  0.63415401  0.91987416  1  0.068211  0  0.098755  0.10198  0  1.031526  0
H  H46  1  0.56039526  0.32548129  0.74752106  1  0.104331  0  0.108704  0.112409  0  1.043266  0
H  H47  1  0.78849497  0.14451785  0.66505256  1  0.079777  0  0.100391  0.100705  0  1.044054  0
H  H48  1  0.77941824  0.40151399  0.60672429  1  0.120997  0  0.110884  0.120234  0  1.002465  0
H  H49  1  0.97381628  0.37194845  0.59733656  1  0.088974  0  0.109553  0.118438  0  1.002954  0
H  H50  1  0.71518680  0.12782044  0.57988133  1  0.056309  0  0.100195  0.104323  0  1.029496  0
H  H51  1  0.73193537  0.99471810  0.53018750  1  0.05676  0  0.100324  0.103887  0  1.028055  0
H  H52  1  0.05130286  0.81509021  0.27004190  1  0.107105  0  0.116075  0.138827  0  0.991557  0
H  H53  1  0.14628563  0.86255439  0.21764891  1  0.047341  0  0.108107  0.123433  0  0.977506  0
H  H54  1  0.17075724  0.75565918  0.23677122  1  0.071757  0  0.104426  0.11694  0  0.994519  0
H  H55  1  0.12487869  0.69875229  0.13861448  1  0.065795  0  0.10301  0.113359  0  0.997039  0
H  H56  1  0.11251460  0.80454688  0.11432922  1  0.06185  0  0.109559  0.124662  0  0.965943  0
H  H57  1  0.43717716  0.93603223  0.25274490  1  0.109715  0  0.105347  0.099666  0  1.046144  0
H  H58  1  0.22123757  0.84486887  0.39013634  1  0.12718  0  0.108816  0.11761  0  1.001724  0
H  H59  1  0.02308711  0.87259397  0.40371682  1  0.066974  0  0.10673  0.114185  0  1.006995  0
H  H60  1  0.16831521  0.47700848  0.83584454  1  0.090072  0  0.122422  0.036803  0  1.008106  0
H  H61  1  0.84901606  0.47309413  0.75229628  1  0.065899  0  0.109378  0.128437  0  0.978799  0
H  H62  1  0.59793460  0.05863628  0.99947920  1  0.12077  0  0.118635  0.133523  0  0.985554  0
H  H63  1  0.03102674  0.24779677  0.39406498  1  0.058667  0  0.10374  0.111413  0  1.050038  0
H  H64  1  0.30883819  0.51164582  0.22073361  1  0.159867  0  0.126874  0.065418  0  1.022861  0
H  H65  1  0.43106404  0.42514274  0.09242395  1  0.110422  0  0.116037  0.139529  0  0.998964  0
H  H66  1  0.54119816  0.50841134  0.09163699  1  0.026644  0  0.099303  0.109382  0  1.016049  0
H  H67  1  0.39816559  0.52043991  0.05531605  1  0.048937  0  0.099499  0.108723  0  1.002597  0
H  H68  1  0.34499518  0.63453876  0.19006414  1  0.068326  0  0.114137  0.129789  0  1.006015  0
H  H69  1  0.33209194  0.64704030  0.11520725  1  0.019629  0  0.099176  0.106043  0  0.997012  0
H  H70  1  0.47943751  0.64315007  0.14824020  1  0.09129  0  0.107234  0.129036  0  0.987112  0
H  H71  1  0.80962024  0.90507584  0.88780421  1  0.107398  0  0.104165  0.105103  0  1.03418  0
H  H72  1  0.97533336  0.01430310  0.61006244  1  0.055348  0  0.104169  0.112934  0  1.055413  0
H  H73  1  0.78348659  0.77632851  0.79805281  1  0.099766  0  0.128623  0.053883  0  0.979503  0
H  H74  1  0.59480407  0.75784512  0.94179767  1  0.063642  0  0.104888  0.117386  0  0.99034  0
H  H75  1  0.51461580  0.80475057  0.88403743  1  0.106501  0  0.115437  0.139391  0  1.005612  0
H  H76  1  0.50379041  0.69418003  0.89586063  1  0.048961  0  0.10192  0.11166  0  0.989844  0
H  H77  1  0.82456974  0.66405303  0.84306023  1  0.055764  0  0.113094  0.124649  0  0.992594  0
H  H78  1  0.78059578  0.66287146  0.91547706  1  0.092569  0  0.099748  0.113034  0  1.035003  0
H  H79  1  0.69249357  0.60620775  0.86458349  1  0.045072  0  0.103331  0.112027  0  0.982767  0
H  H80  1  0.25416604  0.52887970  0.31695372  1  0.639595  0  0.294035  0.381067  0  0.961304  0
H  H81  1  0.20851103  0.62296669  0.30916205  1  0.618923  0  0.325962  0.404743  0  0.881145  0
H  H82  1  0.98677231  0.73387115  0.10590939  1  0.087054  0  0.103979  0.112297  0  1.056733  0
H  H83  1  0.76699400  0.00235233  0.30172915  1  0.108566  0  0.126254  0.053898  0  0.984592  0
H  H84  1  0.54471974  0.90585037  0.39340304  1  0.080272  0  0.117347  0.140504  0  0.99836  0
H  H85  1  0.46867318  0.00461113  0.40093711  1  0.072809  0  0.099081  0.108773  0  1.016613  0
H  H86  1  0.58786363  0.97526406  0.44906579  1  0.026236  0  0.104475  0.116813  0  0.991674  0
H  H87  1  0.74850238  0.11606330  0.34781293  1  0.056832  0  0.110205  0.117465  0  1.018452  0
H  H88  1  0.73051699  0.09917223  0.42197159  1  0.102995  0  0.100115  0.114917  0  1.017181  0
H  H89  1  0.60443879  0.13587999  0.38044872  1  0.043717  0  0.106134  0.120318  0  0.971013  0
H  H90  1  0.61267964  0.70529259  0.73799335  1  0.617112  0  0.304024  0.376585  0  0.947087  0
H  H91  1  0.71245210  0.72586433  0.69302133  1  0.631975  0  0.290112  0.377424  0  0.965262  0
H  H92  1  0.01305209  0.49362816  0.89032654  1  0.043099  0  0.105216  0.114533  0  1.036465  0
H  H93  1  0.29770401  0.24278996  0.71978264  1  0.163231  0  0.127519  0.06631  0  1.022452  0
H  H94  1  0.44073682  0.32286068  0.59426317  1  0.073267  0  0.116046  0.139722  0  0.997787  0
H  H95  1  0.54178226  0.23433409  0.59525441  1  0.067834  0  0.098156  0.107476  0  1.021715  0
H  H96  1  0.40103936  0.22935351  0.55644610  1  0.033168  0  0.098977  0.108226  0  1.006474  0
H  H97  1  0.32427293  0.11865892  0.68990266  1  0.098348  0  0.113499  0.130773  0  1.007966  0
H  H98  1  0.31558423  0.10687538  0.61481622  1  0.020121  0  0.09843  0.105779  0  0.996707  0
H  H99  1  0.46049538  0.10281509  0.65019269  1  0.057325  0  0.107502  0.129227  0  0.984934  0
H  H100  1  0.11670674  0.03529284  0.64523323  1  0.045411  0  0.103519  0.114174  0  0.995723  0
H  H101  1  0.66356301  0.88349283  0.16924291  1  0.642685  0  0.293526  0.395167  0  0.945876  0
H  H102  1  0.45801169  0.42893634  0.83013568  1  0.595556  0  0.336444  0.414539  0  0.86287  0
H  H103  1  0.34905048  0.36234486  0.82621990  1  0.647893  0  0.298188  0.398517  0  0.938521  0
H  H104  1  0.46209724  0.32402494  0.32759927  1  0.594053  0  0.336347  0.413847  0  0.864144  0
H  H105  1  0.35061966  0.38890833  0.32540496  1  0.645927  0  0.298209  0.397965  0  0.939599  0
H  H106  1  0.61883159  0.05033720  0.23682816  1  0.599581  0  0.302557  0.37178  0  0.956276  0
H  H107  1  0.71880363  0.03029727  0.19164954  1  0.634821  0  0.290163  0.379319  0  0.961948  0
H  H108  1  0.50922169  0.89905227  0.68089010  1  0.607894  0  0.327975  0.40959  0  0.876179  0
H  H109  1  0.64512915  0.86793460  0.66778417  1  0.65845  0  0.293099  0.391626  0  0.951522  0
H  H110  1  0.20393802  0.12766577  0.80715098  1  0.594572  0  0.324505  0.405112  0  0.882852  0
H  H111  1  0.25125298  0.22135116  0.81508772  1  0.675177  0  0.292767  0.378957  0  0.965265  0
H  H112  1  0.96548241  0.40397733  0.72680220  1  0.102219  0  0.116936  0.141309  0  0.988818  0
H  H113  1  0.85702716  0.36778277  0.77790258  1  0.078306  0  0.105098  0.117975  0  0.988803  0
H  H114  1  0.86865902  0.51442217  0.85780190  1  0.032778  0  0.103412  0.114429  0  1.01025  0
H  H115  1  0.90348587  0.41112411  0.88186541  1  0.023041  0  0.109773  0.124382  0  0.967057  0
C  C116  1  0.32426338  0.02841306  0.29377102  1  -0.044866  0  -0.021829  -0.043216  0  3.97551  0
C  C117  1  0.23763631  0.04264644  0.33600921  1  -0.116039  0  -0.079626  -0.133324  0  3.929606  0
C  C118  1  0.37231134  0.10049819  0.25902237  1  1.588328  0  0.226422  0.635036  0  4.174976  0
C  C119  1  0.12016827  0.28903208  0.30080708  1  1.370777  0  0.187397  0.331034  0  4.102965  0
C  C120  1  0.08431107  0.52587110  0.00711913  1  -0.025403  0  -0.013182  0.019791  0  4.012805  0
C  C121  1  0.07220023  0.44737398  0.03448569  1  -0.008954  0  -0.004321  0.036207  0  3.99858  0
C  C122  1  0.15675535  0.37703746  0.02410817  1  0.013543  0  -0.013477  0.059337  0  4.033242  0
C  C123  1  0.32011028  0.24269533  0.00702656  1  -0.025716  0  -0.065001  -0.085596  0  3.890121  0
C  C124  1  0.28283294  0.26396815  0.06128815  1  0.017645  0  -0.013647  -0.027567  0  3.968476  0
C  C125  1  0.20122653  0.33025916  0.06956362  1  -0.060424  0  -0.072644  -0.124322  0  3.911219  0
C  C126  1  0.33560344  0.22098448  0.11194483  1  1.602332  0  0.226034  0.62693  0  4.211916  0
C  C127  1  0.19141642  0.35346709  0.96964158  1  -0.021855  0  -0.085265  -0.14386  0  3.9606  0
C  C128  1  0.27243914  0.28671736  0.96103289  1  -0.018512  0  -0.026073  -0.051705  0  4.018838  0
C  C129  1  0.30713399  0.26131322  0.90276648  1  1.564004  0  0.220228  0.596266  0  4.197596  0
C  C130  1  0.90974464  0.29708998  0.26607962  1  0.249068  0  -0.12693  -0.265471  0  3.883382  0
C  C131  1  0.95394760  0.25699609  0.36512600  1  0.285188  0  -0.127648  -0.271203  0  3.933979  0
C  C132  1  0.79772469  0.63527217  0.05708761  1  -0.029711  0  -0.097545  -0.140333  0  4.043139  0
C  C133  1  0.80596613  0.71007029  0.02933229  1  -0.087182  0  -0.100874  -0.152796  0  4.060549  0
C  C134  1  0.10484947  0.06759438  0.44935178  1  -0.061713  0  -0.011231  0.025855  0  3.992363  0
C  C135  1  0.00405303  0.08229432  0.48688933  1  0.020569  0  -0.002705  -0.002153  0  3.922182  0
C  C136  1  0.20204389  0.12777958  0.44841012  1  -0.034781  0  -0.100665  -0.143698  0  4.050241  0
C  C137  1  0.19342826  0.20198934  0.47680357  1  -0.076848  0  -0.100595  -0.147517  0  4.062584  0
C  C138  1  0.08739554  0.22278784  0.50927760  1  -0.015817  0  -0.012144  0.021117  0  4.009448  0
C  C139  1  0.07381730  0.30158759  0.53622409  1  0.024421  0  -0.004176  0.037224  0  3.992055  0
C  C140  1  0.15864509  0.37181326  0.52573900  1  -0.018179  0  -0.013397  0.057894  0  4.027945  0
C  C141  1  0.19364291  0.39460404  0.47112375  1  -0.06943  0  -0.08395  -0.140869  0  3.95479  0
C  C142  1  0.27601505  0.46045347  0.46219776  1  -0.017053  0  -0.025516  -0.051926  0  4.019903  0
C  C143  1  0.32510358  0.50411823  0.50801147  1  -0.003293  0  -0.065915  -0.087375  0  3.89558  0
C  C144  1  0.28715316  0.48400867  0.56230878  1  -0.027161  0  -0.014164  -0.027732  0  3.970335  0
C  C145  1  0.20380846  0.41885885  0.57093796  1  -0.032866  0  -0.071646  -0.12022  0  3.905128  0
C  C146  1  0.31102344  0.48572369  0.40396457  1  1.566336  0  0.220405  0.597363  0  4.200763  0
C  C147  1  0.34063361  0.52746342  0.61260661  1  1.613025  0  0.226017  0.626913  0  4.21183  0
C  C148  1  0.62281740  0.28836191  0.17833351  1  1.54736  0  0.215628  0.596431  0  4.203922  0
C  C149  1  0.66842279  0.37687725  0.17673454  1  -0.02647  0  -0.01513  -0.030126  0  3.97433  0
C  C150  1  0.62802284  0.43860619  0.21427552  1  -0.063744  0  -0.073723  -0.102601  0  3.919774  0
C  C151  1  0.67153706  0.52078525  0.20876494  1  -0.001948  0  -0.021035  -0.046674  0  3.97295  0
C  C152  1  0.75821770  0.53977166  0.16737856  1  -0.01051  0  -0.081673  -0.136999  0  3.943888  0
C  C153  1  0.79859641  0.47906069  0.12897114  1  -0.042195  0  -0.012447  0.058952  0  4.031796  0
C  C154  1  0.75169072  0.39750641  0.13426839  1  -0.078022  0  -0.074758  -0.133088  0  3.910339  0
C  C155  1  0.62106641  0.59178213  0.24371676  1  1.604635  0  0.229778  0.637315  0  4.189926  0
C  C156  1  0.89059915  0.49778721  0.08519722  1  -0.040796  0  -0.005908  0.031041  0  3.983398  0
C  C157  1  0.89316050  0.57386639  0.05399757  1  -0.035818  0  -0.012131  0.021919  0  3.994499  0
C  C158  1  0.99266315  0.58885304  0.01584400  1  -0.029285  0  -0.002821  -0.002244  0  3.923779  0
C  C159  1  0.97859922  0.43649838  0.07368454  1  -0.001518  0  -0.08582  -0.174847  0  3.977541  0
C  C160  1  0.87312481  0.96362177  0.69847460  1  1.418854  0  0.191009  0.330475  0  4.080286  0
C  C161  1  0.80233671  0.90345533  0.03080927  1  -0.032748  0  -0.081621  -0.13724  0  3.9512  0
C  C162  1  0.71877272  0.96880168  0.03916107  1  -0.04355  0  -0.020985  -0.044796  0  3.994545  0
C  C163  1  0.68597579  0.99553202  0.09773514  1  1.57593  0  0.223516  0.604168  0  4.189102  0
C  C164  1  0.07620002  0.92009030  0.72991322  1  0.244276  0  -0.128554  -0.268489  0  3.900615  0
C  C165  1  0.04718548  0.98697334  0.63656083  1  0.283799  0  -0.127715  -0.276099  0  3.928207  0
C  C166  1  0.92500218  0.94102325  0.46661747  1  0.022635  0  -0.006133  0.033008  0  3.99193  0
C  C167  1  0.84005838  0.87057022  0.47660466  1  0.037822  0  -0.015374  0.055199  0  4.03415  0
C  C168  1  0.80470543  0.84678211  0.53102025  1  -0.124816  0  -0.082641  -0.139396  0  3.949003  0
C  C169  1  0.72256154  0.78066712  0.53946997  1  0.015838  0  -0.021293  -0.04432  0  3.993672  0
C  C170  1  0.67367874  0.73767756  0.49322661  1  -0.039083  0  -0.064893  -0.084669  0  3.886152  0
C  C171  1  0.71063701  0.75933172  0.43894625  1  -0.05347  0  -0.016296  -0.033955  0  3.969808  0
C  C172  1  0.79429198  0.82459428  0.43104518  1  -0.081502  0  -0.078409  -0.130979  0  3.924102  0
C  C173  1  0.68620786  0.75562267  0.59793834  1  1.566429  0  0.222075  0.602349  0  4.189206  0
C  C174  1  0.65632696  0.71829839  0.38772844  1  1.595645  0  0.226233  0.632069  0  4.207528  0
C  C175  1  0.19532379  0.62024484  0.94459938  1  -0.113012  0  -0.100647  -0.142983  0  4.050528  0
C  C176  1  0.18832458  0.54621065  0.97323143  1  -0.032353  0  -0.100262  -0.146946  0  4.063025  0
C  C177  1  0.89211075  0.77648171  0.19806540  1  1.356945  0  0.189883  0.330934  0  4.079824  0
C  C178  1  0.36564421  0.95820229  0.81164300  1  1.573098  0  0.218654  0.605313  0  4.21687  0
C  C179  1  0.31803986  0.87034987  0.81772960  1  -0.044328  0  -0.01878  -0.039627  0  3.987002  0
C  C180  1  0.35821831  0.80551609  0.78261879  1  -0.061464  0  -0.076124  -0.102775  0  3.945417  0
C  C181  1  0.31544883  0.72369798  0.79058917  1  -0.02542  0  -0.021518  -0.045059  0  3.97161  0
C  C182  1  0.22910246  0.70774809  0.83266281  1  -0.055226  0  -0.079857  -0.133312  0  3.934116  0
C  C183  1  0.18922849  0.77138115  0.86921116  1  0.01298  0  -0.0112  0.061557  0  4.016147  0
C  C184  1  0.23565198  0.85267467  0.86113527  1  -0.045694  0  -0.075284  -0.130724  0  3.906462  0
C  C185  1  0.36726678  0.65168974  0.75681798  1  1.594921  0  0.227273  0.637721  0  4.17055  0
C  C186  1  0.09903173  0.75543080  0.91428743  1  -0.003669  0  -0.008324  0.027119  0  3.988103  0
C  C187  1  0.09866609  0.68081971  0.94699410  1  -0.003888  0  -0.011661  0.024866  0  3.994705  0
C  C188  1  0.00042579  0.66667407  0.98594077  1  -0.019889  0  -0.003237  -0.0023  0  3.92459  0
C  C189  1  0.01136514  0.81713480  0.92571505  1  -0.07988  0  -0.089656  -0.18205  0  3.986293  0
C  C190  1  0.91204081  0.01929283  0.49450238  1  -0.112123  0  -0.01375  0.015817  0  4.015244  0
C  C191  1  0.62559652  0.46176781  0.68092500  1  1.582773  0  0.214725  0.594676  0  4.207409  0
C  C192  1  0.66873657  0.37249368  0.67801297  1  -0.025749  0  -0.013987  -0.030595  0  3.968285  0
C  C193  1  0.62670387  0.31035470  0.71484640  1  0.001533  0  -0.072153  -0.100498  0  3.915788  0
C  C194  1  0.66826080  0.22774751  0.70853395  1  -0.069405  0  -0.021233  -0.047505  0  3.967626  0
C  C195  1  0.75479844  0.20869547  0.66698567  1  -0.079876  0  -0.082272  -0.138699  0  3.94391  0
C  C196  1  0.79728179  0.26980418  0.62928958  1  0.016982  0  -0.0124  0.05657  0  4.023098  0
C  C197  1  0.75193267  0.35179876  0.63545247  1  -0.049139  0  -0.073411  -0.129383  0  3.902631  0
C  C198  1  0.61613915  0.15679952  0.74314529  1  1.590034  0  0.228939  0.635625  0  4.184789  0
C  C199  1  0.89036762  0.25123266  0.58574289  1  -0.055743  0  -0.005885  0.031558  0  3.97492  0
C  C200  1  0.89386629  0.17531330  0.55420274  1  -0.03271  0  -0.012308  0.02133  0  3.99334  0
C  C201  1  0.99506342  0.16007296  0.51694249  1  -0.081507  0  -0.002734  -0.001652  0  3.920869  0
C  C202  1  0.97888954  0.31249263  0.57480043  1  -0.020009  0  -0.085845  -0.177025  0  3.976285  0
C  C203  1  0.79787720  0.11423564  0.55592294  1  0.039454  0  -0.099005  -0.143016  0  4.047127  0
C  C204  1  0.80688276  0.03971249  0.52776565  1  -0.106158  0  -0.100248  -0.152276  0  4.063019  0
C  C205  1  0.10038300  0.80427245  0.23063062  1  0.247629  0  -0.128798  -0.268711  0  3.900307  0
C  C206  1  0.06207890  0.75232172  0.13377339  1  0.249361  0  -0.127527  -0.273976  0  3.927311  0
C  C207  1  0.38303550  0.79478957  0.31167182  1  1.571213  0  0.220974  0.612644  0  4.214137  0
C  C208  1  0.33040133  0.88124221  0.31952318  1  -0.017675  0  -0.01864  -0.042468  0  3.98528  0
C  C209  1  0.36939220  0.94732292  0.28534470  1  -0.01224  0  -0.077946  -0.104137  0  3.948666  0
C  C210  1  0.19865483  0.97773473  0.37181048  1  -0.019041  0  -0.010398  0.061447  0  4.00859  0
C  C211  1  0.24654571  0.89686192  0.36279398  1  -0.061931  0  -0.075873  -0.130597  0  3.902292  0
C  C212  1  0.10698890  0.99290670  0.41657217  1  0.034486  0  -0.008224  0.025467  0  3.983633  0
C  C213  1  0.01881918  0.93128095  0.42721158  1  -0.043365  0  -0.089495  -0.17949  0  3.982225  0
C  C214  1  0.11609746  0.45431603  0.79907083  1  1.408039  0  0.187067  0.328493  0  4.104406  0
C  C215  1  0.91159650  0.42169049  0.76369266  1  0.241366  0  -0.12863  -0.270021  0  3.889759  0
C  C216  1  0.64378159  0.02533499  0.88697785  1  1.619321  0  0.22668  0.633007  0  4.199986  0
C  C217  1  0.34693136  0.47720508  0.18456976  1  1.354743  0  0.187044  0.325183  0  4.070648  0
C  C218  1  0.44271202  0.49329979  0.09257510  1  0.272333  0  -0.13235  -0.264369  0  3.894715  0
C  C219  1  0.38541301  0.61804349  0.14937430  1  0.310865  0  -0.128278  -0.27852  0  3.921238  0
C  C220  1  0.90938147  0.73005257  0.99487955  1  -0.030025  0  -0.013604  0.012697  0  4.02331  0
C  C221  1  0.92017991  0.80786084  0.96633945  1  -0.008873  0  -0.005747  0.033735  0  3.994472  0
C  C222  1  0.83466942  0.87792988  0.97638612  1  0.023946  0  -0.015997  0.054855  0  4.039796  0
C  C223  1  0.70011952  0.98624082  0.93846690  1  0.002633  0  -0.015985  -0.029945  0  3.963102  0
C  C224  1  0.78509626  0.92169651  0.93072607  1  -0.139913  0  -0.079388  -0.130992  0  3.93108  0
C  C225  1  0.66544341  0.00924287  0.99287106  1  -0.016692  0  -0.064127  -0.085097  0  3.882092  0
C  C226  1  0.69693174  0.79029807  0.82015529  1  1.383302  0  0.18616  0.319343  0  4.115907  0
C  C227  1  0.56463225  0.74910885  0.89809243  1  0.24971  0  -0.129279  -0.261453  0  3.88254  0
C  C228  1  0.74653138  0.66350468  0.87206532  1  0.258877  0  -0.129923  -0.279217  0  3.945657  0
C  C229  1  0.69452166  0.96759130  0.32423639  1  1.380715  0  0.185756  0.320402  0  4.111128  0
C  C230  1  0.55682621  0.97156869  0.40520498  1  0.292976  0  -0.130893  -0.266112  0  3.890293  0
C  C231  1  0.68554807  0.09464593  0.38069712  1  0.258106  0  -0.127278  -0.27495  0  3.931232  0
C  C232  1  0.34281507  0.27519736  0.68455519  1  1.313492  0  0.187429  0.32507  0  4.067174  0
C  C233  1  0.44514159  0.25430173  0.59448609  1  0.290221  0  -0.132431  -0.265714  0  3.897158  0
C  C234  1  0.36949515  0.13280562  0.64989873  1  0.315541  0  -0.128636  -0.279828  0  3.918554  0
C  C235  1  0.94232325  0.46785540  0.86245708  1  0.36065  0  -0.126291  -0.273322  0  3.927161  0
N  N236  1  0.99933046  0.28151065  0.31026285  1  -1.181643  0  -0.280536  0.024118  0  3.709415  0
N  N237  1  0.99387212  0.95711227  0.68873798  1  -1.206283  0  -0.27953  0.028189  0  3.712944  0
N  N238  1  0.01326339  0.77725588  0.18803588  1  -1.178403  0  -0.280164  0.022606  0  3.714223  0
N  N239  1  0.99491413  0.44862864  0.80795769  1  -1.225543  0  -0.280781  0.025968  0  3.712267  0
N  N240  1  0.38673958  0.52736350  0.14305481  1  -1.236336  0  -0.283755  0.016677  0  3.72246  0
N  N241  1  0.67102575  0.73696117  0.86216767  1  -1.195089  0  -0.283648  0.022222  0  3.712357  0
N  N242  1  0.64884886  0.00897125  0.36884113  1  -1.209842  0  -0.283348  0.020947  0  3.717187  0
N  N243  1  0.38153399  0.22315965  0.64385455  1  -1.229855  0  -0.283757  0.020734  0  3.718309  0
O  O244  1  0.60618051  0.05255404  0.10258362  1  -1.228715  0  -0.352278  -0.617671  0  2.244189  0
O  O245  1  0.44351277  0.08088007  0.21858045  1  -1.249565  0  -0.357439  -0.665696  0  2.267178  0
O  O246  1  0.34184005  0.17412379  0.27346774  1  -1.222532  0  -0.34815  -0.6542  0  2.239274  0
O  O247  1  0.16612975  0.31088566  0.25513457  1  -1.201716  0  -0.319872  -0.513466  0  2.297082  0
O  O248  1  0.43095089  0.17696755  0.10422746  1  -1.22969  0  -0.35942  -0.637799  0  2.237916  0
O  O249  1  0.28353921  0.23410438  0.15879728  1  -1.247229  0  -0.372741  -0.672514  0  2.259087  0
O  O250  1  0.25647728  0.29962834  0.86097338  1  -1.195662  0  -0.331617  -0.5956  0  2.187476  0
O  O251  1  0.38362977  0.20218136  0.89770584  1  -1.238173  0  -0.354342  -0.618517  0  2.242931  0
O  O252  1  0.25840777  0.44893588  0.36213972  1  -1.202493  0  -0.330561  -0.593452  0  2.186264  0
O  O253  1  0.38992485  0.54345225  0.39904025  1  -1.227789  0  -0.357423  -0.62447  0  2.240403  0
O  O254  1  0.43836335  0.56893328  0.60487673  1  -1.234436  0  -0.35915  -0.63805  0  2.233698  0
O  O255  1  0.28647207  0.51725773  0.65925640  1  -1.237409  0  -0.373209  -0.671751  0  2.261963  0
O  O256  1  0.53240348  0.26713705  0.20994682  1  -1.273211  0  -0.360409  -0.707186  0  2.273509  0
O  O257  1  0.67557973  0.23475055  0.14723768  1  -1.203252  0  -0.348538  -0.599717  0  2.135672  0
O  O258  1  0.54216170  0.57330151  0.28114104  1  -1.251406  0  -0.368436  -0.664436  0  2.226914  0
O  O259  1  0.65740092  0.66477061  0.23094455  1  -1.23969  0  -0.354761  -0.666442  0  2.288023  0
O  O260  1  0.82139999  0.93924089  0.74234059  1  -1.200479  0  -0.320237  -0.512085  0  2.297913  0
O  O261  1  0.74013702  0.95952198  0.13936078  1  -1.200941  0  -0.332098  -0.591184  0  2.17086  0
O  O262  1  0.73303672  0.79581654  0.63971974  1  -1.203772  0  -0.332006  -0.592102  0  2.176489  0
O  O263  1  0.61089566  0.69581591  0.60254395  1  -1.223353  0  -0.34995  -0.615451  0  2.241381  0
O  O264  1  0.56266728  0.67233752  0.39482795  1  -1.236227  0  -0.361024  -0.643643  0  2.225005  0
O  O265  1  0.70620834  0.73483907  0.34093447  1  -1.242344  0  -0.371254  -0.679709  0  2.284723  0
O  O266  1  0.84399093  0.79804893  0.24341638  1  -1.201556  0  -0.318214  -0.510594  0  2.281934  0
O  O267  1  0.45093144  0.97390922  0.77653450  1  -1.255027  0  -0.354978  -0.686917  0  2.268134  0
O  O268  1  0.43886133  0.67114177  0.71652530  1  -1.248363  0  -0.356849  -0.665103  0  2.259662  0
O  O269  1  0.33983173  0.57801097  0.77244848  1  -1.2282  0  -0.351289  -0.657226  0  2.234355  0
O  O270  1  0.53869405  0.17568104  0.78112383  1  -1.237334  0  -0.365333  -0.660756  0  2.220741  0
O  O271  1  0.65017771  0.08337878  0.72974912  1  -1.231775  0  -0.354769  -0.663731  0  2.276635  0
O  O272  1  0.53436065  0.48301990  0.71202194  1  -1.271429  0  -0.359632  -0.705808  0  2.274548  0
O  O273  1  0.68130096  0.51590960  0.65138468  1  -1.21544  0  -0.347589  -0.601559  0  2.133371  0
O  O274  1  0.46776530  0.78406686  0.27567367  1  -1.246487  0  -0.352018  -0.68317  0  2.270314  0
O  O275  1  0.33971754  0.73574829  0.34185019  1  -1.242888  0  -0.361052  -0.647714  0  2.190779  0
O  O276  1  0.16752245  0.43634850  0.75382994  1  -1.200462  0  -0.318732  -0.512597  0  2.302776  0
O  O277  1  0.61739867  0.83571678  0.18699398  1  -1.303727  0  -0.599876  -0.83435  0  2.023  0
O  O278  1  0.40258241  0.40159159  0.80410869  1  -1.256047  0  -0.589057  -0.823718  0  2.048137  0
O  O279  1  0.40430302  0.35082417  0.30239667  1  -1.253772  0  -0.588794  -0.823323  0  2.055444  0
O  O280  1  0.68786106  0.07631398  0.21716543  1  -1.271387  0  -0.601296  -0.804125  0  1.996092  0
O  O281  1  0.35269540  0.39907154  0.18285584  1  -1.218023  0  -0.320259  -0.532439  0  2.378044  0
O  O282  1  0.31821107  0.01502296  0.84240840  1  -1.235027  0  -0.355487  -0.637326  0  2.181919  0
O  O283  1  0.59495964  0.91411736  0.68522368  1  -1.285629  0  -0.597823  -0.829192  0  2.027715  0
O  O284  1  0.26548962  0.16717777  0.79381158  1  -1.301497  0  -0.58611  -0.810713  0  2.046209  0
O  O285  1  0.62968321  0.85001768  0.80630249  1  -1.208182  0  -0.316105  -0.528628  0  2.405489  0
O  O286  1  0.27080156  0.58340540  0.29661501  1  -1.287799  0  -0.584854  -0.809853  0  2.044628  0
O  O287  1  0.65844175  0.89749539  0.30847923  1  -1.214943  0  -0.314703  -0.529529  0  2.410345  0
O  O288  1  0.68286386  0.67992569  0.71880707  1  -1.284552  0  -0.601618  -0.801872  0  1.988198  0
O  O289  1  0.35699873  0.35285016  0.68316043  1  -1.193569  0  -0.320362  -0.53432  0  2.386932  0
O  O290  1  0.54830568  0.06969058  0.89368325  1  -1.238201  0  -0.360278  -0.642533  0  2.226172  0
O  O291  1  0.69442201  0.00907734  0.84023186  1  -1.243972  0  -0.371344  -0.679249  0  2.278678  0
