# generated using pymatgen
data_ZnH3C19N11(O9F)2
_symmetry_space_group_name_H-M   'P 1'
_cell_length_a   16.10144121
_cell_length_b   17.24100781
_cell_length_c   17.25471776
_cell_angle_alpha   91.94041563
_cell_angle_beta   96.49897417
_cell_angle_gamma   97.43638605
_symmetry_Int_Tables_number   1
_chemical_formula_structural   ZnH3C19N11(O9F)2
_chemical_formula_sum   'Zn2 H6 C38 N22 O36 F4'
_cell_volume   4713.46333401
_cell_formula_units_Z   2
loop_
 _symmetry_equiv_pos_site_id
 _symmetry_equiv_pos_as_xyz
  1  'x, y, z'
loop_
 _atom_site_type_symbol
 _atom_site_label
 _atom_site_symmetry_multiplicity
 _atom_site_fract_x
 _atom_site_fract_y
 _atom_site_fract_z
 _atom_site_occupancy
 _atom_site_pbe_bader_charge
 _atom_site_pbe_bader_spin_density
 _atom_site_pbe_cm5_charge
 _atom_site_pbe_ddec_charge
 _atom_site_pbe_ddec_spin_density
 _atom_site_pbe_ddec_sum_bond_order
 _atom_site_pbe_magmom
Zn  Zn0  1  0.41043908  0.48938417  0.49428650  1  1.299054  0  0.685571  0.845241  0  2.387561  0
Zn  Zn1  1  0.58953218  0.51069036  0.50574144  1  1.295702  0  0.685573  0.845155  0  2.387479  0
H  H2  1  0.42624902  0.57110364  0.89334782  1  0.157735  0  0.13462  0.168204  0  0.965362  0
H  H3  1  0.57374638  0.42888724  0.10672430  1  0.155732  0  0.134704  0.168222  0  0.965916  0
H  H4  1  0.58988331  0.10997179  0.44415266  1  0.140726  0  0.132765  0.167138  0  0.97055  0
H  H5  1  0.41016203  0.89017070  0.55556874  1  0.18519  0  0.132551  0.167639  0  0.97037  0
H  H6  1  0.69388485  0.43286126  0.41394422  1  0.200789  0  0.149447  0.139717  0  0.972698  0
H  H7  1  0.30611181  0.56698839  0.58630589  1  0.207245  0  0.149313  0.13923  0  0.973097  0
C  C8  1  0.49907664  0.35058460  0.50452581  1  1.616919  0  0.226255  0.628469  0  4.15964  0
C  C9  1  0.50092468  0.64948497  0.49547397  1  1.617657  0  0.226787  0.629162  0  4.160026  0
C  C10  1  0.50903474  0.50413343  0.65094525  1  1.655499  0  0.225375  0.626073  0  4.173374  0
C  C11  1  0.49090760  0.49591167  0.34907906  1  1.653953  0  0.22583  0.626638  0  4.172789  0
C  C12  1  0.48571702  0.50112676  0.26185577  1  0.118724  0  0.004909  -0.143439  0  3.883768  0
C  C13  1  0.51426786  0.49891893  0.73816998  1  0.116687  0  0.004677  -0.143506  0  3.882912  0
C  C14  1  0.50471185  0.73658466  0.49019128  1  0.128  0  0.000613  -0.15438  0  3.879506  0
C  C15  1  0.49529341  0.26346039  0.50970871  1  0.129674  0  0.000797  -0.153885  0  3.87801  0
C  C16  1  0.53393400  0.45765061  0.21829382  1  0.475836  0  0.124999  0.307599  0  4.022827  0
C  C17  1  0.46601836  0.54235615  0.78175506  1  0.47564  0  0.125332  0.30778  0  4.022138  0
C  C18  1  0.45102444  0.77889076  0.52845838  1  0.495308  0  0.129655  0.31914  0  4.011672  0
C  C19  1  0.54899153  0.22121175  0.47141222  1  0.492297  0  0.129282  0.318289  0  4.01166  0
C  C20  1  0.53379342  0.46173297  0.13843218  1  0.111969  0  -0.068462  -0.239793  0  3.892957  0
C  C21  1  0.46621959  0.53828544  0.86162050  1  0.110469  0  -0.068219  -0.239609  0  3.89208  0
C  C22  1  0.45370030  0.85932741  0.52634283  1  0.048963  0  -0.071689  -0.250306  0  3.901767  0
C  C23  1  0.54633420  0.14076225  0.47340743  1  0.074842  0  -0.071888  -0.249334  0  3.90109  0
C  C24  1  0.48273324  0.51092419  0.09844680  1  0.41791  0  0.111497  0.164027  0  4.026189  0
C  C25  1  0.51739120  0.48918449  0.90159290  1  0.417659  0  0.111463  0.164203  0  4.026026  0
C  C26  1  0.51268234  0.90103363  0.48449556  1  0.422117  0  0.113377  0.170522  0  4.029371  0
C  C27  1  0.48731675  0.09900882  0.51518352  1  0.442313  0  0.112717  0.169617  0  4.029662  0
C  C28  1  0.43155618  0.55323253  0.13979968  1  0.324231  0  0.098685  -0.027767  0  3.869368  0
C  C29  1  0.56859858  0.44692057  0.86023186  1  0.321113  0  0.098586  -0.027579  0  3.868999  0
C  C30  1  0.56820563  0.86091445  0.44622480  1  0.302378  0  0.094457  -0.039858  0  3.871251  0
C  C31  1  0.43178345  0.13906691  0.55350685  1  0.301745  0  0.094672  -0.040439  0  3.870684  0
C  C32  1  0.43337594  0.54816347  0.22025550  1  0.183375  0  0.100523  0.05218  0  3.880898  0
C  C33  1  0.56668970  0.45194736  0.77976688  1  0.186026  0  0.100739  0.052442  0  3.879799  0
C  C34  1  0.56403205  0.78007156  0.44947171  1  0.206689  0  0.104314  0.062283  0  3.877941  0
C  C35  1  0.43594870  0.21992415  0.55035279  1  0.204936  0  0.104592  0.063181  0  3.876849  0
C  C36  1  0.78073819  0.54622405  0.56566216  1  0.803633  0  0.244107  0.213033  0  3.88987  0
C  C37  1  0.21922623  0.45399942  0.43435730  1  0.805053  0  0.243889  0.213394  0  3.888146  0
C  C38  1  0.86552903  0.53691575  0.56819121  1  0.372334  0  0.105971  -0.062868  0  3.834656  0
C  C39  1  0.13441113  0.46319979  0.43195355  1  0.377235  0  0.105769  -0.063525  0  3.836276  0
C  C40  1  0.89093499  0.48791188  0.51114028  1  0.434903  0  0.150585  0.156963  0  3.968261  0
C  C41  1  0.10901900  0.51205966  0.48914120  1  0.391171  0  0.150377  0.157732  0  3.966627  0
C  C42  1  0.82657390  0.44938079  0.45604216  1  0.292612  0  0.101437  -0.021199  0  3.837549  0
C  C43  1  0.17340578  0.55052061  0.54428618  1  0.33523  0  0.102357  -0.020425  0  3.835663  0
C  C44  1  0.74340409  0.46215841  0.45746017  1  0.573952  0  0.097274  0.111929  0  3.815969  0
C  C45  1  0.25657572  0.53778971  0.54274782  1  0.569706  0  0.097232  0.11208  0  3.815909  0
N  N46  1  0.48442317  0.52546581  0.01883673  1  -0.42395  0  -0.124747  -0.088946  0  3.242901  0
N  N47  1  0.51576736  0.47467882  0.98121927  1  -0.462811  0  -0.124985  -0.089267  0  3.243061  0
N  N48  1  0.51346794  0.98158580  0.47278042  1  -0.405841  0  -0.119154  -0.082377  0  3.247808  0
N  N49  1  0.48653718  0.01845772  0.52685400  1  -0.447534  0  -0.117923  -0.079503  0  3.247311  0
N  N50  1  0.72091921  0.51067219  0.51165940  1  -1.223471  0  -0.287872  -0.206651  0  3.440055  0
N  N51  1  0.27906914  0.48944206  0.48840900  1  -1.227818  0  -0.288197  -0.207272  0  3.439611  0
N  N52  1  0.97552431  0.47400771  0.51378253  1  -0.332732  0  -0.086416  -0.033576  0  3.241872  0
N  N53  1  0.02444050  0.52593463  0.48657361  1  -0.374997  0  -0.086109  -0.03508  0  3.243177  0
N  N54  1  0.37808293  0.60462693  0.09648740  1  0.425636  0  0.062713  0.514961  0  4.273272  0
N  N55  1  0.62214125  0.39560413  0.90355738  1  0.410536  0  0.062492  0.513688  0  4.270853  0
N  N56  1  0.63085373  0.90624301  0.40364949  1  0.419402  0  0.062971  0.521832  0  4.241245  0
N  N57  1  0.36917626  0.09366829  0.59608050  1  0.419235  0  0.063921  0.523639  0  4.242658  0
N  N58  1  0.37819615  0.59386302  0.26157436  1  0.446959  0  0.061505  0.515095  0  4.239503  0
N  N59  1  0.62188996  0.40629846  0.73841359  1  0.447145  0  0.061872  0.514994  0  4.239355  0
N  N60  1  0.62585349  0.74033897  0.41007174  1  0.460355  0  0.060902  0.514633  0  4.257781  0
N  N61  1  0.37414614  0.25960286  0.58980568  1  0.460542  0  0.060234  0.51366  0  4.25856  0
N  N62  1  0.24744304  0.40361733  0.37301276  1  0.468792  0  0.066053  0.465088  0  4.279757  0
N  N63  1  0.75250695  0.59684217  0.62680308  1  0.467925  0  0.066636  0.466309  0  4.279711  0
N  N64  1  0.07256158  0.42438597  0.36782861  1  0.449665  0  0.066309  0.518053  0  4.240492  0
N  N65  1  0.92734423  0.57577572  0.63233942  1  0.445026  0  0.067519  0.519938  0  4.242768  0
N  N66  1  0.84433779  0.39193819  0.39680902  1  0.426729  0  0.071731  0.524757  0  4.209439  0
N  N67  1  0.15566486  0.60782826  0.60362803  1  0.424656  0  0.071159  0.523471  0  4.211218  0
O  O68  1  0.42831187  0.37593972  0.49944303  1  -1.126041  0  -0.302955  -0.527281  0  2.393641  0
O  O69  1  0.57167001  0.62411504  0.50051130  1  -1.125712  0  -0.303189  -0.527265  0  2.394479  0
O  O70  1  0.57875659  0.51462565  0.62275555  1  -1.152162  0  -0.31025  -0.538769  0  2.359098  0
O  O71  1  0.42120146  0.48549762  0.37727902  1  -1.152959  0  -0.310433  -0.539136  0  2.360402  0
O  O72  1  0.57110578  0.39027468  0.50538657  1  -1.143019  0  -0.306738  -0.540062  0  2.350559  0
O  O73  1  0.42888712  0.60981551  0.49469804  1  -1.1423  0  -0.306866  -0.540317  0  2.350098  0
O  O74  1  0.43550449  0.49771043  0.61449814  1  -1.140665  0  -0.30071  -0.527518  0  2.326012  0
O  O75  1  0.56444371  0.50229800  0.38552199  1  -1.139179  0  -0.301009  -0.527698  0  2.325636  0
O  O76  1  0.39165886  0.67498455  0.11671856  1  -0.403199  0  -0.11678  -0.297138  0  1.854233  0
O  O77  1  0.32583562  0.57312685  0.04321012  1  -0.422003  0  -0.113879  -0.30137  0  1.878079  0
O  O78  1  0.60863997  0.32523703  0.88336452  1  -0.403382  0  -0.116922  -0.2971  0  1.8531  0
O  O79  1  0.67438142  0.42717572  0.95680280  1  -0.403445  0  -0.113604  -0.300514  0  1.87644  0
O  O80  1  0.63553075  0.88277650  0.33601621  1  -0.421161  0  -0.116789  -0.298658  0  1.859451  0
O  O81  1  0.67267245  0.96469962  0.43891759  1  -0.416968  0  -0.118143  -0.310735  0  1.87719  0
O  O82  1  0.36452019  0.11713192  0.66371616  1  -0.420415  0  -0.117717  -0.299798  0  1.860725  0
O  O83  1  0.32738627  0.03520024  0.56081415  1  -0.415345  0  -0.117901  -0.311063  0  1.877911  0
O  O84  1  0.30242323  0.58303638  0.23663433  1  -0.424122  0  -0.11556  -0.30074  0  1.894401  0
O  O85  1  0.41218947  0.63867875  0.31641130  1  -0.425144  0  -0.106897  -0.292916  0  1.963494  0
O  O86  1  0.69768682  0.41725335  0.76325473  1  -0.424199  0  -0.115911  -0.300891  0  1.894447  0
O  O87  1  0.58787945  0.36144286  0.68362142  1  -0.425684  0  -0.106895  -0.29266  0  1.963167  0
O  O88  1  0.70027064  0.75666105  0.43821775  1  -0.420374  0  -0.117525  -0.300271  0  1.874942  0
O  O89  1  0.59784569  0.69607084  0.35317292  1  -0.410782  0  -0.105068  -0.285965  0  1.931771  0
O  O90  1  0.29972719  0.24332043  0.56166251  1  -0.42022  0  -0.117133  -0.299861  0  1.874771  0
O  O91  1  0.40220972  0.30382391  0.64672484  1  -0.409305  0  -0.10487  -0.28572  0  1.931989  0
O  O92  1  0.27636172  0.34481881  0.39550293  1  -0.370259  0  -0.072693  -0.23343  0  1.932616  0
O  O93  1  0.23903314  0.42761615  0.30656316  1  -0.385615  0  -0.087492  -0.257841  0  1.918881  0
O  O94  1  0.72363988  0.65557483  0.60405544  1  -0.372849  0  -0.073825  -0.235014  0  1.933375  0
O  O95  1  0.76082502  0.57308411  0.69335019  1  -0.383426  0  -0.087338  -0.257789  0  1.917881  0
O  O96  1  0.02303486  0.46605518  0.33631485  1  -0.400931  0  -0.098333  -0.280948  0  1.885462  0
O  O97  1  0.07685353  0.35512143  0.35163665  1  -0.386154  0  -0.081178  -0.2549  0  1.885161  0
O  O98  1  0.97671274  0.53407050  0.66402822  1  -0.397677  0  -0.099559  -0.282581  0  1.886357  0
O  O99  1  0.92317771  0.64509795  0.64834688  1  -0.383287  0  -0.081399  -0.255383  0  1.887089  0
O  O100  1  0.79129781  0.37593564  0.33938677  1  -0.396262  0  -0.089237  -0.274201  0  1.863051  0
O  O101  1  0.91028068  0.36257161  0.41141015  1  -0.399739  0  -0.100065  -0.294392  0  1.949956  0
O  O102  1  0.20865416  0.62364174  0.66111678  1  -0.398134  0  -0.089357  -0.27386  0  1.863247  0
O  O103  1  0.08975655  0.63726250  0.58906995  1  -0.398686  0  -0.100157  -0.293903  0  1.950384  0
F  F104  1  0.41774403  0.59122933  0.74420401  1  -0.616787  0  -0.083807  -0.118902  0  1.334708  0
F  F105  1  0.58209000  0.40867584  0.25585589  1  -0.616559  0  -0.083599  -0.118725  0  1.334229  0
F  F106  1  0.60496512  0.25981237  0.42875731  1  -0.615149  0  -0.085989  -0.120626  0  1.336407  0
F  F107  1  0.39513643  0.74034089  0.57123650  1  -0.615082  0  -0.086264  -0.12087  0  1.336243  0
