# generated using pymatgen
data_NdH19(C17O4)2
_symmetry_space_group_name_H-M   'P 1'
_cell_length_a   9.32465160
_cell_length_b   11.97123013
_cell_length_c   15.80710000
_cell_angle_alpha   81.18797747
_cell_angle_beta   73.69863177
_cell_angle_gamma   71.15554097
_symmetry_Int_Tables_number   1
_chemical_formula_structural   NdH19(C17O4)2
_chemical_formula_sum   'Nd2 H38 C68 O16'
_cell_volume   1598.99261452
_cell_formula_units_Z   2
loop_
 _symmetry_equiv_pos_site_id
 _symmetry_equiv_pos_as_xyz
  1  'x, y, z'
loop_
 _atom_site_type_symbol
 _atom_site_label
 _atom_site_symmetry_multiplicity
 _atom_site_fract_x
 _atom_site_fract_y
 _atom_site_fract_z
 _atom_site_occupancy
 _atom_site_hle17_bader_spin_density
 _atom_site_hle17_ddec_charge
 _atom_site_hle17_ddec_spin_density
 _atom_site_hle17_ddec_sum_bond_order
 _atom_site_hle17_magmom
 _atom_site_hse06_10hf_bader_spin_density
 _atom_site_hse06_10hf_ddec_charge
 _atom_site_hse06_10hf_ddec_spin_density
 _atom_site_hse06_10hf_ddec_sum_bond_order
 _atom_site_hse06_10hf_magmom
 _atom_site_hse06_bader_spin_density
 _atom_site_hse06_ddec_charge
 _atom_site_hse06_ddec_spin_density
 _atom_site_hse06_ddec_sum_bond_order
 _atom_site_hse06_magmom
 _atom_site_pbe_bader_charge
 _atom_site_pbe_bader_spin_density
 _atom_site_pbe_cm5_charge
 _atom_site_pbe_ddec_charge
 _atom_site_pbe_ddec_spin_density
 _atom_site_pbe_ddec_sum_bond_order
 _atom_site_pbe_magmom
Nd  Nd0  1  0.18423350  0.02835610  0.01976182  1  0  2.330192  0  1.650054  0  0  2.225061  0  2.023373  0  0  2.267306  0  1.977078  0  2.264135  0  1.518454  2.145447  0  2.144274  0
Nd  Nd1  1  0.81576690  0.97164455  0.98023842  1  0  2.33018  0  1.650068  0  0  2.225053  0  2.023387  0  0  2.267295  0  1.977094  0  2.264192  0  1.518446  2.145426  0  2.144307  0
H  H2  1  0.47619176  0.19235345  0.05247759  1  0  0.417205  0  0.859738  0  0  0.387399  0  0.936471  0  0  0.399519  0  0.923194  0  0.653643  0  0.317463  0.37887  0  0.945721  0
H  H3  1  0.52380933  0.80764543  0.94752274  1  0  0.417183  0  0.859778  0  0  0.387377  0  0.93651  0  0  0.399498  0  0.923233  0  0.653646  0  0.317456  0.378848  0  0.945759  0
H  H4  1  0.62739354  0.71787294  0.50296241  1  0  0.088523  0  0.965321  0  0  0.100414  0  1.026684  0  0  0.103503  0  1.024674  0  0.018295  0  0.10002  0.098211  0  1.02815  0
H  H5  1  0.37260721  0.28212683  0.49703787  1  0  0.088526  0  0.965317  0  0  0.100419  0  1.026679  0  0  0.103506  0  1.024669  0  0.018284  0  0.10002  0.098216  0  1.028145  0
H  H6  1  0.82475327  0.28368132  0.52074699  1  0  0.093109  0  0.95373  0  0  0.105297  0  1.01389  0  0  0.108254  0  1.012431  0  0.037205  0  0.10202  0.103187  0  1.014977  0
H  H7  1  0.17524602  0.71631932  0.47925280  1  0  0.093096  0  0.953736  0  0  0.105283  0  1.013898  0  0  0.10824  0  1.012438  0  0.037204  0  0.102009  0.103172  0  1.014985  0
H  H8  1  0.85548841  0.23637132  0.38026444  1  0  0.095563  0  0.947451  0  0  0.107849  0  1.002996  0  0  0.110592  0  1.002763  0  0.067668  0  0.102467  0.1059  0  1.003245  0
H  H9  1  0.14451311  0.76362933  0.61973561  1  0  0.095552  0  0.947439  0  0  0.107835  0  1.002988  0  0  0.110578  0  1.002755  0  0.06765  0  0.10245  0.105887  0  1.003236  0
H  H10  1  0.05298720  0.12955066  0.25404979  1  0  0.119412  0  0.94138  0  0  0.12696  0  1.003789  0  0  0.130795  0  1.000765  0  0.143278  0  0.115229  0.124245  0  1.005886  0
H  H11  1  0.94701467  0.87044910  0.74594967  1  0  0.119432  0  0.94135  0  0  0.12698  0  1.003762  0  0  0.130816  0  1.000738  0  0.143286  0  0.115238  0.124264  0  1.00586  0
H  H12  1  0.29748417  0.39008438  0.21188863  1  0  0.102737  0  0.951347  0  0  0.112567  0  1.011392  0  0  0.115712  0  1.009326  0  0.11935  0  0.107448  0.110256  0  1.012965  0
H  H13  1  0.70251623  0.60991626  0.78811097  1  0  0.102751  0  0.951342  0  0  0.112583  0  1.01138  0  0  0.115729  0  1.009312  0  0.11936  0  0.107453  0.110272  0  1.012953  0
H  H14  1  0.10583629  0.49352708  0.34096997  1  0  0.092078  0  0.97989  0  0  0.100745  0  1.04459  0  0  0.103001  0  1.045293  0  0.094161  0  0.099346  0.099102  0  1.044221  0
H  H15  1  0.89416411  0.50647357  0.65903027  1  0  0.092088  0  0.979895  0  0  0.100757  0  1.044592  0  0  0.103013  0  1.045294  0  0.094173  0  0.099355  0.099115  0  1.044223  0
H  H16  1  0.81420854  0.56669821  0.25685806  1  0  0.094991  0  0.962226  0  0  0.10833  0  1.018398  0  0  0.110827  0  1.018101  0  0.06739  0  0.102841  0.106535  0  1.018783  0
H  H17  1  0.18579109  0.43330156  0.74314178  1  0  0.094994  0  0.962225  0  0  0.108315  0  1.018418  0  0  0.110812  0  1.01812  0  0.067397  0  0.102843  0.10652  0  1.018801  0
H  H18  1  0.90230297  0.70890161  0.13817906  1  0  0.105914  0  0.93162  0  0  0.115709  0  0.989925  0  0  0.119824  0  0.98664  0  0.111177  0  0.114835  0.113065  0  0.991704  0
H  H19  1  0.09769743  0.29109903  0.86182118  1  0  0.105902  0  0.931619  0  0  0.115698  0  0.989923  0  0  0.119813  0  0.986639  0  0.111165  0  0.114831  0.113055  0  0.991702  0
H  H20  1  0.98449457  0.88618430  0.32842246  1  0  0.105382  0  0.931602  0  0  0.11788  0  0.985154  0  0  0.121455  0  0.98288  0  0.080772  0  0.108133  0.115221  0  0.986965  0
H  H21  1  0.01550540  0.11381457  0.67157805  1  0  0.105412  0  0.931544  0  0  0.117917  0  0.985088  0  0  0.121493  0  0.982814  0  0.080766  0  0.108158  0.115258  0  0.986899  0
H  H22  1  0.88668341  0.74790740  0.44934040  1  0  0.093216  0  0.951926  0  0  0.104953  0  1.009999  0  0  0.107811  0  1.009399  0  0.079295  0  0.099478  0.102911  0  1.010509  0
H  H23  1  0.11331476  0.25209325  0.55065957  1  0  0.093202  0  0.951933  0  0  0.10495  0  1.009994  0  0  0.107807  0  1.009394  0  0.079282  0  0.099472  0.102907  0  1.010504  0
H  H24  1  0.59793996  0.77542830  0.62762464  1  0  0.088916  0  0.956211  0  0  0.102614  0  1.010695  0  0  0.105325  0  1.009997  0  0.054207  0  0.099033  0.100661  0  1.011301  0
H  H25  1  0.40206044  0.22457235  0.37237496  1  0  0.088943  0  0.956194  0  0  0.102631  0  1.010688  0  0  0.105343  0  1.00999  0  0.054208  0  0.099042  0.100679  0  1.011294  0
H  H26  1  0.41701613  0.88844394  0.75382283  1  0  0.100249  0  0.937741  0  0  0.111348  0  0.995452  0  0  0.114661  0  0.993553  0  0.079861  0  0.106355  0.108874  0  0.997049  0
H  H27  1  0.58298350  0.11155582  0.24617764  1  0  0.100237  0  0.937756  0  0  0.11134  0  0.99547  0  0  0.114654  0  0.993572  0  0.079858  0  0.106356  0.108867  0  0.997067  0
H  H28  1  0.18428513  0.61938216  0.83257414  1  0  0.101936  0  0.930815  0  0  0.113935  0  0.985348  0  0  0.117329  0  0.983514  0  0.080069  0  0.106592  0.111379  0  0.986977  0
H  H29  1  0.81571415  0.38061849  0.16742565  1  0  0.101945  0  0.930801  0  0  0.113941  0  0.985337  0  0  0.117335  0  0.983502  0  0.080074  0  0.106594  0.111386  0  0.986965  0
H  H30  1  0.36864153  0.50278418  0.70787437  1  0  0.085967  0  0.990171  0  0  0.095508  0  1.054592  0  0  0.097746  0  1.054711  0  0.080581  0  0.096497  0.093905  0  1.054595  0
H  H31  1  0.63135810  0.49721559  0.29212547  1  0  0.085966  0  0.990173  0  0  0.095504  0  1.054598  0  0  0.097743  0  1.054716  0  0.080583  0  0.096495  0.0939  0  1.054601  0
H  H32  1  0.71847501  0.43455347  0.75144899  1  0  0.091756  0  0.971647  0  0  0.104767  0  1.031695  0  0  0.107056  0  1.03149  0  0.039888  0  0.101715  0.103161  0  1.031882  0
H  H33  1  0.28152462  0.56544629  0.24855148  1  0  0.091735  0  0.971688  0  0  0.104791  0  1.031684  0  0  0.107086  0  1.031463  0  0.039881  0  0.101739  0.103184  0  1.031871  0
H  H34  1  0.64959422  0.30524169  0.88514209  1  0  0.104812  0  0.92805  0  0  0.117049  0  0.98097  0  0  0.120619  0  0.978731  0  0.090838  0  0.112918  0.114487  0  0.982665  0
H  H35  1  0.35040653  0.69475807  0.11485756  1  0  0.104806  0  0.928068  0  0  0.11704  0  0.980987  0  0  0.120609  0  0.978748  0  0.090831  0  0.112919  0.114478  0  0.982682  0
H  H36  1  0.45463381  0.13775668  0.74223599  1  0  0.09897  0  0.937113  0  0  0.11138  0  0.992249  0  0  0.114228  0  0.991086  0  0.085731  0  0.10794  0.109228  0  0.993377  0
H  H37  1  0.54536694  0.86224309  0.25776366  1  0  0.098901  0  0.937121  0  0  0.111337  0  0.992237  0  0  0.114184  0  0.991073  0  0.085733  0  0.107933  0.109185  0  0.993365  0
H  H38  1  0.53651338  0.26041782  0.60525351  1  0  0.090842  0  0.95848  0  0  0.102056  0  1.019006  0  0  0.104719  0  1.018504  0  0.060103  0  0.097107  0.100108  0  1.019515  0
H  H39  1  0.46348772  0.73958106  0.39474682  1  0  0.090865  0  0.958477  0  0  0.102078  0  1.018999  0  0  0.104742  0  1.018496  0  0.060095  0  0.097114  0.10013  0  1.019508  0
C  C40  1  0.84179505  0.44221360  0.43920527  1  0  0.021018  0  3.74111  0  0  0.029513  0  3.980225  0  0  0.02906  0  4.002829  0  0.027478  0  -0.004073  0.029778  0  3.964849  0
C  C41  1  0.15820492  0.55778528  0.56079524  1  0  0.02103  0  3.741045  0  0  0.029524  0  3.98016  0  0  0.02907  0  4.002764  0  0.027222  0  -0.004043  0.029789  0  3.964783  0
C  C42  1  0.78739369  0.56761657  0.43591362  1  0  0.02236  0  3.734724  0  0  0.030447  0  3.97217  0  0  0.03015  0  3.994938  0  -0.04651  0  -0.002361  0.030613  0  3.956692  0
C  C43  1  0.21260594  0.43238319  0.56408684  1  0  0.022424  0  3.734678  0  0  0.030508  0  3.972117  0  0  0.03021  0  3.994886  0  -0.047054  0  -0.002349  0.030673  0  3.956639  0
C  C44  1  0.67352474  0.62172143  0.50826019  1  0  -0.15037  0  3.740916  0  0  -0.179458  0  3.997343  0  0  -0.182479  0  4.017568  0  -0.003646  0  -0.088518  -0.177264  0  3.983539  0
C  C45  1  0.32647601  0.37827834  0.49174009  1  0  -0.150397  0  3.740856  0  0  -0.179498  0  3.997272  0  0  -0.182523  0  4.017492  0  -0.003624  0  -0.088531  -0.177304  0  3.983469  0
C  C46  1  0.61369812  0.56002811  0.58583712  1  0  0.025945  0  3.73989  0  0  0.032419  0  3.978449  0  0  0.032526  0  4.001232  0  -0.025095  0  -0.003199  0.032329  0  3.962938  0
C  C47  1  0.38630263  0.43997165  0.41416253  1  0  0.025925  0  3.739948  0  0  0.032438  0  3.978453  0  0  0.032561  0  4.001215  0  -0.025115  0  -0.003188  0.032349  0  3.962942  0
C  C48  1  0.67085754  0.43466406  0.58951909  1  0  0.021568  0  3.736853  0  0  0.030608  0  3.974802  0  0  0.030161  0  3.997457  0  -0.01318  0  -0.00193  0.030878  0  3.959427  0
C  C49  1  0.32914355  0.56533481  0.41048061  1  0  0.021471  0  3.736854  0  0  0.030504  0  3.97482  0  0  0.030051  0  3.997472  0  -0.013184  0  -0.002012  0.030773  0  3.959446  0
C  C50  1  0.77931249  0.37995051  0.51574889  1  0  -0.142699  0  3.726948  0  0  -0.172838  0  3.982749  0  0  -0.175442  0  4.002942  0  -0.005402  0  -0.086627  -0.170914  0  3.968965  0
C  C51  1  0.22068826  0.62004926  0.48425076  1  0  -0.142657  0  3.726865  0  0  -0.172787  0  3.982659  0  0  -0.17539  0  4.002853  0  -0.005106  0  -0.086611  -0.170864  0  3.968876  0
C  C52  1  0.96416903  0.37485172  0.36794124  1  0  0.069899  0  3.768503  0  0  0.08145  0  4.004182  0  0  0.083838  0  4.027017  0  -0.055311  0  -0.001101  0.079974  0  3.988638  0
C  C53  1  0.03583172  0.62514805  0.63205905  1  0  0.069859  0  3.768444  0  0  0.081407  0  4.004125  0  0  0.083795  0  4.026961  0  -0.055313  0  -0.001121  0.079931  0  3.988583  0
C  C54  1  0.95414620  0.26903524  0.34478146  1  0  -0.124472  0  3.741799  0  0  -0.140646  0  3.98986  0  0  -0.146183  0  4.012016  0  -0.084259  0  -0.089935  -0.137138  0  3.975012  0
C  C55  1  0.04585455  0.73096452  0.65521883  1  0  -0.1244  0  3.741737  0  0  -0.140563  0  3.989788  0  0  -0.1461  0  4.011946  0  -0.084271  0  -0.089877  -0.137055  0  3.97494  0
C  C56  1  0.06316406  0.20938215  0.27396109  1  0  -0.042407  0  3.709063  0  0  -0.069196  0  3.958829  0  0  -0.066801  0  3.977945  0  -0.022215  0  -0.071539  -0.070687  0  3.94619  0
C  C57  1  0.93683703  0.79061673  0.72603860  1  0  -0.04247  0  3.70915  0  0  -0.069266  0  3.958926  0  0  -0.066872  0  3.978043  0  -0.022211  0  -0.07156  -0.070757  0  3.946286  0
C  C58  1  0.18494527  0.25498017  0.22449505  1  0  -0.092715  0  3.780025  0  0  -0.070672  0  4.013518  0  0  -0.081579  0  4.038137  0  0.04616  0  -0.019369  -0.063653  0  3.997446  0
C  C59  1  0.81505806  0.74501870  0.77550428  1  0  -0.09261  0  3.780032  0  0  -0.070565  0  4.013506  0  0  -0.081471  0  4.038126  0  0.04615  0  -0.019336  -0.063549  0  3.997433  0
C  C60  1  0.20034915  0.35720900  0.24949611  1  0  -0.056164  0  3.74721  0  0  -0.083105  0  4.0  0  0  -0.081269  0  4.020073  0  -0.094347  0  -0.08127  -0.084159  0  3.986474  0
C  C61  1  0.79965160  0.64279076  0.75050417  1  0  -0.056211  0  3.747273  0  0  -0.083153  0  4.000057  0  0  -0.081315  0  4.020128  0  -0.094363  0  -0.081287  -0.084206  0  3.986532  0
C  C62  1  0.09245049  0.41517577  0.32102921  1  0  -0.122616  0  3.752818  0  0  -0.141535  0  4.006188  0  0  -0.146651  0  4.028204  0  -0.054089  0  -0.091764  -0.138107  0  3.991245  0
C  C63  1  0.90755025  0.58482399  0.67897107  1  0  -0.122638  0  3.752835  0  0  -0.141557  0  4.006202  0  0  -0.146673  0  4.028216  0  -0.054097  0  -0.091783  -0.138128  0  3.991258  0
C  C64  1  0.29295319  0.19584289  0.14564313  1  0  0.691392  0  3.791091  0  0  0.64603  0  4.079616  0  0  0.681391  0  4.068168  0  1.509114  0  0.254533  0.62182  0  4.085258  0
C  C65  1  0.70704756  0.80415688  0.85435715  1  0  0.691323  0  3.791093  0  0  0.645981  0  4.079593  0  0  0.681343  0  4.068146  0  1.508524  0  0.254554  0.621776  0  4.085227  0
C  C66  1  0.84289963  0.64785593  0.36165906  1  0  0.063771  0  3.778163  0  0  0.079385  0  4.009847  0  0  0.081304  0  4.032638  0  -0.052663  0  -0.002176  0.078251  0  3.994259  0
C  C67  1  0.15709674  0.35214649  0.63834101  1  0  0.06369  0  3.778192  0  0  0.079324  0  4.009856  0  0  0.081244  0  4.032646  0  -0.052155  0  -0.002196  0.07819  0  3.994268  0
C  C68  1  0.84893137  0.63754687  0.27331767  1  0  -0.114785  0  3.745992  0  0  -0.13404  0  3.996896  0  0  -0.138522  0  4.01856  0  -0.044031  0  -0.08758  -0.131161  0  3.98239  0
C  C69  1  0.15106826  0.36245289  0.72668217  1  0  -0.114742  0  3.745971  0  0  -0.133989  0  3.996871  0  0  -0.138471  0  4.018533  0  -0.044051  0  -0.087559  -0.131111  0  3.982368  0
C  C70  1  0.89919254  0.71664933  0.20648523  1  0  -0.047296  0  3.712939  0  0  -0.074454  0  3.966123  0  0  -0.072849  0  3.984548  0  -0.056379  0  -0.073091  -0.0754  0  3.954  0
C  C71  1  0.10080787  0.28335131  0.79351501  1  0  -0.0473  0  3.712935  0  0  -0.074447  0  3.966127  0  0  -0.072842  0  3.984551  0  -0.056364  0  -0.07311  -0.075392  0  3.954004  0
C  C72  1  0.94833475  0.80633335  0.22633428  1  0  -0.065102  0  3.751389  0  0  -0.04185  0  3.984307  0  0  -0.050887  0  4.008216  0  -0.007401  0  -0.013326  -0.036576  0  3.969291  0
C  C73  1  0.05166454  0.19366730  0.77366551  1  0  -0.065115  0  3.75139  0  0  -0.041906  0  3.984369  0  0  -0.050943  0  4.008277  0  -0.007577  0  -0.013331  -0.036633  0  3.969355  0
C  C74  1  0.94305267  0.81742718  0.31421440  1  0  -0.05828  0  3.748687  0  0  -0.082654  0  3.995423  0  0  -0.081839  0  4.016131  0  -0.008762  0  -0.081729  -0.083024  0  3.981758  0
C  C75  1  0.05694516  0.18257435  0.68578553  1  0  -0.05833  0  3.748602  0  0  -0.082701  0  3.995369  0  0  -0.081886  0  4.016077  0  -0.008547  0  -0.081748  -0.08307  0  3.981704  0
C  C76  1  0.88889071  0.74014906  0.38108568  1  0  -0.129836  0  3.752732  0  0  -0.147908  0  4.001127  0  0  -0.152598  0  4.022618  0  -0.044742  0  -0.093359  -0.144799  0  3.986443  0
C  C77  1  0.11110635  0.25985158  0.61891384  1  0  -0.129814  0  3.752707  0  0  -0.147902  0  4.0011  0  0  -0.152591  0  4.022589  0  -0.044738  0  -0.093377  -0.144793  0  3.986417  0
C  C78  1  0.01446018  0.88603301  0.15562356  1  0  0.680102  0  3.897097  0  0  0.632531  0  4.195818  0  0  0.667191  0  4.185845  0  1.498502  0  0.21255  0.609636  0  4.19578  0
C  C79  1  0.98553945  0.11396675  0.84437691  1  0  0.680174  0  3.897122  0  0  0.632626  0  4.195837  0  0  0.667285  0  4.185866  0  1.498558  0  0.212584  0.609731  0  4.195796  0
C  C80  1  0.49841849  0.62903562  0.65882847  1  0  0.052159  0  3.771643  0  0  0.066931  0  4.005297  0  0  0.067691  0  4.029017  0  -0.038349  0  -0.009123  0.066557  0  3.989005  0
C  C81  1  0.50158114  0.37096414  0.34117137  1  0  0.052175  0  3.771653  0  0  0.066936  0  4.005301  0  0  0.067691  0  4.029018  0  -0.038437  0  -0.009122  0.066562  0  3.989008  0
C  C82  1  0.50665866  0.74063744  0.67151295  1  0  -0.125541  0  3.76752  0  0  -0.14264  0  4.015603  0  0  -0.146905  0  4.038025  0  -0.08414  0  -0.093599  -0.139706  0  4.000259  0
C  C83  1  0.49334097  0.25936232  0.32848751  1  0  -0.125577  0  3.767518  0  0  -0.142667  0  4.015619  0  0  -0.146932  0  4.038041  0  -0.084162  0  -0.093615  -0.139733  0  4.000275  0
C  C84  1  0.40606622  0.80435417  0.74247557  1  0  -0.063598  0  3.752946  0  0  -0.090562  0  4.005986  0  0  -0.090472  0  4.026929  0  0.002675  0  -0.085371  -0.090548  0  3.992278  0
C  C85  1  0.59393341  0.19564559  0.25752490  1  0  -0.063583  0  3.752919  0  0  -0.09056  0  4.005967  0  0  -0.090469  0  4.026911  0  0.002693  0  -0.085375  -0.090547  0  3.99226  0
C  C86  1  0.29105509  0.76007884  0.80191211  1  0  -0.05235  0  3.726262  0  0  -0.030141  0  3.956487  0  0  -0.037659  0  3.979008  0  -0.033429  0  -0.011894  -0.025892  0  3.942752  0
C  C87  1  0.70894532  0.23992180  0.19808749  1  0  -0.052335  0  3.726213  0  0  -0.030107  0  3.956433  0  0  -0.037628  0  3.978965  0  -0.033426  0  -0.011891  -0.025858  0  3.942698  0
C  C88  1  0.27671114  0.65204697  0.78767824  1  0  -0.064295  0  3.745759  0  0  -0.087781  0  3.994528  0  0  -0.087757  0  4.014856  0  -0.027912  0  -0.082798  -0.087755  0  3.981305  0
C  C89  1  0.72328702  0.34795368  0.21232174  1  0  -0.064314  0  3.74578  0  0  -0.087799  0  3.994545  0  0  -0.087774  0  4.014875  0  -0.0279  0  -0.0828  -0.087774  0  3.981322  0
C  C90  1  0.37986968  0.58717741  0.71773655  1  0  -0.115391  0  3.75586  0  0  -0.136008  0  4.009219  0  0  -0.139591  0  4.031094  0  -0.030193  0  -0.091787  -0.133512  0  3.994195  0
C  C91  1  0.62013107  0.41282235  0.28226373  1  0  -0.115395  0  3.755894  0  0  -0.136009  0  4.009254  0  0  -0.139593  0  4.031131  0  -0.030145  0  -0.091794  -0.133513  0  3.99423  0
C  C92  1  0.18652969  0.82900673  0.87896547  1  0  0.716879  0  3.851788  0  0  0.672337  0  4.144834  0  0  0.707897  0  4.132797  0  1.575319  0  0.2337  0.647982  0  4.148882  0
C  C93  1  0.81347071  0.17099392  0.12103477  1  0  0.716828  0  3.851894  0  0  0.672259  0  4.144991  0  0  0.707811  0  4.132974  0  1.575322  0  0.233652  0.647903  0  4.149038  0
C  C94  1  0.62983501  0.35740453  0.66955633  1  0  0.062974  0  3.790606  0  0  0.07896  0  4.022156  0  0  0.08044  0  4.045242  0  -0.040776  0  -0.002947  0.078112  0  4.006309  0
C  C95  1  0.37016574  0.64259523  0.33044332  1  0  0.06304  0  3.79051  0  0  0.078985  0  4.022126  0  0  0.080462  0  4.045221  0  -0.040748  0  -0.002915  0.078138  0  4.006278  0
C  C96  1  0.66208530  0.36893454  0.74883876  1  0  -0.112903  0  3.746699  0  0  -0.133976  0  3.998049  0  0  -0.138381  0  4.020336  0  0.013801  0  -0.08841  -0.131076  0  3.983045  0
C  C97  1  0.33791433  0.63106523  0.25116107  1  0  -0.112895  0  3.746702  0  0  -0.133998  0  3.99806  0  0  -0.138401  0  4.02035  0  0.013782  0  -0.088415  -0.131098  0  3.983056  0
C  C98  1  0.62307059  0.29718431  0.82384607  1  0  -0.049663  0  3.732903  0  0  -0.075247  0  3.983831  0  0  -0.074339  0  4.003568  0  -0.072809  0  -0.075851  -0.075785  0  3.970859  0
C  C99  1  0.37692904  0.70281545  0.17615377  1  0  -0.04968  0  3.732889  0  0  -0.075248  0  3.983816  0  0  -0.074341  0  4.003555  0  -0.072814  0  -0.075859  -0.075786  0  3.970844  0
C  C100  1  0.54534104  0.21523740  0.82217008  1  0  -0.069042  0  3.744065  0  0  -0.047809  0  3.975919  0  0  -0.056367  0  3.998902  0  -0.00464  0  -0.012881  -0.042544  0  3.961345  0
C  C101  1  0.45465859  0.78476236  0.17782976  1  0  -0.06895  0  3.744107  0  0  -0.047742  0  3.975977  0  0  -0.056299  0  3.99896  0  -0.004641  0  -0.012878  -0.042476  0  3.961403  0
C  C102  1  0.51527137  0.20150083  0.74306727  1  0  -0.049752  0  3.734869  0  0  -0.072472  0  3.980183  0  0  -0.07164  0  4.000858  0  0.016516  0  -0.077584  -0.072977  0  3.966692  0
C  C103  1  0.48472973  0.79849804  0.25693243  1  0  -0.049687  0  3.734921  0  0  -0.072416  0  3.980231  0  0  -0.071584  0  4.000907  0  0.016528  0  -0.07756  -0.072922  0  3.96674  0
C  C104  1  0.56075791  0.27014383  0.66689210  1  0  -0.128161  0  3.746904  0  0  -0.146663  0  3.995522  0  0  -0.151069  0  4.016738  0  -0.085328  0  -0.093193  -0.143679  0  3.981095  0
C  C105  1  0.43924284  0.72985593  0.33310819  1  0  -0.128216  0  3.74691  0  0  -0.146706  0  3.995542  0  0  -0.151113  0  4.016758  0  -0.085329  0  -0.09322  -0.143723  0  3.981115  0
C  C106  1  0.49085548  0.14791710  0.90577405  1  0  0.734629  0  3.826283  0  0  0.685514  0  4.123066  0  0  0.721466  0  4.109694  0  1.570946  0  0.247564  0.661072  0  4.127723  0
C  C107  1  0.50914527  0.85208267  0.09422623  1  0  0.734571  0  3.826461  0  0  0.685462  0  4.123239  0  0  0.721415  0  4.109869  0  1.570939  0  0.247562  0.66102  0  4.127897  0
O  O108  1  0.27736231  0.10813539  0.11988409  1  0  -0.679927  0  2.080535  0  0  -0.639235  0  2.329742  0  0  -0.66085  0  2.317045  0  -1.186671  0  -0.366074  -0.617724  0  2.338876  0
O  O109  1  0.72263586  0.89186526  0.88011715  1  0  -0.679918  0  2.080637  0  0  -0.639236  0  2.329842  0  0  -0.660851  0  2.317145  0  -1.186117  0  -0.366092  -0.617724  0  2.338971  0
O  O110  1  0.40698032  0.24235928  0.10398123  1  0  -0.52534  0  2.069525  0  0  -0.473291  0  2.272621  0  0  -0.495251  0  2.258784  0  -1.150137  0  -0.310213  -0.458392  0  2.282344  0
O  O111  1  0.59302043  0.75764049  0.89601906  1  0  -0.525307  0  2.069526  0  0  -0.473271  0  2.27262  0  0  -0.495231  0  2.258783  0  -1.150132  0  -0.31022  -0.458372  0  2.282341  0
O  O112  1  0.09372296  0.94428467  0.17252448  1  0  -0.669852  0  1.98214  0  0  -0.630266  0  2.221395  0  0  -0.653896  0  2.213129  0  -1.167691  0  -0.364555  -0.609104  0  2.226569  0
O  O113  1  0.90627744  0.05571598  0.82747575  1  0  -0.669815  0  1.982182  0  0  -0.63023  0  2.221424  0  0  -0.653857  0  2.213158  0  -1.167738  0  -0.364518  -0.609066  0  2.226596  0
O  O114  1  0.99604992  0.89191746  0.07671543  1  0  -0.844986  0  2.130336  0  0  -0.797103  0  2.389968  0  0  -0.820833  0  2.375003  0  -1.215331  0  -0.434196  -0.768767  0  2.398095  0
O  O115  1  0.00395083  0.10808231  0.92328422  1  0  -0.845056  0  2.130375  0  0  -0.797177  0  2.390005  0  0  -0.820908  0  2.375044  0  -1.215294  0  -0.434232  -0.768842  0  2.398132  0
O  O116  1  0.24439015  0.89306143  0.90911770  1  0  -0.746064  0  2.032159  0  0  -0.704115  0  2.285097  0  0  -0.728483  0  2.271932  0  -1.201088  0  -0.406198  -0.679746  0  2.293448  0
O  O117  1  0.75560914  0.10693921  0.09088209  1  0  -0.746081  0  2.032184  0  0  -0.704128  0  2.285149  0  0  -0.728493  0  2.271991  0  -1.201071  0  -0.406213  -0.679756  0  2.2935  0
O  O118  1  0.04777261  0.82143773  0.90805205  1  0  -0.727552  0  1.985221  0  0  -0.686049  0  2.226342  0  0  -0.710272  0  2.213983  0  -1.190015  0  -0.392263  -0.662371  0  2.234647  0
O  O119  1  0.95222891  0.17856292  0.09194737  1  0  -0.727489  0  1.985307  0  0  -0.685976  0  2.226434  0  0  -0.710192  0  2.214075  0  -1.190038  0  -0.3922  -0.662299  0  2.234739  0
O  O120  1  0.36581142  0.12089165  0.91710973  1  0  -0.724724  0  1.978809  0  0  -0.68614  0  2.231851  0  0  -0.708874  0  2.216629  0  -1.199434  0  -0.387369  -0.662638  0  2.243535  0
O  O121  1  0.63418821  0.87910811  0.08289074  1  0  -0.724718  0  1.978853  0  0  -0.686139  0  2.231896  0  0  -0.708872  0  2.216675  0  -1.199438  0  -0.387357  -0.662634  0  2.243581  0
O  O122  1  0.57153620  0.12552949  0.96404587  1  0  -0.768559  0  2.075017  0  0  -0.720077  0  2.331164  0  0  -0.74365  0  2.315217  0  -1.222189  0  -0.384978  -0.696637  0  2.341124  0
O  O123  1  0.42846455  0.87447027  0.03595441  1  0  -0.768551  0  2.075139  0  0  -0.720054  0  2.331248  0  0  -0.743627  0  2.315301  0  -1.222178  0  -0.384985  -0.696615  0  2.341208  0
