# generated using pymatgen
data_DyH22C15S3(N3O2)4
_symmetry_space_group_name_H-M   'P 1'
_cell_length_a   9.25296864
_cell_length_b   11.66886989
_cell_length_c   14.26104085
_cell_angle_alpha   67.82308624
_cell_angle_beta   85.04038402
_cell_angle_gamma   84.79344314
_symmetry_Int_Tables_number   1
_chemical_formula_structural   DyH22C15S3(N3O2)4
_chemical_formula_sum   'Dy2 H44 C30 S6 N24 O16'
_cell_volume   1417.71955641
_cell_formula_units_Z   2
loop_
 _symmetry_equiv_pos_site_id
 _symmetry_equiv_pos_as_xyz
  1  'x, y, z'
loop_
 _atom_site_type_symbol
 _atom_site_label
 _atom_site_symmetry_multiplicity
 _atom_site_fract_x
 _atom_site_fract_y
 _atom_site_fract_z
 _atom_site_occupancy
 _atom_site_pbe_bader_charge
 _atom_site_pbe_bader_spin_density
 _atom_site_pbe_cm5_charge
 _atom_site_pbe_ddec_charge
 _atom_site_pbe_ddec_spin_density
 _atom_site_pbe_ddec_sum_bond_order
 _atom_site_pbe_magmom
Dy  Dy0  1  0.79429804  0.96681476  0.00024926  1  2.1874  0  1.495021  2.10215  0  2.065248  0
Dy  Dy1  1  0.20573194  0.03317708  0.99974471  1  2.187414  0  1.495007  2.102237  0  2.064899  0
H  H2  1  0.86741283  0.37257319  0.84585294  1  0.169566  0  0.113165  0.148261  0  1.019863  0
H  H3  1  0.99687817  0.38878951  0.73972928  1  0.095167  0  0.107912  0.141511  0  1.012699  0
H  H4  1  0.31552420  0.37783359  0.88383766  1  0.460892  0  0.305956  0.297369  0  0.959879  0
H  H5  1  0.28131083  0.50590279  0.78017390  1  0.465391  0  0.293561  0.271177  0  1.00933  0
H  H6  1  0.85125741  0.95608227  0.55135983  1  0.061522  0  0.089877  0.070327  0  1.067856  0
H  H7  1  0.87806381  0.09214633  0.44315261  1  0.068283  0  0.099526  0.105263  0  1.008734  0
H  H8  1  0.22891949  0.21048751  0.45935288  1  0.447764  0  0.293977  0.262661  0  1.00255  0
H  H9  1  0.29611649  0.29806120  0.33901447  1  0.448882  0  0.285456  0.249772  0  1.033989  0
H  H10  1  0.84946035  0.09228190  0.29564489  1  0.107165  0  0.103015  0.131437  0  1.018192  0
H  H11  1  0.81361499  0.23831042  0.19528201  1  0.088384  0  0.107232  0.133419  0  1.030149  0
H  H12  1  0.14755297  0.52303354  0.43843989  1  0.087938  0  0.094646  0.096247  0  1.031754  0
H  H13  1  0.11014622  0.38879401  0.54415592  1  0.11956  0  0.104592  0.12011  0  1.00904  0
H  H14  1  0.65307299  0.13366986  0.56184011  1  0.43374  0  0.317509  0.288244  0  0.929972  0
H  H15  1  0.65261361  0.06142218  0.69056477  1  0.443168  0  0.29444  0.268194  0  1.004121  0
H  H16  1  0.44877409  0.85334211  0.80902986  1  0.122719  0  0.119334  0.160191  0  0.969896  0
H  H17  1  0.61834678  0.86056074  0.73887349  1  0.060647  0  0.096606  0.109118  0  1.030745  0
H  H18  1  0.03578833  0.48078360  0.89895181  1  0.053857  0  0.104932  0.115832  0  0.988303  0
H  H19  1  0.08819943  0.37475288  0.01808291  1  0.118937  0  0.105149  0.120558  0  1.003443  0
H  H20  1  0.63499103  0.20920589  0.99678226  1  0.650042  0  0.290531  0.368023  0  0.987222  0
H  H21  1  0.54599143  0.15434211  0.93170027  1  0.64713  0  0.303161  0.403917  0  0.926319  0
H  H22  1  0.51713261  0.93778533  0.14888617  1  0.65744  0  0.307009  0.406289  0  0.92548  0
H  H23  1  0.63851234  0.82338525  0.18920361  1  0.642471  0  0.342694  0.437876  0  0.835989  0
H  H24  1  0.13261909  0.62742080  0.15415854  1  0.16901  0  0.113237  0.148437  0  1.019754  0
H  H25  1  0.00315050  0.61120605  0.26026368  1  0.095395  0  0.107969  0.14162  0  1.012737  0
H  H26  1  0.68451667  0.62217581  0.11614854  1  0.460585  0  0.305913  0.297316  0  0.960044  0
H  H27  1  0.71869162  0.49411314  0.21982299  1  0.465413  0  0.293575  0.271229  0  1.009347  0
H  H28  1  0.14873634  0.04391630  0.44863834  1  0.061564  0  0.089845  0.070299  0  1.067908  0
H  H29  1  0.12193595  0.90786049  0.55684356  1  0.068369  0  0.099577  0.105313  0  1.00868  0
H  H30  1  0.77104713  0.78956463  0.54064457  1  0.447623  0  0.294047  0.262756  0  1.002246  0
H  H31  1  0.70383202  0.70198417  0.66099994  1  0.447866  0  0.285449  0.249815  0  1.033953  0
H  H32  1  0.15055710  0.90770180  0.70435000  1  0.106917  0  0.103039  0.131453  0  1.018257  0
H  H33  1  0.18638895  0.76166313  0.80472005  1  0.088149  0  0.107207  0.133398  0  1.030211  0
H  H34  1  0.85234236  0.47699530  0.56156672  1  0.087044  0  0.094582  0.096221  0  1.031471  0
H  H35  1  0.88973629  0.61123259  0.45584011  1  0.11799  0  0.104633  0.120247  0  1.008916  0
H  H36  1  0.34691932  0.86633409  0.43816219  1  0.433692  0  0.317562  0.288299  0  0.929956  0
H  H37  1  0.34738065  0.93858538  0.30943848  1  0.44304  0  0.294453  0.268157  0  1.004189  0
H  H38  1  0.55121630  0.14665550  0.19099823  1  0.122958  0  0.119324  0.160199  0  0.969825  0
H  H39  1  0.38163705  0.13945808  0.26112637  1  0.060626  0  0.096628  0.109153  0  1.030724  0
H  H40  1  0.96424541  0.51919857  0.10105599  1  0.054618  0  0.104921  0.115781  0  0.988299  0
H  H41  1  0.91183767  0.62522732  0.98192737  1  0.119141  0  0.105035  0.120315  0  1.003507  0
H  H42  1  0.36503667  0.79078646  0.00322502  1  0.650082  0  0.290543  0.367921  0  0.987338  0
H  H43  1  0.45403887  0.84566139  0.06830153  1  0.647012  0  0.30311  0.403706  0  0.926586  0
H  H44  1  0.48290249  0.06222952  0.85110367  1  0.657807  0  0.306946  0.40623  0  0.925632  0
H  H45  1  0.36151638  0.17662656  0.81079728  1  0.642528  0  0.34273  0.437949  0  0.836008  0
C  C46  1  0.92719904  0.09617591  0.14820839  1  1.634455  0  0.232891  0.71623  0  4.086795  0
C  C47  1  0.89323790  0.20710222  0.67523150  1  0.869746  0  0.218026  0.158856  0  4.087463  0
C  C48  1  0.01556337  0.21847527  0.86693748  1  1.594182  0  0.220405  0.697818  0  4.132039  0
C  C49  1  0.92489535  0.32590905  0.79760723  1  -0.15365  0  -0.147565  -0.334031  0  3.8603  0
C  C50  1  0.92756039  0.02888287  0.51316954  1  -0.016016  0  -0.153966  -0.217759  0  4.004082  0
C  C51  1  0.99677743  0.30468159  0.31390443  1  0.803153  0  0.19467  0.122302  0  4.13829  0
C  C52  1  0.89352426  0.15994037  0.22419030  1  -0.121002  0  -0.145911  -0.320496  0  3.809944  0
C  C53  1  0.94573700  0.09768396  0.57969835  1  0.945326  0  0.208728  0.219496  0  4.019461  0
C  C54  1  0.00083504  0.40993297  0.41346282  1  0.954149  0  0.221853  0.257752  0  3.968359  0
C  C55  1  0.05921986  0.46355144  0.48056977  1  -0.027383  0  -0.154948  -0.222245  0  3.960649  0
C  C56  1  0.56335796  0.81782819  0.81419618  1  -0.138645  0  -0.150526  -0.338757  0  3.904846  0
C  C57  1  0.63368955  0.86058115  0.88699552  1  1.582968  0  0.198112  0.633348  0  4.202643  0
C  C58  1  0.40774838  0.61899148  0.90926654  1  0.858004  0  0.216241  0.153265  0  4.092783  0
C  C59  1  0.19436381  0.54347010  0.96272325  1  0.958482  0  0.223544  0.2341  0  4.0138  0
C  C60  1  0.06360648  0.47403963  0.97438516  1  0.017047  0  -0.147227  -0.220339  0  3.955442  0
C  C61  1  0.07281963  0.90380470  0.85179645  1  1.633799  0  0.232778  0.715805  0  4.087331  0
C  C62  1  0.10678271  0.79290063  0.32476610  1  0.869283  0  0.218028  0.158888  0  4.087091  0
C  C63  1  0.98445638  0.78152398  0.13305840  1  1.595133  0  0.220469  0.697926  0  4.131768  0
C  C64  1  0.07512640  0.67409281  0.20239200  1  -0.153763  0  -0.147736  -0.334418  0  3.860726  0
C  C65  1  0.07243429  0.97111858  0.48682424  1  0.009935  0  -0.15409  -0.217983  0  4.004332  0
C  C66  1  0.00317455  0.69532697  0.68608468  1  0.803968  0  0.194787  0.12248  0  4.138055  0
C  C67  1  0.10648975  0.84004597  0.77580963  1  -0.1205  0  -0.145798  -0.320278  0  3.809902  0
C  C68  1  0.05425908  0.90231176  0.42030193  1  0.945382  0  0.208796  0.219708  0  4.019134  0
C  C69  1  0.99905517  0.59007438  0.58652994  1  0.956169  0  0.222328  0.259074  0  3.967508  0
C  C70  1  0.94067221  0.53647885  0.51942186  1  0.003733  0  -0.154947  -0.222747  0  3.960251  0
C  C71  1  0.43664121  0.18218754  0.18580796  1  -0.138685  0  -0.150463  -0.338704  0  3.904805  0
C  C72  1  0.36634385  0.13940645  0.11301422  1  1.582691  0  0.198247  0.633428  0  4.202081  0
C  C73  1  0.59226566  0.38101241  0.09072971  1  0.858156  0  0.216197  0.153257  0  4.092819  0
C  C74  1  0.80566554  0.45651303  0.03728449  1  0.958414  0  0.223508  0.233902  0  4.014319  0
C  C75  1  0.93641874  0.52593972  0.02562741  1  -0.009779  0  -0.147094  -0.220028  0  3.955414  0
S  S76  1  0.06236473  0.21548351  0.24320428  1  0.142676  0  0.0341  0.039849  0  2.815315  0
S  S77  1  0.57309386  0.65288131  0.84043425  1  0.151405  0  0.037747  0.043345  0  2.743025  0
S  S78  1  0.78297290  0.28146686  0.74214244  1  0.186149  0  0.065876  0.074199  0  2.720196  0
S  S79  1  0.93762827  0.78450816  0.75680855  1  0.142352  0  0.033938  0.039601  0  2.815144  0
S  S80  1  0.42691483  0.34713910  0.15956381  1  0.151316  0  0.037791  0.043299  0  2.743001  0
S  S81  1  0.21705313  0.71853588  0.25785631  1  0.185919  0  0.065852  0.074184  0  2.720173  0
N  N82  1  0.31650417  0.53644985  0.90221719  1  -0.889416  0  -0.147302  0.071056  0  3.806002  0
N  N83  1  0.21076694  0.62436833  0.00478661  1  -0.707217  0  -0.227285  -0.245154  0  3.221064  0
N  N84  1  0.08615087  0.33474786  0.37324863  1  -0.844066  0  -0.156091  0.067791  0  3.776735  0
N  N85  1  0.03681773  0.19609424  0.66379819  1  -0.704905  0  -0.238169  -0.244381  0  3.190536  0
N  N86  1  0.34558947  0.67149075  0.97171211  1  -0.734296  0  -0.224884  -0.230548  0  3.337629  0
N  N87  1  0.83165617  0.14607445  0.62472861  1  -0.863528  0  -0.152914  0.070535  0  3.784728  0
N  N88  1  0.34503101  0.46601001  0.84157341  1  -0.717481  0  -0.505006  -0.518831  0  3.124069  0
N  N89  1  0.22826728  0.29467036  0.40011154  1  -0.773457  0  -0.499635  -0.500675  0  3.224891  0
N  N90  1  0.06920141  0.12827866  0.60137105  1  -0.734384  0  -0.244052  -0.277214  0  3.22952  0
N  N91  1  0.86805177  0.42452130  0.38178463  1  -0.727462  0  -0.251016  -0.267528  0  3.151935  0
N  N92  1  0.86572541  0.35970047  0.31705557  1  -0.74583  0  -0.255022  -0.28711  0  3.279761  0
N  N93  1  0.68188370  0.13703845  0.62799815  1  -0.7375  0  -0.495136  -0.498029  0  3.168252  0
N  N94  1  0.68351969  0.46355291  0.09778166  1  -0.889332  0  -0.147383  0.071155  0  3.806011  0
N  N95  1  0.78925947  0.37560916  0.99522644  1  -0.706633  0  -0.227273  -0.245069  0  3.221283  0
N  N96  1  0.91376988  0.66527345  0.62675459  1  -0.852075  0  -0.156525  0.067134  0  3.776926  0
N  N97  1  0.96320269  0.80389400  0.33619734  1  -0.704841  0  -0.238023  -0.244249  0  3.189928  0
N  N98  1  0.65442864  0.32849896  0.02829504  1  -0.734716  0  -0.224843  -0.23061  0  3.337618  0
N  N99  1  0.16834820  0.85392757  0.37527220  1  -0.863377  0  -0.152955  0.070457  0  3.78459  0
N  N100  1  0.65498673  0.53400509  0.15841518  1  -0.717434  0  -0.504981  -0.518879  0  3.123895  0
N  N101  1  0.77166545  0.70538565  0.59989222  1  -0.766581  0  -0.499574  -0.500687  0  3.224627  0
N  N102  1  0.93080404  0.87170606  0.39862560  1  -0.733969  0  -0.24418  -0.277407  0  3.229261  0
N  N103  1  0.13184816  0.57546967  0.61820043  1  -0.727955  0  -0.251062  -0.267799  0  3.151967  0
N  N104  1  0.13421237  0.64029312  0.68291969  1  -0.745648  0  -0.255238  -0.28744  0  3.280441  0
N  N105  1  0.31811931  0.86296819  0.37200211  1  -0.737427  0  -0.495192  -0.498042  0  3.168262  0
O  O106  1  0.82247397  0.04958542  0.12696521  1  -1.185956  0  -0.377744  -0.637736  0  2.23836  0
O  O107  1  0.95905606  0.11739971  0.92364068  1  -1.222836  0  -0.439417  -0.772765  0  2.494641  0
O  O108  1  0.14861028  0.23195921  0.87155617  1  -1.184294  0  -0.372368  -0.621108  0  2.223529  0
O  O109  1  0.05852234  0.09574848  0.11406091  1  -1.190301  0  -0.394436  -0.65907  0  2.341933  0
O  O110  1  0.68315631  0.78814662  0.96870495  1  -1.178645  0  -0.327387  -0.57777  0  2.25255  0
O  O111  1  0.64015468  0.97971107  0.85697729  1  -1.18896  0  -0.364652  -0.661415  0  2.249668  0
O  O112  1  0.62902144  0.13608886  0.97498247  1  -1.299711  0  -0.671263  -0.888992  0  2.195125  0
O  O113  1  0.59522387  0.88449467  0.12909417  1  -1.263627  0  -0.603465  -0.825779  0  2.119454  0
O  O114  1  0.17756427  0.95037653  0.87304187  1  -1.18533  0  -0.37764  -0.637551  0  2.238335  0
O  O115  1  0.04097017  0.88260062  0.07634752  1  -1.223027  0  -0.43945  -0.772872  0  2.494521  0
O  O116  1  0.85141726  0.76803745  0.12843163  1  -1.184399  0  -0.372375  -0.621007  0  2.223462  0
O  O117  1  0.94150800  0.90423664  0.88594200  1  -1.18986  0  -0.394412  -0.658865  0  2.342566  0
O  O118  1  0.31688054  0.21183841  0.03129834  1  -1.17844  0  -0.327578  -0.577868  0  2.252069  0
O  O119  1  0.35987775  0.02027479  0.14303021  1  -1.188808  0  -0.364684  -0.66144  0  2.249209  0
O  O120  1  0.37100611  0.86390636  0.02502118  1  -1.299662  0  -0.67125  -0.888724  0  2.195339  0
O  O121  1  0.40481177  0.11551086  0.87089975  1  -1.264089  0  -0.603413  -0.825837  0  2.119563  0
