# generated using pymatgen
data_H17PbC16(NO2)3
_symmetry_space_group_name_H-M   'P 1'
_cell_length_a   9.04992713
_cell_length_b   9.33531479
_cell_length_c   11.54099428
_cell_angle_alpha   67.19153408
_cell_angle_beta   89.20918095
_cell_angle_gamma   68.39482630
_symmetry_Int_Tables_number   1
_chemical_formula_structural   H17PbC16(NO2)3
_chemical_formula_sum   'H34 Pb2 C32 N6 O12'
_cell_volume   826.13058440
_cell_formula_units_Z   2
loop_
 _symmetry_equiv_pos_site_id
 _symmetry_equiv_pos_as_xyz
  1  'x, y, z'
loop_
 _atom_site_type_symbol
 _atom_site_label
 _atom_site_symmetry_multiplicity
 _atom_site_fract_x
 _atom_site_fract_y
 _atom_site_fract_z
 _atom_site_occupancy
 _atom_site_pbe_bader_spin_density
 _atom_site_pbe_cm5_charge
 _atom_site_pbe_ddec_charge
 _atom_site_pbe_ddec_spin_density
 _atom_site_pbe_ddec_sum_bond_order
 _atom_site_pbe_magmom
H  H0  1  0.19568434  0.20253108  0.51032439  1  0  0.288413  0.387938  0  0.947246  0
H  H1  1  0.80436910  0.79744790  0.48972472  1  0  0.288499  0.387826  0  0.947409  0
H  H2  1  0.10880806  0.38510891  0.39067068  1  0  0.275648  0.330826  0  1.034862  0
H  H3  1  0.89109664  0.61486867  0.60938867  1  0  0.275569  0.33055  0  1.035324  0
H  H4  1  0.24847704  0.59410028  0.92877283  1  0  0.305712  0.269833  0  1.012507  0
H  H5  1  0.75156921  0.40578999  0.07120944  1  0  0.305767  0.270006  0  1.012492  0
H  H6  1  0.08708036  0.59702150  0.80349498  1  0  0.116931  0.081952  0  1.047055  0
H  H7  1  0.91291734  0.40298592  0.19657259  1  0  0.116982  0.08197  0  1.04725  0
H  H8  1  0.20083069  0.08627788  0.07629894  1  0  0.109931  0.112403  0  1.030589  0
H  H9  1  0.79901327  0.91373343  0.92373221  1  0  0.109943  0.112374  0  1.030911  0
H  H10  1  0.09893066  0.03133315  0.90146479  1  0  0.108009  0.116073  0  0.998331  0
H  H11  1  0.90091632  0.96873726  0.09852892  1  0  0.107988  0.116023  0  0.998171  0
H  H12  1  0.00502568  0.26672861  0.68324750  1  0  0.112727  0.072406  0  1.033789  0
H  H13  1  0.99477885  0.73339131  0.31677449  1  0  0.112572  0.072317  0  1.034005  0
H  H14  1  0.38250128  0.71907366  0.98798033  1  0  0.112097  0.085861  0  1.009848  0
H  H15  1  0.61741775  0.28094169  0.01199526  1  0  0.112118  0.085873  0  1.009842  0
H  H16  1  0.29197292  0.58624723  0.32900480  1  0  0.104712  0.109227  0  1.066797  0
H  H17  1  0.70786811  0.41390367  0.67096830  1  0  0.104742  0.109234  0  1.067149  0
H  H18  1  0.57012085  0.98420429  0.19076587  1  0  0.099258  0.107133  0  1.025288  0
H  H19  1  0.42990345  0.01576803  0.80918763  1  0  0.099255  0.107217  0  1.025312  0
H  H20  1  0.51775625  0.86143678  0.04653085  1  0  0.094  0.093417  0  1.045358  0
H  H21  1  0.48208735  0.13866539  0.95338024  1  0  0.093955  0.093474  0  1.045339  0
H  H22  1  0.25928759  0.57194394  0.64706528  1  0  0.102691  0.110241  0  1.029337  0
H  H23  1  0.74063221  0.42803871  0.35292393  1  0  0.102594  0.110117  0  1.029496  0
H  H24  1  0.13140005  0.66925582  0.49747572  1  0  0.096087  0.097434  0  1.012631  0
H  H25  1  0.86865758  0.33078635  0.50244803  1  0  0.096108  0.097254  0  1.0126  0
H  H26  1  0.30943106  0.48115999  0.53357306  1  0  0.09597  0.102647  0  1.044787  0
H  H27  1  0.69048804  0.51877865  0.46643762  1  0  0.096031  0.102551  0  1.044625  0
H  H28  1  0.05048047  0.14909521  0.23427454  1  0  0.089481  0.149893  0  1.040057  0
H  H29  1  0.94956443  0.85099796  0.76581110  1  0  0.089439  0.149763  0  1.040178  0
H  H30  1  0.07571084  0.93378196  0.30994731  1  0  0.090764  0.138884  0  1.048498  0
H  H31  1  0.92457819  0.06622488  0.69002897  1  0  0.090706  0.138842  0  1.048501  0
H  H32  1  0.05954777  0.05003141  0.40187043  1  0  0.103314  0.171111  0  0.986173  0
H  H33  1  0.94064119  0.94985983  0.59822742  1  0  0.103154  0.170966  0  0.986226  0
Pb  Pb34  1  0.47261994  0.21482206  0.34969638  1  0  0.63816  1.097936  0  1.881562  0
Pb  Pb35  1  0.52754391  0.78532410  0.65015875  1  0  0.638059  1.097826  0  1.8823  0
C  C36  1  0.09406186  0.46913637  0.82925228  1  0  0.054086  0.070229  0  3.926697  0
C  C37  1  0.90588336  0.53088206  0.17078454  1  0  0.053907  0.070585  0  3.926369  0
C  C38  1  0.15801727  0.34351062  0.95224014  1  0  -0.01309  -0.076668  0  3.997219  0
C  C39  1  0.84195492  0.65646727  0.04778307  1  0  -0.013085  -0.07718  0  3.997058  0
C  C40  1  0.15484377  0.18441444  0.98031314  1  0  -0.062204  -0.046106  0  3.918017  0
C  C41  1  0.84508614  0.81559182  0.01969379  1  0  -0.062323  -0.046116  0  3.918432  0
C  C42  1  0.09891146  0.15477728  0.88385408  1  0  -0.083159  -0.127504  0  3.965264  0
C  C43  1  0.90097086  0.84527500  0.11613632  1  0  -0.083211  -0.127503  0  3.965447  0
C  C44  1  0.04477284  0.28606337  0.76267751  1  0  0.056993  0.108355  0  3.937598  0
C  C45  1  0.95508327  0.71401809  0.23733870  1  0  0.057022  0.108316  0  3.938418  0
C  C46  1  0.22789861  0.36805837  0.05548471  1  0  0.232946  0.421037  0  4.169085  0
C  C47  1  0.77207272  0.63191576  0.94454141  1  0  0.233108  0.421593  0  4.168083  0
C  C48  1  0.36363938  0.65869882  0.08663521  1  0  0.052471  0.019958  0  3.971549  0
C  C49  1  0.63634398  0.34128531  0.91335392  1  0  0.052368  0.019778  0  3.971756  0
C  C50  1  0.39976654  0.71769784  0.17666674  1  0  -0.03749  0.041604  0  4.122342  0
C  C51  1  0.60025020  0.28227942  0.82333466  1  0  -0.037408  0.041623  0  4.121431  0
C  C52  1  0.35379586  0.67220048  0.29958397  1  0  -0.110816  -0.258924  0  4.009714  0
C  C53  1  0.64625611  0.32779260  0.70039926  1  0  -0.1108  -0.258699  0  4.008871  0
C  C54  1  0.38310293  0.74080384  0.37931456  1  0  0.07162  0.14019  0  4.03452  0
C  C55  1  0.61694960  0.25915403  0.62068393  1  0  0.071496  0.140059  0  4.034075  0
C  C56  1  0.45453147  0.86332005  0.33892030  1  0  0.090783  0.267567  0  4.101932  0
C  C57  1  0.54542438  0.13673120  0.66102827  1  0  0.090625  0.2671  0  4.102465  0
C  C58  1  0.50786304  0.89849530  0.21957350  1  0  -0.112225  -0.206713  0  4.015776  0
C  C59  1  0.49214426  0.10147464  0.78041552  1  0  -0.112208  -0.206593  0  4.015939  0
C  C60  1  0.47941292  0.82886491  0.13992733  1  0  -0.102142  -0.133592  0  4.049474  0
C  C61  1  0.52056613  0.17111309  0.86004207  1  0  -0.102204  -0.133883  0  4.049912  0
C  C62  1  0.25648523  0.59960234  0.54594503  1  0  -0.143942  -0.176647  0  3.876159  0
C  C63  1  0.74352494  0.40034742  0.45405456  1  0  -0.143941  -0.176415  0  3.876491  0
C  C64  1  0.83476304  0.10785595  0.29765417  1  0  0.201637  0.675361  0  4.168719  0
C  C65  1  0.16546404  0.89202233  0.70239455  1  0  0.201637  0.675083  0  4.168972  0
C  C66  1  0.01450333  0.05939366  0.31001366  1  0  -0.254187  -0.529452  0  3.859086  0
C  C67  1  0.98569719  0.94054519  0.69005892  1  0  -0.254272  -0.529438  0  3.85906  0
N  N68  1  0.03796796  0.44169176  0.73646438  1  0  -0.301596  -0.22587  0  3.379557  0
N  N69  1  0.96189269  0.55839202  0.26357967  1  0  -0.301418  -0.226008  0  3.379509  0
N  N70  1  0.26076244  0.50810095  0.02301715  1  0  -0.290077  -0.236672  0  3.668378  0
N  N71  1  0.73924639  0.49182494  0.97699680  1  0  -0.290374  -0.237282  0  3.668973  0
N  N72  1  0.30734096  0.54097083  0.11916093  1  0  -0.220366  -0.176799  0  3.407489  0
N  N73  1  0.69269377  0.45898731  0.88084107  1  0  -0.220194  -0.176414  0  3.407716  0
O  O74  1  0.25556374  0.25960516  0.16795500  1  0  -0.276268  -0.504656  0  2.277738  0
O  O75  1  0.74445867  0.74035308  0.83207219  1  0  -0.276361  -0.504928  0  2.277848  0
O  O76  1  0.34603554  0.70401851  0.50013141  1  0  -0.180498  -0.176846  0  2.68204  0
O  O77  1  0.65410451  0.29584122  0.49988648  1  0  -0.180453  -0.176644  0  2.682806  0
O  O78  1  0.46577984  0.93785148  0.41277360  1  0  -0.294579  -0.510537  0  2.340925  0
O  O79  1  0.53398848  0.06239771  0.58708549  1  0  -0.294312  -0.509948  0  2.342008  0
O  O80  1  0.78168278  0.00407687  0.37495795  1  0  -0.313569  -0.599713  0  2.205155  0
O  O81  1  0.21850249  0.99588851  0.62513164  1  0  -0.313602  -0.599709  0  2.205147  0
O  O82  1  0.74061816  0.25114589  0.21279427  1  0  -0.3333  -0.628339  0  2.18743  0
O  O83  1  0.25963427  0.74866712  0.78715409  1  0  -0.333019  -0.627835  0  2.187782  0
O  O84  1  0.21057114  0.30463640  0.45136181  1  0  -0.57477  -0.764314  0  2.063082  0
O  O85  1  0.78940480  0.69535054  0.54858231  1  0  -0.574617  -0.763887  0  2.063982  0
