# generated using pymatgen
data_ZnH12(C3N)4
_symmetry_space_group_name_H-M   'P 1'
_cell_length_a   14.99452445
_cell_length_b   15.00611847
_cell_length_c   14.99010946
_cell_angle_alpha   102.80458772
_cell_angle_beta   112.79326972
_cell_angle_gamma   112.98227498
_symmetry_Int_Tables_number   1
_chemical_formula_structural   ZnH12(C3N)4
_chemical_formula_sum   'Zn4 H48 C48 N16'
_cell_volume   2571.61913265
_cell_formula_units_Z   4
loop_
 _symmetry_equiv_pos_site_id
 _symmetry_equiv_pos_as_xyz
  1  'x, y, z'
loop_
 _atom_site_type_symbol
 _atom_site_label
 _atom_site_symmetry_multiplicity
 _atom_site_fract_x
 _atom_site_fract_y
 _atom_site_fract_z
 _atom_site_occupancy
 _atom_site_pbe_bader_charge
 _atom_site_pbe_bader_spin_density
 _atom_site_pbe_cm5_charge
 _atom_site_pbe_ddec_charge
 _atom_site_pbe_ddec_spin_density
 _atom_site_pbe_ddec_sum_bond_order
 _atom_site_pbe_magmom
Zn  Zn0  1  0.35941536  0.01967746  0.86716171  1  1.182073  0  0.737084  0.603293  0  2.477718  0
Zn  Zn1  1  0.64269034  0.02301236  0.14097351  1  1.18685  0  0.740786  0.608318  0  2.448518  0
Zn  Zn2  1  0.36519891  0.88573605  0.01300790  1  1.188067  0  0.738534  0.608586  0  2.441644  0
Zn  Zn3  1  0.63927226  0.16560784  0.00820617  1  1.185537  0  0.741539  0.602296  0  2.471076  0
H  H4  1  0.33932269  0.20415595  0.00186905  1  0.080386  0  0.112484  0.099279  0  1.011941  0
H  H5  1  0.41859084  0.57201457  0.98810811  1  -0.002587  0  0.085888  0.082724  0  0.984256  0
H  H6  1  0.67164456  0.17867198  0.35380127  1  0.095544  0  0.114252  0.102817  0  1.006993  0
H  H7  1  0.56773808  0.65970520  0.06633640  1  0.013224  0  0.086549  0.084163  0  0.987925  0
H  H8  1  0.67196607  0.52496604  0.93485890  1  -0.014785  0  0.086037  0.045923  0  0.978353  0
H  H9  1  0.67730418  0.68316163  0.96643641  1  0.016222  0  0.085658  0.08204  0  0.993269  0
H  H10  1  0.35597414  0.35481876  0.70827373  1  0.029941  0  0.088085  0.083508  0  0.993058  0
H  H11  1  0.31186499  0.36232033  0.80147073  1  0.011805  0  0.084859  0.077799  0  0.988352  0
H  H12  1  0.30979128  0.51152068  0.78363006  1  0.015255  0  0.086509  0.081826  0  0.996556  0
H  H13  1  0.38890222  0.52479528  0.72049724  1  0.00347  0  0.089023  0.08639  0  0.983574  0
H  H14  1  0.60075758  0.64201909  0.82623701  1  0.013634  0  0.090406  0.09212  0  0.987663  0
H  H15  1  0.68126927  0.84977641  0.01616379  1  0.078272  0  0.112027  0.098598  0  1.016002  0
H  H16  1  0.94259569  0.67545887  0.51284206  1  0.001193  0  0.088409  0.087008  0  1.049345  0
H  H17  1  0.33537250  0.81846749  0.20690440  1  0.101877  0  0.114189  0.102371  0  0.997516  0
H  H18  1  0.78777640  0.52649136  0.35505821  1  0.022468  0  0.089694  0.083563  0  1.004953  0
H  H19  1  0.76771411  0.39190115  0.48145464  1  0.052496  0  0.095544  0.094941  0  1.022916  0
H  H20  1  0.44110842  0.86047554  0.41541985  1  0.029825  0  0.093114  0.096194  0  1.020334  0
H  H21  1  0.68821681  0.98631281  0.69251199  1  0.028285  0  0.09141  0.090358  0  1.011665  0
H  H22  1  0.42846900  0.82967769  0.54563245  1  0.035386  0  0.096796  0.09519  0  1.003947  0
H  H23  1  0.09912479  0.12365003  0.26849604  1  0.018076  0  0.090818  0.085227  0  1.003545  0
H  H24  1  0.08237977  0.21901125  0.10530959  1  0.04144  0  0.095453  0.094337  0  1.002859  0
H  H25  1  0.23720866  0.09643300  0.24789913  1  0.01875  0  0.091899  0.088631  0  1.002414  0
H  H26  1  0.09294831  0.67257131  0.84968391  1  0.068328  0  0.112655  0.100973  0  1.008478  0
H  H27  1  0.67846472  0.38482008  0.97516078  1  0.084132  0  0.112155  0.096726  0  1.009911  0
H  H28  1  0.23671379  0.22584585  0.11508433  1  0.038008  0  0.096196  0.094196  0  1.000256  0
H  H29  1  0.70291562  0.98729604  0.36228935  1  0.120397  0  0.111699  0.094364  0  1.034762  0
H  H30  1  0.30997592  0.19396822  0.78159013  1  0.103228  0  0.111266  0.097515  0  1.017475  0
H  H31  1  0.67595819  0.37411907  0.17939646  1  0.073545  0  0.114219  0.098993  0  1.013097  0
H  H32  1  0.33638046  0.02049502  0.18821998  1  0.090323  0  0.115225  0.099939  0  1.010167  0
H  H33  1  0.32149227  0.84438102  0.65998371  1  0.100371  0  0.11597  0.106152  0  0.996571  0
H  H34  1  0.09417499  0.83537539  0.57451735  1  0.046464  0  0.094101  0.129144  0  0.99484  0
H  H35  1  0.99940337  0.85416821  0.60773925  1  0.07151  0  0.099751  0.141907  0  0.984684  0
H  H36  1  0.14671532  0.95730974  0.68226378  1  -0.003339  0  0.091356  0.123866  0  1.009059  0
H  H37  1  0.90521372  0.25803557  0.04786614  1  0.087056  0  0.114546  0.103059  0  0.998076  0
H  H38  1  0.66135102  0.51541378  0.76489278  1  0.010769  0  0.084153  0.114611  0  1.005929  0
H  H39  1  0.57921777  0.38319625  0.74907177  1  0.012378  0  0.082439  0.111988  0  1.020854  0
H  H40  1  0.51063408  0.44782215  0.69381160  1  0.01708  0  0.085875  0.116025  0  1.011465  0
H  H41  1  0.88096472  0.59624762  0.74360935  1  0.048495  0  0.087677  0.117737  0  1.005605  0
H  H42  1  0.77328822  0.50655822  0.60566184  1  0.052188  0  0.094499  0.132681  0  0.998954  0
H  H43  1  0.89228190  0.49463279  0.67106371  1  0.032326  0  0.088983  0.117932  0  0.994733  0
H  H44  1  0.79499752  0.98500903  0.62145315  1  0.037917  0  0.088338  0.119993  0  1.004345  0
H  H45  1  0.73811422  0.91944987  0.48112349  1  0.039926  0  0.090102  0.123438  0  1.000176  0
H  H46  1  0.76678600  0.05135950  0.53948548  1  0.042098  0  0.0874  0.116943  0  1.000077  0
H  H47  1  0.90449617  0.06856181  0.22744660  1  0.077263  0  0.115609  0.102467  0  1.001609  0
H  H48  1  0.69114464  0.03889710  0.85660266  1  0.066784  0  0.114249  0.100632  0  1.013226  0
H  H49  1  0.31235209  0.66820652  0.84968745  1  0.061728  0  0.110622  0.095855  0  1.020424  0
H  H50  1  0.59765828  0.51608671  0.05032154  1  -0.003574  0  0.084223  0.075845  0  0.996048  0
H  H51  1  0.45110613  0.43287805  0.99939752  1  0.015027  0  0.085248  0.080257  0  0.993752  0
C  C52  1  0.34507528  0.15076119  0.03932440  1  0.411933  0  0.00633  -0.053073  0  3.953057  0
C  C53  1  0.11029106  0.82327468  0.72055334  1  0.430482  0  0.087161  0.204489  0  3.983538  0
C  C54  1  0.59967044  0.99896807  0.82221767  1  0.40383  0  0.008103  -0.047762  0  3.939303  0
C  C55  1  0.66685078  0.21230897  0.29614943  1  0.407013  0  0.007005  -0.052809  0  3.950217  0
C  C56  1  0.40338555  0.72764074  0.89763992  1  0.410034  0  -0.002831  -0.06602  0  3.991201  0
C  C57  1  0.50856449  0.92121867  0.71673489  1  0.056956  0  -0.039644  0.009328  0  4.117926  0
C  C58  1  0.49567526  0.71473250  0.91514254  1  -0.003124  0  -0.035622  -0.047394  0  3.995906  0
C  C59  1  0.04092375  0.72467793  0.71783523  1  0.030589  0  -0.042527  -0.116639  0  4.063035  0
C  C60  1  0.95481092  0.17377497  0.14740505  1  0.025273  0  -0.04408  0.004827  0  4.155104  0
C  C61  1  0.51192811  0.49045371  0.98653793  1  -0.015281  0  -0.162308  -0.185021  0  3.900438  0
C  C62  1  0.49781315  0.58701819  0.99091573  1  0.002854  0  -0.161631  -0.18416  0  3.875092  0
C  C63  1  0.69357335  0.31751787  0.31025142  1  0.026614  0  -0.04006  0.007337  0  4.117647  0
C  C64  1  0.59264635  0.50949806  0.86900235  1  0.020093  0  -0.084017  0.039067  0  3.789788  0
C  C65  1  0.37924281  0.40759214  0.78765571  1  -0.037696  0  -0.160662  -0.181536  0  3.870547  0
C  C66  1  0.49353375  0.43130464  0.87619109  1  0.060335  0  -0.011095  0.092162  0  3.806835  0
C  C67  1  0.42401297  0.86153178  0.22950376  1  0.350982  0  0.001701  -0.07112  0  3.995505  0
C  C68  1  0.49445489  0.61114658  0.89448237  1  0.053111  0  -0.010233  0.132047  0  3.827847  0
C  C69  1  0.59818038  0.61866683  0.89024237  1  -0.026616  0  -0.158707  -0.226258  0  3.834919  0
C  C70  1  0.38635789  0.51403485  0.78994152  1  -0.008635  0  -0.159771  -0.188601  0  3.867876  0
C  C71  1  0.89147498  0.61114869  0.52647013  1  0.056729  0  -0.11763  -0.189587  0  4.041111  0
C  C72  1  0.92945139  0.63057519  0.63170504  1  -0.08488  0  -0.017698  0.137341  0  3.986215  0
C  C73  1  0.80316407  0.51418413  0.42764774  1  0.040919  0  -0.11294  -0.093634  0  4.084524  0
C  C74  1  0.52279470  0.89749300  0.32821217  1  0.038273  0  -0.042094  0.021275  0  4.137721  0
C  C75  1  0.75243386  0.40979509  0.41215560  1  -0.150378  0  -0.098852  -0.126821  0  4.024474  0
C  C76  1  0.61590751  0.92598530  0.52164806  1  -0.027053  0  -0.026268  0.148854  0  4.01282  0
C  C77  1  0.52428535  0.89102607  0.42323056  1  -0.00738  0  -0.108979  -0.209093  0  4.005474  0
C  C78  1  0.60672530  0.93175840  0.61565944  1  -0.068714  0  -0.110117  -0.163349  0  4.031749  0
C  C79  1  0.58808232  0.32339121  0.92951320  1  0.374378  0  -0.00206  -0.071623  0  4.021796  0
C  C80  1  0.51137560  0.88735794  0.62019226  1  -0.006791  0  -0.099616  -0.12016  0  4.053473  0
C  C81  1  0.12340855  0.15465847  0.21673093  1  -0.029578  0  -0.111201  -0.103464  0  4.085651  0
C  C82  1  0.05954037  0.18729530  0.15736134  1  -0.041373  0  -0.104278  -0.131663  0  4.045972  0
C  C83  1  0.21247040  0.14388612  0.20958717  1  -0.009286  0  -0.113566  -0.112157  0  4.084056  0
C  C84  1  0.25756338  0.17527807  0.15091290  1  -0.05091  0  -0.097513  -0.117268  0  4.035704  0
C  C85  1  0.49355092  0.33069732  0.87353637  1  0.018816  0  -0.034841  -0.040352  0  4.026273  0
C  C86  1  0.61134769  0.94684872  0.30955274  1  0.345918  0  0.000237  -0.07026  0  3.988995  0
C  C87  1  0.40074939  0.22629015  0.83106384  1  0.331222  0  -0.006625  -0.081464  0  4.030596  0
C  C88  1  0.66976661  0.31265116  0.20780613  1  0.424249  0  0.008558  -0.048487  0  3.944006  0
C  C89  1  0.34332846  0.05721034  0.13454379  1  0.42394  0  0.008937  -0.045328  0  3.938802  0
C  C90  1  0.31823973  0.13555940  0.11726947  1  -0.005657  0  -0.03938  0.005972  0  4.123292  0
C  C91  1  0.08627486  0.86957423  0.64210862  1  -0.050445  0  -0.230459  -0.420413  0  4.002316  0
C  C92  1  0.58532346  0.46103475  0.76327126  1  -0.040977  0  -0.247074  -0.390729  0  3.958729  0
C  C93  1  0.86548607  0.55295147  0.66451637  1  -0.08597  0  -0.238509  -0.398944  0  3.983316  0
C  C94  1  0.73502324  0.97265583  0.54198183  1  -0.094247  0  -0.239134  -0.396991  0  3.978008  0
C  C95  1  0.41110093  0.89966658  0.72256298  1  0.374988  0  0.006734  -0.056376  0  3.950422  0
C  C96  1  0.59115786  0.82016014  0.98238911  1  0.375868  0  -0.001726  -0.065873  0  3.984958  0
C  C97  1  0.11099652  0.73107194  0.81753114  1  0.406694  0  -0.003064  -0.06655  0  4.041691  0
C  C98  1  0.88743343  0.20853295  0.08907025  1  0.385257  0  0.00134  -0.070888  0  4.003168  0
C  C99  1  0.88790072  0.11281151  0.18138009  1  0.38592  0  0.003985  -0.060366  0  3.985025  0
N  N100  1  0.37992538  0.08493987  0.01133336  1  -0.783387  0  -0.283541  -0.186697  0  3.626769  0
N  N101  1  0.45145358  0.88720723  0.15953769  1  -0.800466  0  -0.269495  -0.175708  0  3.544267  0
N  N102  1  0.55413171  0.22280190  0.92102937  1  -0.77387  0  -0.27705  -0.175249  0  3.563833  0
N  N103  1  0.56816483  0.94064690  0.20973989  1  -0.781688  0  -0.271951  -0.17327  0  3.549923  0
N  N104  1  0.43726603  0.16204686  0.85971567  1  -0.805093  0  -0.274804  -0.179797  0  3.550808  0
N  N105  1  0.63510699  0.21387132  0.14105923  1  -0.778245  0  -0.279548  -0.171985  0  3.642192  0
N  N106  1  0.37886682  0.02768480  0.07008476  1  -0.792343  0  -0.278505  -0.175477  0  3.635621  0
N  N107  1  0.44262727  0.96219031  0.82213934  1  -0.814648  0  -0.282684  -0.17977  0  3.625857  0
N  N108  1  0.55743996  0.88935267  0.00428569  1  -0.800442  0  -0.285208  -0.180802  0  3.6299  0
N  N109  1  0.21336108  0.82359102  0.87401263  1  -0.775397  0  -0.274944  -0.177241  0  3.574027  0
N  N110  1  0.78968992  0.17163975  0.08872559  1  -0.785425  0  -0.270267  -0.17602  0  3.545367  0
N  N111  1  0.79009607  0.11165357  0.14598634  1  -0.78869  0  -0.269143  -0.170629  0  3.554781  0
N  N112  1  0.21229060  0.88068891  0.81400444  1  -0.836767  0  -0.271442  -0.23019  0  3.502195  0
N  N113  1  0.55852170  0.02283507  0.88315910  1  -0.771062  0  -0.281511  -0.179788  0  3.641904  0
N  N114  1  0.44188112  0.83243206  0.95214644  1  -0.762533  0  -0.285599  -0.183525  0  3.630024  0
N  N115  1  0.63334757  0.15203754  0.19505882  1  -0.801353  0  -0.283186  -0.185054  0  3.631839  0
