# generated using pymatgen
data_TbH15C11O6
_symmetry_space_group_name_H-M   'P 1'
_cell_length_a   8.20999453
_cell_length_b   10.68708644
_cell_length_c   14.76091816
_cell_angle_alpha   90.00030499
_cell_angle_beta   90.00000045
_cell_angle_gamma   89.99997828
_symmetry_Int_Tables_number   1
_chemical_formula_structural   TbH15C11O6
_chemical_formula_sum   'Tb4 H60 C44 O24'
_cell_volume   1295.13655751
_cell_formula_units_Z   4
loop_
 _symmetry_equiv_pos_site_id
 _symmetry_equiv_pos_as_xyz
  1  'x, y, z'
loop_
 _atom_site_type_symbol
 _atom_site_label
 _atom_site_symmetry_multiplicity
 _atom_site_fract_x
 _atom_site_fract_y
 _atom_site_fract_z
 _atom_site_occupancy
 _atom_site_hle17_bader_spin_density
 _atom_site_hle17_ddec_charge
 _atom_site_hle17_ddec_spin_density
 _atom_site_hle17_ddec_sum_bond_order
 _atom_site_hle17_magmom
 _atom_site_hse06_10hf_bader_spin_density
 _atom_site_hse06_10hf_ddec_charge
 _atom_site_hse06_10hf_ddec_spin_density
 _atom_site_hse06_10hf_ddec_sum_bond_order
 _atom_site_hse06_10hf_magmom
 _atom_site_hse06_bader_spin_density
 _atom_site_hse06_ddec_charge
 _atom_site_hse06_ddec_spin_density
 _atom_site_hse06_ddec_sum_bond_order
 _atom_site_hse06_magmom
 _atom_site_pbe_bader_spin_density
 _atom_site_pbe_cm5_charge
 _atom_site_pbe_ddec_charge
 _atom_site_pbe_ddec_spin_density
 _atom_site_pbe_ddec_sum_bond_order
 _atom_site_pbe_magmom
Tb  Tb0  1  0.91939749  0.80197336  0.00215657  1  0  2.26672  0  1.727256  0  0  2.129189  0  2.199819  0  0  2.242192  0  2.037088  0  0  1.553823  2.090235  0  2.238357  0
Tb  Tb1  1  0.58060083  0.19802673  0.50215614  1  0  2.266779  0  1.727245  0  0  2.129238  0  2.199833  0  0  2.242255  0  2.03707  0  0  1.55386  2.090318  0  2.238319  0
Tb  Tb2  1  0.08059925  0.30196999  0.49784292  1  0  2.266789  0  1.727131  0  0  2.129246  0  2.199717  0  0  2.242273  0  2.036953  0  0  1.553883  2.090379  0  2.238122  0
Tb  Tb3  1  0.41939840  0.69802826  0.99784307  1  0  2.266743  0  1.72725  0  0  2.129208  0  2.199814  0  0  2.242214  0  2.037081  0  0  1.553851  2.090272  0  2.238325  0
H  H4  1  0.72287726  0.82879004  0.30513371  1  0  0.090559  0  0.926539  0  0  0.101164  0  0.98256  0  0  0.103353  0  0.981525  0  0  0.104208  0.09975  0  0.983017  0
H  H5  1  0.77712472  0.17121040  0.80513453  1  0  0.090531  0  0.926554  0  0  0.101172  0  0.982559  0  0  0.103364  0  0.981521  0  0  0.104199  0.099758  0  0.983018  0
H  H6  1  0.27711825  0.32879188  0.19486656  1  0  0.090546  0  0.926493  0  0  0.101146  0  0.982516  0  0  0.103335  0  0.981482  0  0  0.104198  0.099732  0  0.982975  0
H  H7  1  0.22287453  0.67121258  0.69486526  1  0  0.090573  0  0.926508  0  0  0.101195  0  0.982512  0  0  0.103382  0  0.98148  0  0  0.104209  0.099778  0  0.982969  0
H  H8  1  0.55832169  0.98682124  0.88934903  1  0  0.0333  0  0.900573  0  0  0.044243  0  0.963449  0  0  0.045156  0  0.958592  0  0  0.129074  0.043667  0  0.966551  0
H  H9  1  0.94166201  0.01315548  0.38935453  1  0  0.033387  0  0.900432  0  0  0.044286  0  0.963359  0  0  0.045206  0  0.958493  0  0  0.129098  0.0437  0  0.966484  0
H  H10  1  0.44167496  0.48682616  0.61065130  1  0  0.033249  0  0.900418  0  0  0.044226  0  0.963284  0  0  0.045144  0  0.958418  0  0  0.129061  0.043643  0  0.966402  0
H  H11  1  0.05832025  0.51318330  0.11065129  1  0  0.033313  0  0.900517  0  0  0.044291  0  0.963368  0  0  0.045206  0  0.95851  0  0  0.129083  0.043713  0  0.966473  0
H  H12  1  0.40772482  0.70253291  0.26955370  1  0  0.081562  0  0.940598  0  0  0.099414  0  0.997789  0  0  0.101519  0  0.996692  0  0  0.093666  0.097996  0  0.998386  0
H  H13  1  0.09228014  0.29746648  0.76955569  1  0  0.081551  0  0.940627  0  0  0.099418  0  0.9978  0  0  0.101523  0  0.996703  0  0  0.093691  0.098001  0  0.998396  0
H  H14  1  0.59227318  0.20253585  0.23044473  1  0  0.081585  0  0.940598  0  0  0.099438  0  0.997791  0  0  0.101543  0  0.996693  0  0  0.093697  0.098019  0  0.998388  0
H  H15  1  0.90772026  0.79746779  0.73044662  1  0  0.081558  0  0.940629  0  0  0.099427  0  0.997807  0  0  0.101532  0  0.99671  0  0  0.093676  0.098005  0  0.998406  0
H  H16  1  0.46281132  0.80397996  0.35879902  1  0  0.069339  0  0.947483  0  0  0.088022  0  1.008868  0  0  0.088957  0  1.009015  0  0  0.090854  0.087312  0  1.00879  0
H  H17  1  0.03718999  0.19602008  0.85879994  1  0  0.06933  0  0.947476  0  0  0.088013  0  1.008866  0  0  0.08895  0  1.009011  0  0  0.090852  0.087303  0  1.008791  0
H  H18  1  0.53718664  0.30398226  0.14120048  1  0  0.069293  0  0.947483  0  0  0.08799  0  1.008868  0  0  0.088926  0  1.009015  0  0  0.090852  0.087282  0  1.008787  0
H  H19  1  0.96281168  0.69602259  0.64120198  1  0  0.069341  0  0.947564  0  0  0.088028  0  1.00894  0  0  0.088964  0  1.009086  0  0  0.090863  0.087319  0  1.00886  0
H  H20  1  0.44764814  0.61690966  0.44773825  1  0  0.071861  0  0.95841  0  0  0.089599  0  1.02255  0  0  0.090091  0  1.023203  0  0  0.090831  0.089279  0  1.021912  0
H  H21  1  0.05235317  0.38309010  0.94773921  1  0  0.071804  0  0.958465  0  0  0.089561  0  1.022607  0  0  0.090053  0  1.02326  0  0  0.090819  0.08924  0  1.021969  0
H  H22  1  0.55235357  0.11691224  0.05226120  1  0  0.071857  0  0.958463  0  0  0.089597  0  1.022622  0  0  0.09009  0  1.023272  0  0  0.090821  0.089274  0  1.021987  0
H  H23  1  0.94764597  0.88308916  0.55226140  1  0  0.071834  0  0.95849  0  0  0.08958  0  1.022617  0  0  0.090071  0  1.023269  0  0  0.090821  0.089259  0  1.021977  0
H  H24  1  0.47817193  0.52057996  0.35280765  1  0  0.074651  0  0.940201  0  0  0.091825  0  0.999249  0  0  0.093149  0  0.998685  0  0  0.09229  0.090887  0  0.999503  0
H  H25  1  0.02183181  0.47942190  0.85281034  1  0  0.074601  0  0.940232  0  0  0.091817  0  0.999255  0  0  0.09315  0  0.998682  0  0  0.092285  0.090876  0  0.999511  0
H  H26  1  0.52182982  0.02058044  0.14718940  1  0  0.074568  0  0.94029  0  0  0.091771  0  0.999327  0  0  0.093098  0  0.998765  0  0  0.092271  0.090852  0  0.999561  0
H  H27  1  0.97816850  0.97942445  0.64718996  1  0  0.074622  0  0.940202  0  0  0.091799  0  0.999246  0  0  0.093138  0  0.998666  0  0  0.092271  0.090859  0  0.999503  0
H  H28  1  0.88116607  0.69246917  0.49237790  1  0  0.108657  0  0.964709  0  0  0.129695  0  1.026093  0  0  0.131039  0  1.026483  0  0  0.093699  0.128695  0  1.025765  0
H  H29  1  0.61883469  0.30753264  0.99237518  1  0  0.108636  0  0.964778  0  0  0.129655  0  1.026179  0  0  0.131013  0  1.026552  0  0  0.093677  0.128654  0  1.025851  0
H  H30  1  0.11883560  0.19247062  0.00762253  1  0  0.108661  0  0.964698  0  0  0.129709  0  1.026064  0  0  0.131046  0  1.026466  0  0  0.093702  0.128719  0  1.025723  0
H  H31  1  0.38116814  0.80753153  0.50762514  1  0  0.108682  0  0.964717  0  0  0.129701  0  1.026103  0  0  0.131062  0  1.026471  0  0  0.093718  0.1287  0  1.025776  0
H  H32  1  0.68575303  0.67529258  0.54200553  1  0  0.098721  0  0.949929  0  0  0.121964  0  1.010441  0  0  0.123041  0  1.010713  0  0  0.088653  0.121197  0  1.010155  0
H  H33  1  0.81424650  0.32470687  0.04200547  1  0  0.098732  0  0.949946  0  0  0.121951  0  1.010477  0  0  0.123028  0  1.01075  0  0  0.088644  0.121184  0  1.010192  0
H  H34  1  0.31424499  0.17529820  0.95799292  1  0  0.098688  0  0.95003  0  0  0.121915  0  1.010556  0  0  0.122993  0  1.010826  0  0  0.088656  0.121149  0  1.010271  0
H  H35  1  0.18575632  0.82470538  0.45799479  1  0  0.098736  0  0.950011  0  0  0.121948  0  1.010541  0  0  0.123023  0  1.010818  0  0  0.088645  0.121182  0  1.010254  0
H  H36  1  0.71738883  0.79196672  0.45837004  1  0  0.120702  0  0.967072  0  0  0.14033  0  1.030581  0  0  0.142581  0  1.029839  0  0  0.093599  0.138778  0  1.031049  0
H  H37  1  0.78261070  0.20803297  0.95836762  1  0  0.120674  0  0.967075  0  0  0.140281  0  1.03063  0  0  0.14253  0  1.029885  0  0  0.093593  0.138733  0  1.031091  0
H  H38  1  0.28260791  0.29196743  0.04163077  1  0  0.120709  0  0.967056  0  0  0.140334  0  1.030587  0  0  0.142585  0  1.029841  0  0  0.093608  0.138784  0  1.031053  0
H  H39  1  0.21739218  0.70803122  0.54163231  1  0  0.120724  0  0.967065  0  0  0.140323  0  1.030614  0  0  0.142573  0  1.029874  0  0  0.093604  0.138775  0  1.031075  0
H  H40  1  0.03830926  0.59627414  0.33994139  1  0  0.116229  0  0.949687  0  0  0.137152  0  1.008052  0  0  0.139536  0  1.007061  0  0  0.092655  0.135433  0  1.008792  0
H  H41  1  0.46169327  0.40372764  0.83994176  1  0  0.116177  0  0.949696  0  0  0.137117  0  1.008052  0  0  0.139512  0  1.00705  0  0  0.092653  0.1354  0  1.008789  0
H  H42  1  0.96169124  0.09626990  0.16005934  1  0  0.116208  0  0.949742  0  0  0.13713  0  1.008125  0  0  0.13952  0  1.007128  0  0  0.092652  0.135412  0  1.008863  0
H  H43  1  0.53830952  0.90372854  0.66005825  1  0  0.116226  0  0.949709  0  0  0.137148  0  1.008082  0  0  0.139527  0  1.007097  0  0  0.092639  0.135427  0  1.008824  0
H  H44  1  0.97816368  0.75431059  0.35742977  1  0  0.091152  0  0.970256  0  0  0.111816  0  1.037414  0  0  0.112809  0  1.037676  0  0  0.083287  0.111085  0  1.037203  0
H  H45  1  0.52183586  0.24569117  0.85742885  1  0  0.091167  0  0.970247  0  0  0.111821  0  1.037417  0  0  0.112817  0  1.037677  0  0  0.083305  0.11109  0  1.037208  0
H  H46  1  0.02183186  0.25430837  0.14257225  1  0  0.091121  0  0.970297  0  0  0.111795  0  1.037455  0  0  0.112791  0  1.037712  0  0  0.083276  0.111063  0  1.037246  0
H  H47  1  0.47816944  0.74569196  0.64256987  1  0  0.091124  0  0.970317  0  0  0.111792  0  1.037467  0  0  0.112787  0  1.037724  0  0  0.083278  0.111061  0  1.037256  0
H  H48  1  0.00271968  0.69761386  0.24580516  1  0  0.102845  0  0.968775  0  0  0.121607  0  1.035459  0  0  0.123343  0  1.035252  0  0  0.086897  0.120406  0  1.035552  0
H  H49  1  0.49728771  0.30238629  0.74580446  1  0  0.102857  0  0.968807  0  0  0.121622  0  1.035485  0  0  0.123358  0  1.035279  0  0  0.086895  0.120422  0  1.035577  0
H  H50  1  0.99728685  0.19760937  0.25419663  1  0  0.10279  0  0.968856  0  0  0.121606  0  1.035469  0  0  0.123341  0  1.035265  0  0  0.0869  0.120408  0  1.035559  0
H  H51  1  0.50271634  0.80238976  0.75419515  1  0  0.102875  0  0.968788  0  0  0.12163  0  1.035476  0  0  0.123365  0  1.03527  0  0  0.086912  0.120431  0  1.035567  0
H  H52  1  0.84323553  0.43968572  0.27200697  1  0  0.110801  0  0.950024  0  0  0.133182  0  1.009222  0  0  0.135064  0  1.008869  0  0  0.093783  0.131894  0  1.009309  0
H  H53  1  0.65676888  0.56031447  0.77200794  1  0  0.110814  0  0.949975  0  0  0.133186  0  1.009181  0  0  0.135069  0  1.008829  0  0  0.093783  0.131897  0  1.009268  0
H  H54  1  0.15676967  0.93968536  0.22799170  1  0  0.110803  0  0.949963  0  0  0.133177  0  1.009166  0  0  0.13506  0  1.008815  0  0  0.093788  0.131888  0  1.009253  0
H  H55  1  0.34323529  0.06031746  0.72799210  1  0  0.110806  0  0.949937  0  0  0.133189  0  1.009135  0  0  0.135074  0  1.008781  0  0  0.093796  0.1319  0  1.009224  0
H  H56  1  0.81053877  0.54093562  0.17866880  1  0  0.096148  0  0.96774  0  0  0.116177  0  1.034796  0  0  0.117617  0  1.034779  0  0  0.088496  0.11515  0  1.034768  0
H  H57  1  0.68946685  0.45906108  0.67867006  1  0  0.096188  0  0.967724  0  0  0.116233  0  1.034752  0  0  0.117673  0  1.034736  0  0  0.088533  0.115208  0  1.034722  0
H  H58  1  0.18946662  0.04093934  0.32132901  1  0  0.096162  0  0.967696  0  0  0.116205  0  1.034738  0  0  0.117647  0  1.034722  0  0  0.08854  0.115179  0  1.034711  0
H  H59  1  0.31053834  0.95906323  0.82132949  1  0  0.096128  0  0.967773  0  0  0.116131  0  1.034859  0  0  0.117572  0  1.034843  0  0  0.088484  0.115108  0  1.034828  0
H  H60  1  0.64191383  0.48386232  0.24035929  1  0  0.111088  0  0.949866  0  0  0.134561  0  1.006029  0  0  0.136105  0  1.006119  0  0  0.092876  0.133448  0  1.005869  0
H  H61  1  0.85809180  0.51613484  0.74036145  1  0  0.111096  0  0.94991  0  0  0.134552  0  1.006086  0  0  0.136097  0  1.006177  0  0  0.092888  0.133442  0  1.005922  0
H  H62  1  0.35809135  0.98386213  0.25963819  1  0  0.111067  0  0.949943  0  0  0.13452  0  1.006125  0  0  0.136065  0  1.006217  0  0  0.092875  0.133411  0  1.005963  0
H  H63  1  0.14191239  0.01613906  0.75963909  1  0  0.111056  0  0.949878  0  0  0.134516  0  1.006053  0  0  0.136061  0  1.006145  0  0  0.092874  0.133407  0  1.005891  0
C  C64  1  0.66988698  0.75438764  0.17679399  1  0  0.772033  0  3.779092  0  0  0.725629  0  4.075444  0  0  0.76119  0  4.068105  0  0  0.246871  0.701506  0  4.08271  0
C  C65  1  0.83011499  0.24561093  0.67679374  1  0  0.771958  0  3.779197  0  0  0.725637  0  4.075452  0  0  0.761183  0  4.068137  0  0  0.246894  0.70152  0  4.082712  0
C  C66  1  0.33011100  0.25438852  0.32320735  1  0  0.771947  0  3.779193  0  0  0.725588  0  4.075471  0  0  0.761134  0  4.068156  0  0  0.246875  0.701497  0  4.082695  0
C  C67  1  0.16988909  0.74561500  0.82320701  1  0  0.771904  0  3.779305  0  0  0.725583  0  4.075549  0  0  0.76113  0  4.06823  0  0  0.246881  0.701475  0  4.082793  0
C  C68  1  0.66904289  0.74204320  0.27860199  1  0  -0.191465  0  3.552895  0  0  -0.187678  0  3.77104  0  0  -0.194603  0  3.782992  0  0  -0.0835  -0.182638  0  3.761754  0
C  C69  1  0.83096030  0.25795517  0.77860315  1  0  -0.191312  0  3.552826  0  0  -0.187674  0  3.771037  0  0  -0.194596  0  3.782995  0  0  -0.083487  -0.182634  0  3.761748  0
C  C70  1  0.33095753  0.24204335  0.22139794  1  0  -0.191436  0  3.552824  0  0  -0.187668  0  3.770927  0  0  -0.194588  0  3.782879  0  0  -0.083524  -0.182636  0  3.76163  0
C  C71  1  0.16904134  0.75795943  0.72139833  1  0  -0.191425  0  3.552789  0  0  -0.187669  0  3.770874  0  0  -0.194589  0  3.782827  0  0  -0.083545  -0.182629  0  3.761581  0
C  C72  1  0.66088693  0.93415872  0.91923528  1  0  0.614332  0  3.877397  0  0  0.547133  0  4.183495  0  0  0.580166  0  4.181441  0  0  0.160108  0.524229  0  4.190457  0
C  C73  1  0.83909677  0.06582571  0.41923760  1  0  0.614235  0  3.877391  0  0  0.547028  0  4.183536  0  0  0.580059  0  4.181486  0  0  0.160047  0.524125  0  4.190499  0
C  C74  1  0.33909634  0.43416063  0.58076553  1  0  0.614428  0  3.87759  0  0  0.547175  0  4.183739  0  0  0.580206  0  4.181696  0  0  0.160099  0.524272  0  4.190705  0
C  C75  1  0.16088913  0.56584673  0.08076504  1  0  0.614144  0  3.877616  0  0  0.546893  0  4.183766  0  0  0.579925  0  4.181723  0  0  0.159981  0.52399  0  4.190723  0
C  C76  1  0.50016824  0.71978662  0.32163586  1  0  -0.108137  0  3.635705  0  0  -0.15734  0  3.895319  0  0  -0.157172  0  3.906657  0  0  -0.167142  -0.157127  0  3.886913  0
C  C77  1  0.99983373  0.28021300  0.82163643  1  0  -0.108189  0  3.635748  0  0  -0.15739  0  3.895433  0  0  -0.157224  0  3.906776  0  0  -0.167178  -0.157175  0  3.887018  0
C  C78  1  0.49982976  0.21978920  0.17836332  1  0  -0.108143  0  3.635674  0  0  -0.157375  0  3.895349  0  0  -0.157207  0  3.906685  0  0  -0.167191  -0.157163  0  3.886943  0
C  C79  1  0.00016668  0.78021420  0.67836446  1  0  -0.108231  0  3.635825  0  0  -0.157464  0  3.895461  0  0  -0.157297  0  3.906802  0  0  -0.167197  -0.157247  0  3.887049  0
C  C80  1  0.51934733  0.60723700  0.38552733  1  0  -0.141095  0  3.646984  0  0  -0.189128  0  3.904576  0  0  -0.189077  0  3.916866  0  0  -0.166352  -0.188798  0  3.895513  0
C  C81  1  0.98065586  0.39276403  0.88552833  1  0  -0.140974  0  3.646946  0  0  -0.189089  0  3.904619  0  0  -0.189041  0  3.916908  0  0  -0.166357  -0.188753  0  3.89555  0
C  C82  1  0.48065437  0.10723725  0.11447141  1  0  -0.140966  0  3.647044  0  0  -0.189081  0  3.904688  0  0  -0.189035  0  3.916983  0  0  -0.166317  -0.188761  0  3.895617  0
C  C83  1  0.01934328  0.89276475  0.61447231  1  0  -0.141007  0  3.646909  0  0  -0.189037  0  3.904476  0  0  -0.188994  0  3.916767  0  0  -0.166299  -0.188702  0  3.895406  0
C  C84  1  0.75612584  0.47452748  0.44399905  1  0  0.740515  0  3.763374  0  0  0.699814  0  4.046638  0  0  0.734945  0  4.04005  0  0  0.250844  0.676096  0  4.053167  0
C  C85  1  0.74387978  0.52547397  0.94399921  1  0  0.740397  0  3.763601  0  0  0.699897  0  4.046555  0  0  0.735028  0  4.039965  0  0  0.250887  0.676177  0  4.053081  0
C  C86  1  0.24387568  0.97452770  0.05600044  1  0  0.740552  0  3.76356  0  0  0.699845  0  4.046772  0  0  0.734979  0  4.040178  0  0  0.250854  0.676125  0  4.053299  0
C  C87  1  0.25612075  0.02547293  0.55600069  1  0  0.740349  0  3.76362  0  0  0.699799  0  4.04666  0  0  0.734929  0  4.040072  0  0  0.250833  0.676081  0  4.053189  0
C  C88  1  0.70309654  0.60002179  0.40524763  1  0  -0.026498  0  3.527794  0  0  0.001945  0  3.747924  0  0  -0.003764  0  3.764601  0  0  -0.010693  0.006029  0  3.735594  0
C  C89  1  0.79690786  0.39997844  0.90525070  1  0  -0.026449  0  3.527902  0  0  0.001933  0  3.747939  0  0  -0.00378  0  3.764619  0  0  -0.010686  0.006014  0  3.735612  0
C  C90  1  0.29690882  0.10002008  0.09474904  1  0  -0.026545  0  3.52793  0  0  0.002007  0  3.747823  0  0  -0.003704  0  3.764495  0  0  -0.010703  0.006087  0  3.735502  0
C  C91  1  0.20309248  0.89997896  0.59474998  1  0  -0.026372  0  3.527814  0  0  0.002016  0  3.74787  0  0  -0.003696  0  3.764552  0  0  -0.010674  0.006097  0  3.735543  0
C  C92  1  0.75018181  0.69635327  0.47850275  1  0  -0.322857  0  3.645678  0  0  -0.405869  0  3.882231  0  0  -0.408422  0  3.892376  0  0  -0.240478  -0.403634  0  3.87474  0
C  C93  1  0.74981894  0.30364750  0.97850205  1  0  -0.322817  0  3.64581  0  0  -0.405788  0  3.882393  0  0  -0.408346  0  3.892526  0  0  -0.240455  -0.403556  0  3.874903  0
C  C94  1  0.24981741  0.19635665  0.02149633  1  0  -0.322813  0  3.64571  0  0  -0.405845  0  3.882262  0  0  -0.408391  0  3.892406  0  0  -0.240487  -0.40362  0  3.874763  0
C  C95  1  0.25018267  0.80364654  0.52149757  1  0  -0.322957  0  3.645845  0  0  -0.405909  0  3.882448  0  0  -0.408471  0  3.892583  0  0  -0.240508  -0.403676  0  3.874957  0
C  C96  1  0.78249854  0.63108603  0.31057405  1  0  0.181667  0  3.460222  0  0  0.209917  0  3.684835  0  0  0.210927  0  3.704868  0  0  0.001113  0.209389  0  3.670615  0
C  C97  1  0.71750222  0.36891351  0.81057495  1  0  0.181538  0  3.460329  0  0  0.209978  0  3.684703  0  0  0.210986  0  3.704739  0  0  0.0011  0.209448  0  3.670486  0
C  C98  1  0.21749950  0.13108597  0.18942411  1  0  0.18155  0  3.460343  0  0  0.209895  0  3.684767  0  0  0.210905  0  3.704801  0  0  0.001116  0.209368  0  3.670547  0
C  C99  1  0.28250058  0.86891470  0.68942424  1  0  0.181669  0  3.460175  0  0  0.209994  0  3.68471  0  0  0.211004  0  3.704741  0  0  0.001154  0.209466  0  3.670492  0
C  C100  1  0.96099073  0.67196432  0.31400413  1  0  -0.342365  0  3.676766  0  0  -0.426245  0  3.9153  0  0  -0.429216  0  3.924985  0  0  -0.247321  -0.423766  0  3.907969  0
C  C101  1  0.53901246  0.32803524  0.81400420  1  0  -0.34231  0  3.676832  0  0  -0.426241  0  3.915346  0  0  -0.429224  0  3.925022  0  0  -0.247337  -0.423764  0  3.908015  0
C  C102  1  0.03900973  0.17196148  0.18599622  1  0  -0.342246  0  3.676905  0  0  -0.426208  0  3.915408  0  0  -0.429185  0  3.925088  0  0  -0.247313  -0.423732  0  3.908076  0
C  C103  1  0.46099036  0.82803729  0.68599552  1  0  -0.34238  0  3.676898  0  0  -0.426282  0  3.915415  0  0  -0.429247  0  3.925099  0  0  -0.247316  -0.423803  0  3.908084  0
C  C104  1  0.76770562  0.51727929  0.24714620  1  0  -0.347604  0  3.654271  0  0  -0.430848  0  3.89244  0  0  -0.434123  0  3.902164  0  0  -0.244167  -0.428129  0  3.884991  0
C  C105  1  0.73229879  0.48271885  0.74714823  1  0  -0.347622  0  3.654317  0  0  -0.430909  0  3.892453  0  0  -0.434183  0  3.902171  0  0  -0.24421  -0.428192  0  3.885006  0
C  C106  1  0.23229979  0.01728063  0.25285016  1  0  -0.347535  0  3.654283  0  0  -0.430813  0  3.892451  0  0  -0.43408  0  3.902156  0  0  -0.244216  -0.428097  0  3.885004  0
C  C107  1  0.26770396  0.98272238  0.75285141  1  0  -0.347547  0  3.654181  0  0  -0.430791  0  3.892356  0  0  -0.434064  0  3.902071  0  0  -0.244187  -0.428078  0  3.884911  0
O  O108  1  0.79525855  0.80326516  0.13941768  1  0  -0.772058  0  1.992145  0  0  -0.725363  0  2.254546  0  0  -0.761585  0  2.237547  0  0  -0.424379  -0.707337  0  2.263605  0
O  O109  1  0.70473976  0.19673406  0.63941792  1  0  -0.772085  0  1.992162  0  0  -0.725417  0  2.254532  0  0  -0.761636  0  2.237536  0  0  -0.424407  -0.707398  0  2.263587  0
O  O110  1  0.20474184  0.30326355  0.36058317  1  0  -0.772036  0  1.992276  0  0  -0.72536  0  2.254668  0  0  -0.761584  0  2.237674  0  0  -0.424373  -0.707361  0  2.26371  0
O  O111  1  0.29525947  0.69673744  0.86058061  1  0  -0.771997  0  1.992251  0  0  -0.725336  0  2.254613  0  0  -0.761555  0  2.237622  0  0  -0.424352  -0.70732  0  2.263664  0
O  O112  1  0.64040218  0.81694910  0.93710589  1  0  -0.806363  0  2.151819  0  0  -0.74885  0  2.423978  0  0  -0.791338  0  2.410855  0  0  -0.441751  -0.730093  0  2.43218  0
O  O113  1  0.85959371  0.18303546  0.43710664  1  0  -0.806301  0  2.151535  0  0  -0.748769  0  2.423725  0  0  -0.791261  0  2.410594  0  0  -0.441684  -0.730026  0  2.431928  0
O  O114  1  0.35960065  0.31694995  0.56289446  1  0  -0.806469  0  2.151706  0  0  -0.748938  0  2.423892  0  0  -0.791427  0  2.41076  0  0  -0.441782  -0.730192  0  2.432094  0
O  O115  1  0.14040309  0.68305354  0.06289307  1  0  -0.806275  0  2.151849  0  0  -0.74874  0  2.424004  0  0  -0.791229  0  2.410894  0  0  -0.441698  -0.729981  0  2.432201  0
O  O116  1  0.79445217  0.98748386  0.93497424  1  0  -0.613507  0  1.971372  0  0  -0.56611  0  2.208026  0  0  -0.59647  0  2.197796  0  0  -0.349831  -0.549808  0  2.21411  0
O  O117  1  0.70553275  0.01250724  0.43497703  1  0  -0.613564  0  1.971676  0  0  -0.566142  0  2.208326  0  0  -0.596498  0  2.198088  0  0  -0.349878  -0.549839  0  2.214407  0
O  O118  1  0.20555057  0.48748102  0.56502338  1  0  -0.613469  0  1.971812  0  0  -0.566085  0  2.20854  0  0  -0.596437  0  2.198295  0  0  -0.349804  -0.549795  0  2.214628  0
O  O119  1  0.29444952  0.51252155  0.06502744  1  0  -0.613423  0  1.971567  0  0  -0.566029  0  2.208274  0  0  -0.59638  0  2.198031  0  0  -0.349796  -0.549734  0  2.214372  0
O  O120  1  0.90794568  0.45091767  0.44746017  1  0  -0.741145  0  2.041899  0  0  -0.692063  0  2.299304  0  0  -0.728164  0  2.28444  0  0  -0.415474  -0.673794  0  2.307425  0
O  O121  1  0.59205873  0.54908288  0.94746110  1  0  -0.741113  0  2.041905  0  0  -0.692098  0  2.299207  0  0  -0.728195  0  2.284346  0  0  -0.415487  -0.673817  0  2.307329  0
O  O122  1  0.09205220  0.95091978  0.05253990  1  0  -0.74119  0  2.04188  0  0  -0.692116  0  2.299268  0  0  -0.728216  0  2.284412  0  0  -0.41548  -0.673832  0  2.307392  0
O  O123  1  0.40794667  0.04908176  0.55254093  1  0  -0.741127  0  2.041881  0  0  -0.692077  0  2.299166  0  0  -0.728191  0  2.284335  0  0  -0.415514  -0.673798  0  2.307286  0
O  O124  1  0.54973466  0.71314893  0.13132722  1  0  -0.770693  0  2.054779  0  0  -0.722085  0  2.321559  0  0  -0.759493  0  2.30613  0  0  -0.421217  -0.703375  0  2.329713  0
O  O125  1  0.95026366  0.28685210  0.63132782  1  0  -0.770648  0  2.054903  0  0  -0.722051  0  2.321633  0  0  -0.759458  0  2.306207  0  0  -0.4212  -0.70336  0  2.329792  0
O  O126  1  0.45026456  0.21314544  0.36867057  1  0  -0.770649  0  2.054856  0  0  -0.722051  0  2.321596  0  0  -0.759452  0  2.306169  0  0  -0.421201  -0.703355  0  2.329739  0
O  O127  1  0.04973431  0.78685280  0.86867310  1  0  -0.770633  0  2.054906  0  0  -0.72205  0  2.321629  0  0  -0.759451  0  2.306205  0  0  -0.421214  -0.703337  0  2.329767  0
O  O128  1  0.64761178  0.40184270  0.47629026  1  0  -0.769105  0  2.06843  0  0  -0.722803  0  2.337068  0  0  -0.759379  0  2.324095  0  0  -0.415344  -0.703985  0  2.344254  0
O  O129  1  0.85239141  0.59815338  0.97629476  1  0  -0.769048  0  2.06855  0  0  -0.72283  0  2.337112  0  0  -0.759404  0  2.324142  0  0  -0.415325  -0.704007  0  2.3443  0
O  O130  1  0.35238491  0.90184546  0.02370827  1  0  -0.76909  0  2.06859  0  0  -0.722794  0  2.337215  0  0  -0.759368  0  2.324243  0  0  -0.415322  -0.703978  0  2.344406  0
O  O131  1  0.14761274  0.09815400  0.52370542  1  0  -0.769027  0  2.068599  0  0  -0.722783  0  2.337184  0  0  -0.759361  0  2.324216  0  0  -0.415273  -0.703975  0  2.34437  0
