# generated using pymatgen
data_Zn2H20C31(NO4)2
_symmetry_space_group_name_H-M   'P 1'
_cell_length_a   9.85416544
_cell_length_b   10.89201146
_cell_length_c   11.03603231
_cell_angle_alpha   91.63628556
_cell_angle_beta   90.24868807
_cell_angle_gamma   89.03379113
_symmetry_Int_Tables_number   1
_chemical_formula_structural   Zn2H20C31(NO4)2
_chemical_formula_sum   'Zn2 H20 C31 N2 O8'
_cell_volume   1183.85573508
_cell_formula_units_Z   1
loop_
 _symmetry_equiv_pos_site_id
 _symmetry_equiv_pos_as_xyz
  1  'x, y, z'
loop_
 _atom_site_type_symbol
 _atom_site_label
 _atom_site_symmetry_multiplicity
 _atom_site_fract_x
 _atom_site_fract_y
 _atom_site_fract_z
 _atom_site_occupancy
 _atom_site_pbe_bader_charge
 _atom_site_pbe_bader_spin_density
 _atom_site_pbe_cm5_charge
 _atom_site_pbe_ddec_charge
 _atom_site_pbe_ddec_spin_density
 _atom_site_pbe_ddec_sum_bond_order
 _atom_site_pbe_magmom
Zn  Zn0  1  0.64613118  0.49979119  0.50018567  1  1.286257  0  0.665653  0.826512  0  2.397672  0
Zn  Zn1  1  0.35547729  0.49783451  0.49991373  1  1.277555  0  0.66516  0.826026  0  2.391534  0
H  H2  1  0.38990011  0.08778571  0.67721635  1  0.085381  0  0.096529  0.085069  0  1.006045  0
H  H3  1  0.55809757  0.06922049  0.09821951  1  0.026549  0  0.094425  0.089217  0  1.014679  0
H  H4  1  0.53208857  0.26329858  0.21827995  1  0.029136  0  0.100108  0.106554  0  1.014029  0
H  H5  1  0.47824309  0.68758960  0.12020931  1  0.061151  0  0.100434  0.106052  0  0.999196  0
H  H6  1  0.13076977  0.37206712  0.37652610  1  0.116245  0  0.139575  0.118741  0  0.957661  0
H  H7  1  0.25249325  0.66784727  0.66538795  1  0.134355  0  0.111143  0.126949  0  1.0576  0
H  H8  1  0.12451390  0.81169927  0.80291386  1  0.060011  0  0.112134  0.107416  0  0.977787  0
H  H9  1  0.87144074  0.81358848  0.80225669  1  0.076593  0  0.110913  0.105168  0  0.980306  0
H  H10  1  0.74561643  0.67161990  0.66420281  1  0.117996  0  0.111322  0.127498  0  1.053735  0
H  H11  1  0.87307083  0.37374603  0.37586994  1  0.146658  0  0.13926  0.118389  0  0.9586  0
H  H12  1  0.61919095  0.92380602  0.67424176  1  0.035607  0  0.090499  0.072642  0  1.016657  0
H  H13  1  0.73652881  0.06520755  0.49004553  1  0.086492  0  0.09479  0.08299  0  0.997503  0
H  H14  1  0.60878143  0.90931069  0.31332561  1  0.061383  0  0.095538  0.081312  0  0.997675  0
H  H15  1  0.37955464  0.07372546  0.31580074  1  0.068828  0  0.095174  0.082042  0  1.002617  0
H  H16  1  0.26205282  0.93195295  0.50065560  1  0.049995  0  0.094741  0.084414  0  0.997895  0
H  H17  1  0.56057060  0.07211300  0.87154166  1  0.047762  0  0.093564  0.086018  0  1.024263  0
H  H18  1  0.47736385  0.80372540  0.94368736  1  0.03755  0  0.090547  0.123269  0  1.004556  0
H  H19  1  0.56935255  0.73977932  0.81799673  1  0.053464  0  0.091058  0.126617  0  1.010808  0
H  H20  1  0.39063953  0.73229555  0.81969960  1  0.026718  0  0.09294  0.132701  0  1.008026  0
H  H21  1  0.53717277  0.26822600  0.76642035  1  0.061892  0  0.101281  0.108994  0  1.013251  0
C  C22  1  0.50399224  0.49633394  0.73752697  1  1.592072  0  0.219953  0.615459  0  4.181158  0
C  C23  1  0.43240741  0.03878346  0.39548740  1  -0.042119  0  -0.07617  -0.067291  0  3.633968  0
C  C24  1  0.36703284  0.96287092  0.49806936  1  -0.01189  0  -0.081706  -0.070366  0  3.647773  0
C  C25  1  0.49353982  0.87463322  0.49632615  1  -0.021448  0  -0.009904  -0.025139  0  3.654489  0
C  C26  1  0.53465055  0.26747166  0.86517883  1  -0.008757  0  -0.092415  -0.129206  0  3.97304  0
C  C27  1  0.54828482  0.15797075  0.92410021  1  -0.103789  0  -0.10273  -0.096558  0  4.068169  0
C  C28  1  0.54687530  0.15630892  0.05234830  1  0.026201  0  -0.103998  -0.101901  0  4.071697  0
C  C29  1  0.53211397  0.26445039  0.11944472  1  0.009022  0  -0.093514  -0.12965  0  3.985017  0
C  C30  1  0.51778605  0.37885360  0.06151568  1  -0.033331  0  -0.005502  0.050778  0  3.973943  0
C  C31  1  0.51876091  0.38061900  0.93162758  1  -0.049482  0  -0.002083  0.066271  0  3.977034  0
C  C32  1  0.50476142  0.49517016  0.87351731  1  -0.027212  0  -0.015229  -0.135315  0  3.910713  0
C  C33  1  0.49548973  0.73844183  0.49782535  1  1.591241  0  0.21385  0.591166  0  4.187733  0
C  C34  1  0.49184612  0.60524408  0.93948751  1  0.032112  0  -0.009981  0.146655  0  3.984214  0
C  C35  1  0.48963474  0.60156472  0.06754407  1  -0.081333  0  -0.094382  -0.176242  0  3.982604  0
C  C36  1  0.50200019  0.49234396  0.12744177  1  0.062211  0  -0.011849  -0.052849  0  3.969173  0
C  C37  1  0.14243088  0.66930717  0.66632603  1  -0.013788  0  -0.077659  -0.144616  0  3.937293  0
C  C38  1  0.07024937  0.74881896  0.74198178  1  -0.030493  0  -0.071449  -0.054312  0  3.989106  0
C  C39  1  0.92665802  0.74992615  0.74151781  1  0.014528  0  -0.072239  -0.055183  0  3.989268  0
C  C40  1  0.85568983  0.67156740  0.66542036  1  0.011166  0  -0.077113  -0.141055  0  3.929074  0
C  C41  1  0.92681189  0.58874282  0.58638422  1  0.514956  0  0.129607  0.176001  0  3.91841  0
C  C42  1  0.07276858  0.58771052  0.58675682  1  0.371564  0  0.129176  0.17561  0  3.922449  0
C  C43  1  0.07298981  0.43414915  0.43690127  1  0.608225  0  0.079596  0.066718  0  3.88255  0
C  C44  1  0.50086813  0.49393236  0.26359344  1  1.552975  0  0.218357  0.610653  0  4.173625  0
C  C45  1  0.92970959  0.43501561  0.43662638  1  0.490271  0  0.079751  0.065253  0  3.884334  0
C  C46  1  0.50378172  0.25954050  0.49389368  1  1.504368  0  0.210943  0.588823  0  4.19342  0
C  C47  1  0.56603743  0.95887075  0.59465381  1  -0.019304  0  -0.07675  -0.06723  0  3.637953  0
C  C48  1  0.43817506  0.04640314  0.59642530  1  -0.066458  0  -0.076224  -0.068376  0  3.626295  0
C  C49  1  0.50496311  0.12304242  0.49361729  1  0.058887  0  -0.010423  -0.031669  0  3.654885  0
C  C50  1  0.63145163  0.03464740  0.49218795  1  -0.065523  0  -0.081585  -0.06842  0  3.650318  0
C  C51  1  0.56026011  0.95109159  0.39387479  1  -0.027214  0  -0.076026  -0.066569  0  3.633294  0
C  C52  1  0.48167642  0.72666357  0.87742459  1  -0.071531  0  -0.236613  -0.402922  0  3.960493  0
N  N53  1  0.14283799  0.50842667  0.51015523  1  -1.19155  0  -0.28316  -0.185542  0  3.439251  0
N  N54  1  0.85838492  0.51008687  0.50956342  1  -1.188927  0  -0.282975  -0.184165  0  3.43932  0
O  O55  1  0.61855703  0.50069811  0.68556120  1  -1.170361  0  -0.311224  -0.550363  0  2.34135  0
O  O56  1  0.38873279  0.49390985  0.68558266  1  -1.168913  0  -0.311519  -0.549999  0  2.325696  0
O  O57  1  0.61227027  0.68629493  0.49655179  1  -1.169508  0  -0.319496  -0.553554  0  2.347321  0
O  O58  1  0.38197053  0.68458036  0.50136628  1  -1.175913  0  -0.315332  -0.549793  0  2.362681  0
O  O59  1  0.61641790  0.49144492  0.31555473  1  -1.164431  0  -0.320579  -0.555128  0  2.303055  0
O  O60  1  0.38524920  0.49799413  0.31436482  1  -1.149279  0  -0.31962  -0.551759  0  2.28922  0
O  O61  1  0.61807978  0.31276199  0.49827142  1  -1.166576  0  -0.322051  -0.556718  0  2.312366  0
O  O62  1  0.38678063  0.31168505  0.49088531  1  -1.168246  0  -0.326521  -0.556085  0  2.305876  0
