# generated using pymatgen
data_H16RhC22N(O3F)2
_symmetry_space_group_name_H-M   'P 1'
_cell_length_a   9.48931668
_cell_length_b   10.28617219
_cell_length_c   12.33971675
_cell_angle_alpha   77.01355296
_cell_angle_beta   82.43110353
_cell_angle_gamma   82.11272526
_symmetry_Int_Tables_number   1
_chemical_formula_structural   H16RhC22N(O3F)2
_chemical_formula_sum   'H32 Rh2 C44 N2 O12 F4'
_cell_volume   1156.18784639
_cell_formula_units_Z   2
loop_
 _symmetry_equiv_pos_site_id
 _symmetry_equiv_pos_as_xyz
  1  'x, y, z'
loop_
 _atom_site_type_symbol
 _atom_site_label
 _atom_site_symmetry_multiplicity
 _atom_site_fract_x
 _atom_site_fract_y
 _atom_site_fract_z
 _atom_site_occupancy
 _atom_site_pbe_bader_charge
 _atom_site_pbe_bader_spin_density
 _atom_site_pbe_cm5_charge
 _atom_site_pbe_ddec_charge
 _atom_site_pbe_ddec_spin_density
 _atom_site_pbe_ddec_sum_bond_order
 _atom_site_pbe_magmom
H  H0  1  0.15400649  0.85283129  0.62110394  1  0.092681  0  0.105499  0.119159  0  1.003107  0
H  H1  1  0.84597908  0.14711895  0.37891294  1  0.092995  0  0.10545  0.119129  0  1.003207  0
H  H2  1  0.25588688  0.78309370  0.51000415  1  0.075491  0  0.097875  0.100995  0  0.993613  0
H  H3  1  0.74410604  0.21685774  0.49002063  1  0.075614  0  0.097753  0.100937  0  0.993504  0
H  H4  1  0.27672322  0.94966940  0.52346961  1  0.072482  0  0.089308  0.086271  0  1.045484  0
H  H5  1  0.72324778  0.05028673  0.47654276  1  0.072415  0  0.089356  0.086301  0  1.045773  0
H  H6  1  0.47360235  0.86182554  0.42927363  1  0.115549  0  0.106179  0.138135  0  1.041994  0
H  H7  1  0.52637558  0.13816076  0.57073280  1  0.115476  0  0.106237  0.13835  0  1.041884  0
H  H8  1  0.90702198  0.71922265  0.49866237  1  0.110669  0  0.109559  0.134055  0  0.998022  0
H  H9  1  0.09296527  0.28079187  0.50134150  1  0.110483  0  0.10957  0.134068  0  0.997972  0
H  H10  1  0.82086631  0.64339181  0.70194265  1  0.110261  0  0.113647  0.122722  0  0.976663  0
H  H11  1  0.17912687  0.35660849  0.29805290  1  0.110282  0  0.113611  0.122723  0  0.97659  0
H  H12  1  0.67320249  0.04473599  0.08281868  1  0.075619  0  0.106875  0.115795  0  0.999135  0
H  H13  1  0.32681683  0.95525024  0.91717126  1  0.074887  0  0.106849  0.115788  0  0.999261  0
H  H14  1  0.59334912  0.04687509  0.22194790  1  0.085895  0  0.09541  0.096473  0  1.026724  0
H  H15  1  0.40666380  0.95311103  0.77803787  1  0.085673  0  0.095383  0.096443  0  1.026572  0
H  H16  1  0.49788966  0.13127743  0.10385269  1  0.076918  0  0.102327  0.112187  0  1.008184  0
H  H17  1  0.50212901  0.86871370  0.89612985  1  0.076776  0  0.10236  0.112209  0  1.008121  0
H  H18  1  0.35152585  0.07325374  0.26848910  1  0.103703  0  0.106136  0.134767  0  1.057496  0
H  H19  1  0.64848265  0.92675933  0.73148366  1  0.103905  0  0.106096  0.134661  0  1.057455  0
H  H20  1  0.99664859  0.84005026  0.32332397  1  0.088222  0  0.102582  0.125351  0  1.037832  0
H  H21  1  0.00336366  0.15996832  0.67667404  1  0.088536  0  0.102562  0.125252  0  1.037829  0
H  H22  1  0.13547519  0.68781672  0.20383170  1  0.112737  0  0.113541  0.122811  0  0.978681  0
H  H23  1  0.86451890  0.31218598  0.79618516  1  0.112662  0  0.113607  0.122838  0  0.978554  0
H  H24  1  0.22885710  0.72724655  0.85089259  1  0.129909  0  0.108024  0.123949  0  1.051268  0
H  H25  1  0.77117173  0.27279339  0.14911076  1  0.129567  0  0.108084  0.12391  0  1.051339  0
H  H26  1  0.08582665  0.94864654  0.85100028  1  0.057313  0  0.097802  0.094253  0  1.014878  0
H  H27  1  0.91420261  0.05139211  0.14904299  1  0.057517  0  0.097807  0.094347  0  1.014742  0
H  H28  1  0.84179556  0.96149601  0.95287322  1  0.044345  0  0.094836  0.088204  0  1.035144  0
H  H29  1  0.15821457  0.03852260  0.04712663  1  0.044439  0  0.094871  0.088296  0  1.034802  0
H  H30  1  0.73013784  0.75239748  0.04076879  1  0.175371  0  0.107746  0.127344  0  1.047427  0
H  H31  1  0.26984988  0.24761917  0.95918517  1  0.175267  0  0.107763  0.127274  0  1.047363  0
Rh  Rh32  1  0.38161278  0.49069584  0.97658727  1  1.017353  0  0.649489  0.570464  0  3.681996  0
Rh  Rh33  1  0.61838542  0.50929860  0.02341703  1  1.015755  0  0.649534  0.570653  0  3.681709  0
C  C34  1  0.55788971  0.64661414  0.80001139  1  1.498555  0  0.210869  0.541305  0  4.144794  0
C  C35  1  0.44210012  0.35337006  0.19998691  1  1.498245  0  0.210829  0.541465  0  4.145156  0
C  C36  1  0.60021241  0.70674960  0.68094099  1  -0.009912  0  -0.033882  -0.169048  0  3.96956  0
C  C37  1  0.39978148  0.29324457  0.31905003  1  -0.00987  0  -0.033814  -0.168813  0  3.969245  0
C  C38  1  0.49973724  0.77113626  0.60440581  1  0.507358  0  0.10057  0.277816  0  4.010947  0
C  C39  1  0.50024676  0.22884411  0.39560522  1  0.508131  0  0.100546  0.277512  0  4.011051  0
C  C40  1  0.25677557  0.84813198  0.56949893  1  0.339608  0  -0.138632  -0.172284  0  3.882785  0
C  C41  1  0.74320348  0.15181914  0.43051278  1  0.338719  0  -0.138479  -0.172281  0  3.882792  0
C  C42  1  0.54705259  0.81325638  0.49072995  1  0.010625  0  -0.12267  -0.354379  0  3.983191  0
C  C43  1  0.45293365  0.18672296  0.50927943  1  0.01132  0  -0.122779  -0.354679  0  3.983184  0
C  C44  1  0.69223613  0.79181865  0.45667392  1  0.372087  0  0.098947  0.322402  0  4.087945  0
C  C45  1  0.30774270  0.20816848  0.54332252  1  0.371101  0  0.098938  0.322454  0  4.087782  0
C  C46  1  0.79417087  0.73220560  0.52905097  1  -0.057374  0  -0.116747  -0.254419  0  4.051527  0
C  C47  1  0.20581529  0.26779188  0.47095804  1  -0.057398  0  -0.116778  -0.254321  0  4.051417  0
C  C48  1  0.74559864  0.69063903  0.64138925  1  0.084569  0  -0.075876  -0.037384  0  3.99385  0
C  C49  1  0.25439612  0.30935736  0.35861259  1  0.084852  0  -0.075829  -0.037555  0  3.993584  0
C  C50  1  0.39524985  0.69389917  0.10365599  1  1.490155  0  0.214513  0.549944  0  4.135729  0
C  C51  1  0.60475040  0.30608722  0.89634889  1  1.490036  0  0.214565  0.550085  0  4.135518  0
C  C52  1  0.32318060  0.78998782  0.17236577  1  0.035635  0  -0.032927  -0.167371  0  3.974022  0
C  C53  1  0.67682156  0.21001767  0.82763591  1  0.035452  0  -0.032977  -0.167517  0  3.97421  0
C  C54  1  0.38663038  0.90013295  0.18898913  1  0.499828  0  0.101088  0.274371  0  4.020463  0
C  C55  1  0.61337173  0.09987230  0.81099883  1  0.497396  0  0.100998  0.274374  0  4.020379  0
C  C56  1  0.57228406  0.04410086  0.13706212  1  0.335686  0  -0.139815  -0.172339  0  3.851494  0
C  C57  1  0.42773207  0.95588535  0.86292816  1  0.336916  0  -0.139657  -0.172166  0  3.851038  0
C  C58  1  0.30957933  0.98512986  0.25608317  1  0.034222  0  -0.121102  -0.355855  0  3.994674  0
C  C59  1  0.69042468  0.01489446  0.74389997  1  0.036879  0  -0.121288  -0.356125  0  3.994446  0
C  C60  1  0.17250667  0.95908416  0.30315917  1  0.374881  0  0.100283  0.321873  0  4.092843  0
C  C61  1  0.82751051  0.04092817  0.69682579  1  0.374914  0  0.100574  0.32241  0  4.092367  0
C  C62  1  0.10585388  0.85383602  0.28742139  1  0.011042  0  -0.118739  -0.262945  0  4.062481  0
C  C63  1  0.89414271  0.14618062  0.71258514  1  0.01085  0  -0.118745  -0.262884  0  4.062882  0
C  C64  1  0.18336889  0.77061078  0.22073395  1  -0.018501  0  -0.076276  -0.037398  0  3.9894  0
C  C65  1  0.81663521  0.22938773  0.77927134  1  -0.018747  0  -0.076336  -0.037455  0  3.989737  0
C  C66  1  0.06382087  0.61279130  0.94924843  1  0.443523  0  0.113587  0.168933  0  3.963008  0
C  C67  1  0.93619168  0.38723321  0.05074269  1  0.442978  0  0.113637  0.168819  0  3.963177  0
C  C68  1  0.12101176  0.73417012  0.89331840  1  -0.020524  0  -0.091163  -0.150924  0  3.95607  0
C  C69  1  0.87901130  0.26585697  0.10670108  1  -0.020231  0  -0.091157  -0.150527  0  3.956449  0
C  C70  1  0.04123008  0.85608643  0.89379112  1  -0.007066  0  -0.094545  -0.08292  0  4.024244  0
C  C71  1  0.95877787  0.14395191  0.10624149  1  -0.006811  0  -0.094684  -0.083269  0  4.024591  0
C  C72  1  0.90093229  0.86334467  0.95029054  1  -0.106681  0  -0.091502  -0.066857  0  4.016438  0
C  C73  1  0.09907721  0.13668814  0.04971464  1  -0.10597  0  -0.091507  -0.066945  0  4.016026  0
C  C74  1  0.83869231  0.74836044  0.99913146  1  -0.049995  0  -0.09307  -0.159578  0  3.942126  0
C  C75  1  0.16130641  0.25167168  0.00083852  1  -0.050234  0  -0.093183  -0.159626  0  3.942178  0
C  C76  1  0.91668158  0.62008404  0.99762143  1  0.49641  0  0.114709  0.169496  0  3.971175  0
C  C77  1  0.08332605  0.37994526  0.00235709  1  0.496004  0  0.114828  0.169638  0  3.971143  0
N  N78  1  0.14716014  0.49308171  0.95658845  1  -1.129351  0  -0.308091  -0.250642  0  3.405974  0
N  N79  1  0.85285425  0.50694465  0.04339319  1  -1.129312  0  -0.308098  -0.250718  0  3.406176  0
O  O80  1  0.43206287  0.60970783  0.82518794  1  -1.061845  0  -0.291018  -0.43156  0  2.491818  0
O  O81  1  0.56791542  0.39028461  0.17482372  1  -1.061638  0  -0.291156  -0.431772  0  2.491768  0
O  O82  1  0.65309689  0.63155666  0.86809214  1  -1.074195  0  -0.297317  -0.454811  0  2.451992  0
O  O83  1  0.34690081  0.36841558  0.13191097  1  -1.07421  0  -0.297172  -0.454726  0  2.451925  0
O  O84  1  0.36140131  0.79271732  0.64610961  1  -1.072723  0  -0.172295  -0.138486  0  2.602967  0
O  O85  1  0.63858613  0.20726107  0.35390226  1  -1.072617  0  -0.172314  -0.138369  0  2.602914  0
O  O86  1  0.31048887  0.64377668  0.05536110  1  -1.05998  0  -0.293825  -0.448874  0  2.523624  0
O  O87  1  0.68951248  0.35620986  0.94465174  1  -1.059931  0  -0.293746  -0.44882  0  2.523212  0
O  O88  1  0.53112464  0.66478382  0.09899218  1  -1.068755  0  -0.290153  -0.437908  0  2.45453  0
O  O89  1  0.46888288  0.33521266  0.90101073  1  -1.068608  0  -0.290295  -0.438047  0  2.454352  0
O  O90  1  0.51755415  0.92149465  0.13477375  1  -1.056016  0  -0.17316  -0.139147  0  2.58208  0
O  O91  1  0.48245695  0.07849741  0.86520697  1  -1.056199  0  -0.173212  -0.139268  0  2.581968  0
F  F92  1  0.73642098  0.83420116  0.34562747  1  -0.637422  0  -0.093809  -0.142663  0  1.320982  0
F  F93  1  0.26354825  0.16576887  0.65437339  1  -0.637555  0  -0.093838  -0.142728  0  1.320739  0
F  F94  1  0.09838638  0.04355739  0.36734396  1  -0.647515  0  -0.094794  -0.151289  0  1.358319  0
F  F95  1  0.90163059  0.95647405  0.63263883  1  -0.647561  0  -0.09476  -0.151318  0  1.358342  0
