# generated using pymatgen
data_CdH11C17SN3O4
_symmetry_space_group_name_H-M   'P 1'
_cell_length_a   6.39160604
_cell_length_b   14.67460327
_cell_length_c   18.55262568
_cell_angle_alpha   83.18924072
_cell_angle_beta   80.25111884
_cell_angle_gamma   82.54648401
_symmetry_Int_Tables_number   1
_chemical_formula_structural   CdH11C17SN3O4
_chemical_formula_sum   'Cd4 H44 C68 S4 N12 O16'
_cell_volume   1692.17773636
_cell_formula_units_Z   4
loop_
 _symmetry_equiv_pos_site_id
 _symmetry_equiv_pos_as_xyz
  1  'x, y, z'
loop_
 _atom_site_type_symbol
 _atom_site_label
 _atom_site_symmetry_multiplicity
 _atom_site_fract_x
 _atom_site_fract_y
 _atom_site_fract_z
 _atom_site_occupancy
 _atom_site_pbe_bader_charge
 _atom_site_pbe_bader_spin_density
 _atom_site_pbe_cm5_charge
 _atom_site_pbe_ddec_charge
 _atom_site_pbe_ddec_spin_density
 _atom_site_pbe_ddec_sum_bond_order
 _atom_site_pbe_magmom
Cd  Cd0  1  0.07510392  0.16461154  0.26852386  1  1.285151  0  0.777673  0.931513  0  2.178742  0
Cd  Cd1  1  0.92489718  0.83539506  0.73147715  1  1.2852  0  0.777678  0.931543  0  2.178806  0
Cd  Cd2  1  0.41491564  0.91435270  0.25220396  1  1.292478  0  0.79401  0.946267  0  2.191123  0
Cd  Cd3  1  0.58508210  0.08564216  0.74779844  1  1.292549  0  0.794004  0.946234  0  2.191033  0
H  H4  1  0.66519990  0.58356635  0.13526396  1  0.084684  0  0.106533  0.116353  0  1.004478  0
H  H5  1  0.33480831  0.41643120  0.86473217  1  0.084344  0  0.106503  0.116321  0  1.004468  0
H  H6  1  0.80298397  0.06541197  0.53471740  1  0.080304  0  0.094496  0.099956  0  1.035125  0
H  H7  1  0.19701944  0.93459184  0.46528161  1  0.080365  0  0.09455  0.100058  0  1.03513  0
H  H8  1  0.01745164  0.52505667  0.40260153  1  0.058681  0  0.099966  0.103028  0  1.020239  0
H  H9  1  0.98254047  0.47494163  0.59739922  1  0.058683  0  0.099976  0.102994  0  1.020228  0
H  H10  1  0.87361632  0.94950874  0.34109475  1  0.213972  0  0.133002  0.143983  0  0.997435  0
H  H11  1  0.12637710  0.05049037  0.65891501  1  0.213659  0  0.132988  0.144042  0  0.99744  0
H  H12  1  0.47536623  0.48987207  0.42013409  1  0.022223  0  0.09282  0.092397  0  0.988151  0
H  H13  1  0.52464232  0.51013033  0.57986261  1  0.021981  0  0.092845  0.09244  0  0.987985  0
H  H14  1  0.65440367  0.55718064  0.44566865  1  0.04175  0  0.087423  0.078717  0  1.036356  0
H  H15  1  0.34559518  0.44282245  0.55432853  1  0.041798  0  0.087442  0.078724  0  1.036396  0
H  H16  1  0.29295683  0.50274650  0.09693552  1  0.07044  0  0.107442  0.084453  0  1.01293  0
H  H17  1  0.70704677  0.49725040  0.90306364  1  0.070492  0  0.107442  0.084491  0  1.0129  0
H  H18  1  0.04937923  0.57501231  0.10147431  1  0.082189  0  0.119057  0.103375  0  0.96158  0
H  H19  1  0.95062734  0.42498529  0.89852622  1  0.082073  0  0.11905  0.103383  0  0.961528  0
H  H20  1  0.32737667  0.56647985  0.22190788  1  0.069347  0  0.095084  0.095082  0  1.045534  0
H  H21  1  0.67262609  0.43352044  0.77808667  1  0.069382  0  0.095065  0.095056  0  1.045547  0
H  H22  1  0.78707659  0.67211670  0.20984178  1  0.08597  0  0.096546  0.100915  0  1.026159  0
H  H23  1  0.21293465  0.32788151  0.79015195  1  0.085845  0  0.096539  0.100985  0  1.026108  0
H  H24  1  0.16791823  0.58712633  0.49148907  1  0.043007  0  0.109099  0.086114  0  0.971363  0
H  H25  1  0.83208272  0.41286849  0.50850990  1  0.043237  0  0.10908  0.086166  0  0.971326  0
H  H26  1  0.34670029  0.65981902  0.50920529  1  0.120517  0  0.116427  0.117256  0  1.002964  0
H  H27  1  0.65329271  0.34017581  0.49079522  1  0.120238  0  0.116424  0.117243  0  1.002964  0
H  H28  1  0.58589342  0.30105480  0.31813903  1  0.154136  0  0.112217  0.139999  0  1.006712  0
H  H29  1  0.41410802  0.69895043  0.68186318  1  0.15433  0  0.112311  0.140086  0  1.006606  0
H  H30  1  0.28766511  0.09104197  0.01602679  1  0.091277  0  0.104095  0.115532  0  0.996772  0
H  H31  1  0.71233005  0.90895696  0.98396941  1  0.091203  0  0.104141  0.115529  0  0.99682  0
H  H32  1  0.28570511  0.42826235  0.31047487  1  0.064343  0  0.097108  0.101071  0  1.009339  0
H  H33  1  0.71429515  0.57174143  0.68952216  1  0.064288  0  0.097133  0.101074  0  1.009346  0
H  H34  1  0.18571738  0.42270309  0.99659644  1  0.025763  0  0.094738  0.090458  0  0.99651  0
H  H35  1  0.81428124  0.57729454  0.00340563  1  0.025837  0  0.094759  0.090475  0  0.996475  0
H  H36  1  0.21070719  0.54148996  0.97193167  1  0.044719  0  0.08969  0.084728  0  1.025125  0
H  H37  1  0.78928492  0.45850834  0.02806962  1  0.044622  0  0.089648  0.084654  0  1.025118  0
H  H38  1  0.65766896  0.12593602  0.18215551  1  0.218105  0  0.13396  0.149761  0  1.024145  0
H  H39  1  0.34233051  0.87406441  0.81785000  1  0.218126  0  0.133998  0.149769  0  1.024301  0
H  H40  1  0.65364731  0.70503256  0.49547094  1  0.135344  0  0.122711  0.160403  0  0.993304  0
H  H41  1  0.34633365  0.29496579  0.50453422  1  0.135469  0  0.122738  0.16045  0  0.993271  0
H  H42  1  0.47203053  0.38680630  0.04044411  1  0.088026  0  0.108416  0.137553  0  1.041861  0
H  H43  1  0.52797481  0.61318993  0.95955663  1  0.088383  0  0.108457  0.13761  0  1.041879  0
H  H44  1  0.04136613  0.78977472  0.20140656  1  0.150374  0  0.113113  0.139067  0  0.997433  0
H  H45  1  0.95865232  0.21022005  0.79858926  1  0.150358  0  0.113112  0.139033  0  0.997412  0
H  H46  1  0.78181423  0.54017745  0.30673398  1  0.089044  0  0.094772  0.094445  0  1.045211  0
H  H47  1  0.21817579  0.45982290  0.69326507  1  0.088729  0  0.094819  0.094484  0  1.045256  0
C  C48  1  0.03342678  0.01212331  0.07113985  1  -0.113745  0  -0.011522  -0.043591  0  3.951001  0
C  C49  1  0.96657276  0.98787704  0.92885865  1  -0.113284  0  -0.011502  -0.043451  0  3.95089  0
C  C50  1  0.59492442  0.07254876  0.45400390  1  0.031917  0  -0.011977  -0.038433  0  3.947275  0
C  C51  1  0.40508448  0.92745225  0.54599292  1  0.032263  0  -0.011902  -0.038403  0  3.947195  0
C  C52  1  0.39951224  0.74189996  0.36835450  1  0.999041  0  0.234859  0.245466  0  3.993758  0
C  C53  1  0.60048127  0.25809904  0.63164772  1  0.999052  0  0.234875  0.24535  0  3.99378  0
C  C54  1  0.07802456  0.02429050  0.14654453  1  1.606636  0  0.213513  0.617271  0  4.189999  0
C  C55  1  0.92197484  0.97571049  0.85345068  1  1.6067  0  0.213366  0.617147  0  4.190388  0
C  C56  1  0.71398029  0.14334964  0.40263393  1  1.613913  0  0.193197  0.581887  0  4.24714  0
C  C57  1  0.28602066  0.85665762  0.59736487  1  1.613779  0  0.193421  0.582317  0  4.246229  0
C  C58  1  0.64968338  0.52233566  0.17433277  1  -0.037079  0  -0.10275  -0.186945  0  4.044244  0
C  C59  1  0.35032058  0.47766605  0.82566480  1  -0.036668  0  -0.10271  -0.186896  0  4.044217  0
C  C60  1  0.87088949  0.96071834  0.06146492  1  0.05092  0  -0.01479  -0.043212  0  3.965373  0
C  C61  1  0.12911182  0.03928131  0.93853301  1  0.050645  0  -0.014772  -0.043291  0  3.965473  0
C  C62  1  0.16077542  0.64988232  0.35493667  1  0.318884  0  0.087506  0.074498  0  4.054028  0
C  C63  1  0.83921264  0.35011944  0.64506396  1  0.31917  0  0.087527  0.074528  0  4.054138  0
C  C64  1  0.66828216  0.03760390  0.51956246  1  -0.057331  0  -0.092132  -0.137598  0  3.986683  0
C  C65  1  0.33172340  0.96239781  0.48043448  1  -0.057293  0  -0.092279  -0.137827  0  3.986752  0
C  C66  1  0.11512364  0.35340293  0.16770113  1  1.008491  0  0.233868  0.24134  0  3.998345  0
C  C67  1  0.88488044  0.64659815  0.83230135  1  1.00852  0  0.233959  0.24145  0  3.998241  0
C  C68  1  0.02306504  0.58230802  0.35936293  1  -0.033551  0  -0.105654  -0.187462  0  4.058629  0
C  C69  1  0.97692073  0.41769027  0.64063764  1  -0.033575  0  -0.105563  -0.187292  0  4.058683  0
C  C70  1  0.42299969  0.03461878  0.43495881  1  -0.056102  0  -0.017323  -0.05657  0  3.992139  0
C  C71  1  0.57700903  0.96538293  0.56503902  1  -0.056071  0  -0.017395  -0.056741  0  3.992144  0
C  C72  1  0.71727807  0.92644330  0.12615947  1  1.576381  0  0.190826  0.570871  0  4.229941  0
C  C73  1  0.28272202  0.07355495  0.87383760  1  1.576212  0  0.190664  0.570698  0  4.230062  0
C  C74  1  0.57101750  0.78218935  0.39104314  1  0.505692  0  0.088174  0.11507  0  4.074917  0
C  C75  1  0.42897070  0.21781176  0.60896078  1  0.505552  0  0.088149  0.115137  0  4.074728  0
C  C76  1  0.79870028  0.88918511  0.36817438  1  0.403796  0  0.064618  0.012297  0  3.882316  0
C  C77  1  0.20129352  0.11081259  0.63183334  1  0.404231  0  0.064551  0.011981  0  3.882422  0
C  C78  1  0.49891415  0.53054967  0.46380666  1  -0.01865  0  -0.165898  -0.166621  0  3.939994  0
C  C79  1  0.50108682  0.46945135  0.53619007  1  -0.044609  0  -0.165844  -0.16657  0  3.93987  0
C  C80  1  0.31858948  0.07769023  0.37132599  1  1.567239  0  0.203167  0.592069  0  4.167022  0
C  C81  1  0.68141379  0.92230802  0.62867089  1  1.567621  0  0.203248  0.592406  0  4.166882  0
C  C82  1  0.79362141  0.37209727  0.23057248  1  0.397058  0  0.089369  0.148313  0  4.083278  0
C  C83  1  0.20638390  0.62790520  0.76943033  1  0.397094  0  0.089387  0.148334  0  4.083105  0
C  C84  1  0.12652501  0.50644153  0.08779998  1  0.293651  0  -0.050244  -0.047586  0  3.87786  0
C  C85  1  0.87347661  0.49355678  0.91220184  1  0.293705  0  -0.050312  -0.047807  0  3.877973  0
C  C86  1  0.46083035  0.51227671  0.22326591  1  -0.044107  0  -0.101604  -0.091447  0  4.028088  0
C  C87  1  0.53917553  0.48772364  0.77673330  1  -0.044131  0  -0.101637  -0.091484  0  4.02791  0
C  C88  1  0.89841698  0.66494821  0.24906209  1  -0.054208  0  -0.100953  -0.09852  0  4.018187  0
C  C89  1  0.10158717  0.33505280  0.75093500  1  -0.054028  0  -0.10096  -0.098671  0  4.018156  0
C  C90  1  0.81643830  0.45128663  0.17934871  1  0.321537  0  0.089034  0.078013  0  4.038655  0
C  C91  1  0.18356385  0.54871583  0.82065320  1  0.321656  0  0.089087  0.078043  0  4.038584  0
C  C92  1  0.32424211  0.61196544  0.47052586  1  0.308495  0  -0.050821  -0.052549  0  3.861521  0
C  C93  1  0.67575620  0.38803352  0.52947285  1  0.308848  0  -0.050808  -0.052638  0  3.861448  0
C  C94  1  0.60277390  0.36232914  0.27914327  1  -0.028489  0  -0.082592  -0.136052  0  3.924358  0
C  C95  1  0.39723284  0.63767399  0.72085777  1  -0.028745  0  -0.082708  -0.136154  0  3.924369  0
C  C96  1  0.16003230  0.05155192  0.00942247  1  0.004016  0  -0.085881  -0.129097  0  3.967648  0
C  C97  1  0.83996779  0.94844633  0.99057459  1  0.003801  0  -0.085914  -0.129198  0  3.967691  0
C  C98  1  0.43795412  0.43364406  0.27444749  1  -0.059981  0  -0.101932  -0.099656  0  4.031513  0
C  C99  1  0.56204947  0.56635906  0.72555211  1  -0.059985  0  -0.101915  -0.099611  0  4.031415  0
C  C100  1  0.11395729  0.49274589  0.00845210  1  -0.020772  0  -0.167606  -0.174706  0  3.948946  0
C  C101  1  0.88603992  0.50725104  0.99155012  1  -0.047473  0  -0.167544  -0.174529  0  3.948879  0
C  C102  1  0.32704680  0.30794927  0.14295455  1  0.497613  0  0.088476  0.122181  0  4.078251  0
C  C103  1  0.67295025  0.69204835  0.85704706  1  0.497604  0  0.088422  0.122076  0  4.078275  0
C  C104  1  0.57962635  0.19073154  0.15946477  1  0.471611  0  0.071175  0.034935  0  3.847019  0
C  C105  1  0.42037493  0.80926814  0.84053640  1  0.471544  0  0.071129  0.034809  0  3.847118  0
C  C106  1  0.17178132  0.72231752  0.29719913  1  0.344067  0  0.087943  0.14828  0  4.096026  0
C  C107  1  0.82821625  0.27768425  0.70280257  1  0.344083  0  0.087963  0.148242  0  4.09607  0
C  C108  1  0.68009431  0.75769978  0.44989794  1  -0.251505  0  -0.080851  -0.241538  0  3.893931  0
C  C109  1  0.31988806  0.24229926  0.55010707  1  -0.251457  0  -0.080871  -0.241685  0  3.893868  0
C  C110  1  0.47946651  0.33002375  0.08319060  1  -0.23925  0  -0.102103  -0.28698  0  3.960062  0
C  C111  1  0.52053510  0.66997457  0.91681176  1  -0.239716  0  -0.102139  -0.287059  0  3.960157  0
C  C112  1  0.03865188  0.73133756  0.24361883  1  0.023117  0  -0.082226  -0.134132  0  3.922001  0
C  C113  1  0.96135100  0.26866211  0.75638116  1  0.023173  0  -0.082224  -0.134042  0  3.921821  0
C  C114  1  0.89283138  0.59102455  0.30514983  1  -0.072376  0  -0.101575  -0.090085  0  4.022258  0
C  C115  1  0.10716128  0.40897787  0.69484940  1  -0.072037  0  -0.101693  -0.090211  0  4.022582  0
S  S116  1  0.87079675  0.82972969  0.44740890  1  0.336932  0  0.158497  0.260062  0  2.980658  0
S  S117  1  0.12918769  0.17026733  0.55259997  1  0.336884  0  0.158551  0.260246  0  2.980668  0
S  S118  1  0.70041078  0.25024341  0.08096286  1  0.300808  0  0.131546  0.22456  0  2.85474  0
S  S119  1  0.29958924  0.74975493  0.91904067  1  0.30081  0  0.131566  0.224665  0  2.854562  0
N  N120  1  0.38824120  0.22765734  0.18485478  1  -1.188015  0  -0.313485  -0.247474  0  3.435695  0
N  N121  1  0.61176026  0.77234164  0.81514536  1  -1.187878  0  -0.313484  -0.247425  0  3.43558  0
N  N122  1  0.02333520  0.43832591  0.14104830  1  -1.210321  0  -0.23832  -0.061159  0  3.664821  0
N  N123  1  0.97666887  0.56167519  0.85895525  1  -1.210336  0  -0.238406  -0.061093  0  3.66466  0
N  N124  1  0.32116826  0.77735456  0.30719732  1  -1.184793  0  -0.35276  -0.391147  0  3.482298  0
N  N125  1  0.67882790  0.22264651  0.69280453  1  -1.184745  0  -0.352823  -0.391106  0  3.482356  0
N  N126  1  0.64169917  0.85737053  0.34545880  1  -1.169669  0  -0.325253  -0.26783  0  3.485484  0
N  N127  1  0.35830031  0.14262989  0.65454563  1  -1.169923  0  -0.325191  -0.267661  0  3.485272  0
N  N128  1  0.98077340  0.31329720  0.22152516  1  -1.180924  0  -0.344436  -0.380387  0  3.450312  0
N  N129  1  0.01923051  0.68670457  0.77847672  1  -1.181023  0  -0.344455  -0.380477  0  3.450279  0
N  N130  1  0.30313902  0.66513772  0.39997857  1  -1.201666  0  -0.233235  -0.056007  0  3.67685  0
N  N131  1  0.69685096  0.33486267  0.60002371  1  -1.201996  0  -0.233269  -0.056005  0  3.676711  0
O  O132  1  0.77706718  0.11789482  0.33736319  1  -1.159171  0  -0.343615  -0.571168  0  2.235225  0
O  O133  1  0.22292762  0.88211172  0.66263334  1  -1.159515  0  -0.343641  -0.571199  0  2.23512  0
O  O134  1  0.25487348  0.02605893  0.32946571  1  -1.179832  0  -0.342364  -0.589718  0  2.323572  0
O  O135  1  0.74513452  0.97393312  0.67053314  1  -1.18015  0  -0.342501  -0.589968  0  2.32363  0
O  O136  1  0.74959825  0.21552565  0.42597667  1  -1.1853  0  -0.344254  -0.583361  0  2.127746  0
O  O137  1  0.25040166  0.78447951  0.57402078  1  -1.185118  0  -0.344511  -0.58376  0  2.127139  0
O  O138  1  0.06012914  0.10779055  0.16153121  1  -1.166143  0  -0.332483  -0.573499  0  2.299017  0
O  O139  1  0.93986192  0.89221188  0.83846865  1  -1.166183  0  -0.332427  -0.573485  0  2.299144  0
O  O140  1  0.65532320  0.98514926  0.17468642  1  -1.159371  0  -0.332223  -0.552693  0  2.262107  0
O  O141  1  0.34466561  0.01484968  0.82531015  1  -1.159124  0  -0.332121  -0.552546  0  2.262123  0
O  O142  1  0.65059066  0.84880553  0.13090653  1  -1.171874  0  -0.346268  -0.568948  0  2.066542  0
O  O143  1  0.34941962  0.15119000  0.86909399  1  -1.172036  0  -0.346239  -0.568925  0  2.066577  0
O  O144  1  0.13383660  0.95234201  0.18701351  1  -1.179135  0  -0.332359  -0.569623  0  2.258136  0
O  O145  1  0.86617492  0.04766110  0.81298564  1  -1.179252  0  -0.332278  -0.569531  0  2.25852  0
O  O146  1  0.27956878  0.16470642  0.36364268  1  -1.144037  0  -0.314623  -0.523608  0  2.17023  0
O  O147  1  0.72043466  0.83529114  0.63635480  1  -1.14405  0  -0.314584  -0.523673  0  2.170156  0
