# generated using pymatgen
data_DyH16C16N10ClO6
_symmetry_space_group_name_H-M   'P 1'
_cell_length_a   8.98149383
_cell_length_b   10.92145246
_cell_length_c   12.78946663
_cell_angle_alpha   115.28146378
_cell_angle_beta   106.38993647
_cell_angle_gamma   89.95836964
_symmetry_Int_Tables_number   1
_chemical_formula_structural   DyH16C16N10ClO6
_chemical_formula_sum   'Dy2 H32 C32 N20 Cl2 O12'
_cell_volume   1077.85185463
_cell_formula_units_Z   2
loop_
 _symmetry_equiv_pos_site_id
 _symmetry_equiv_pos_as_xyz
  1  'x, y, z'
loop_
 _atom_site_type_symbol
 _atom_site_label
 _atom_site_symmetry_multiplicity
 _atom_site_fract_x
 _atom_site_fract_y
 _atom_site_fract_z
 _atom_site_occupancy
 _atom_site_hle17_bader_spin_density
 _atom_site_hle17_ddec_charge
 _atom_site_hle17_ddec_spin_density
 _atom_site_hle17_ddec_sum_bond_order
 _atom_site_hle17_magmom
 _atom_site_hse06_10hf_bader_spin_density
 _atom_site_hse06_10hf_ddec_charge
 _atom_site_hse06_10hf_ddec_spin_density
 _atom_site_hse06_10hf_ddec_sum_bond_order
 _atom_site_hse06_10hf_magmom
 _atom_site_hse06_bader_spin_density
 _atom_site_hse06_ddec_charge
 _atom_site_hse06_ddec_spin_density
 _atom_site_hse06_ddec_sum_bond_order
 _atom_site_hse06_magmom
 _atom_site_pbe_bader_spin_density
 _atom_site_pbe_cm5_charge
 _atom_site_pbe_ddec_charge
 _atom_site_pbe_ddec_spin_density
 _atom_site_pbe_ddec_sum_bond_order
 _atom_site_pbe_magmom
Dy  Dy0  1  0.74984524  0.06851255  0.00000746  1  0  2.274271  0  1.612988  0  0  2.14523  0  2.065487  0  0  2.262223  0  1.892684  0  0  1.425765  2.109176  0  2.098974  0
Dy  Dy1  1  0.25015686  0.93148646  0.99999521  1  0  2.274252  0  1.612876  0  0  2.145198  0  2.065381  0  0  2.262196  0  1.892564  0  0  1.425732  2.109134  0  2.098884  0
H  H2  1  0.01593651  0.22236657  0.00602099  1  0  0.422852  0  0.876473  0  0  0.395158  0  0.936166  0  0  0.405583  0  0.921217  0  0  0.277565  0.38793  0  0.94667  0
H  H3  1  0.48386870  0.21675417  0.99439593  1  0  0.421393  0  0.87818  0  0  0.393908  0  0.937578  0  0  0.404329  0  0.92263  0  0  0.276691  0.386694  0  0.948062  0
H  H4  1  0.98407205  0.77763652  0.99398443  1  0  0.422798  0  0.87655  0  0  0.395116  0  0.936234  0  0  0.405545  0  0.921277  0  0  0.277571  0.387888  0  0.946737  0
H  H5  1  0.51613504  0.78324076  0.00560086  1  0  0.421383  0  0.878206  0  0  0.39389  0  0.937617  0  0  0.404311  0  0.922668  0  0  0.276654  0.386674  0  0.948102  0
H  H6  1  0.46567467  0.27116755  0.31484809  1  0  0.141476  0  0.890369  0  0  0.155773  0  0.943558  0  0  0.158336  0  0.941588  0  0  0.138765  0.15397  0  0.94487  0
H  H7  1  0.03418790  0.95739458  0.68551034  1  0  0.14225  0  0.889027  0  0  0.156335  0  0.943555  0  0  0.15896  0  0.941517  0  0  0.13916  0.154473  0  0.944898  0
H  H8  1  0.53432748  0.72884686  0.68514147  1  0  0.141382  0  0.890178  0  0  0.155684  0  0.943452  0  0  0.158259  0  0.941457  0  0  0.138748  0.153888  0  0.944754  0
H  H9  1  0.96581285  0.04261058  0.31449119  1  0  0.142312  0  0.88902  0  0  0.156359  0  0.943581  0  0  0.158983  0  0.941545  0  0  0.139168  0.154496  0  0.944924  0
H  H10  1  0.52619031  0.14004978  0.35817954  1  0  0.142565  0  0.911899  0  0  0.147785  0  0.981027  0  0  0.151154  0  0.977768  0  0  0.131877  0.145473  0  0.983127  0
H  H11  1  0.97460221  0.78284459  0.64222409  1  0  0.142653  0  0.910239  0  0  0.1482  0  0.98021  0  0  0.15156  0  0.976983  0  0  0.132057  0.145903  0  0.982245  0
H  H12  1  0.47378486  0.85996262  0.64181027  1  0  0.142544  0  0.91193  0  0  0.147853  0  0.980964  0  0  0.15123  0  0.977699  0  0  0.131904  0.145539  0  0.983068  0
H  H13  1  0.02540550  0.21716056  0.35777723  1  0  0.14272  0  0.910331  0  0  0.148267  0  0.980254  0  0  0.151627  0  0.977025  0  0  0.132098  0.145969  0  0.98229  0
H  H14  1  0.99615813  0.17669709  0.61959732  1  0  0.100073  0  0.972227  0  0  0.097837  0  1.056729  0  0  0.101577  0  1.05294  0  0  0.10509  0.095042  0  1.059595  0
H  H15  1  0.50432185  0.55726950  0.38055246  1  0  0.100625  0  0.972869  0  0  0.098831  0  1.056682  0  0  0.102559  0  1.052904  0  0  0.105142  0.096037  0  1.05956  0
H  H16  1  0.00383534  0.82329888  0.38039942  1  0  0.100056  0  0.972143  0  0  0.097799  0  1.056671  0  0  0.101539  0  1.052882  0  0  0.105079  0.095003  0  1.059536  0
H  H17  1  0.49568043  0.44272337  0.61944877  1  0  0.100644  0  0.972893  0  0  0.098784  0  1.056753  0  0  0.102506  0  1.052987  0  0  0.105123  0.09599  0  1.059631  0
H  H18  1  0.12635917  0.60577603  0.73398401  1  0  0.095485  0  0.93866  0  0  0.099723  0  1.01004  0  0  0.103386  0  1.006493  0  0  0.122361  0.096934  0  1.012984  0
H  H19  1  0.37369886  0.87184085  0.26588698  1  0  0.095316  0  0.937997  0  0  0.099287  0  1.009636  0  0  0.102884  0  1.006179  0  0  0.122232  0.09649  0  1.012583  0
H  H20  1  0.87363165  0.39422505  0.26601565  1  0  0.09549  0  0.938696  0  0  0.099655  0  1.01016  0  0  0.103317  0  1.006618  0  0  0.122358  0.096867  0  1.013105  0
H  H21  1  0.62630508  0.12815509  0.73411648  1  0  0.095361  0  0.937961  0  0  0.099339  0  1.009596  0  0  0.102938  0  1.006137  0  0  0.122235  0.096543  0  1.012543  0
H  H22  1  0.40629352  0.41581504  0.92064837  1  0  0.075126  0  0.939378  0  0  0.085254  0  1.002646  0  0  0.08802  0  0.999978  0  0  0.113325  0.083286  0  1.004447  0
H  H23  1  0.09418731  0.49525862  0.07935828  1  0  0.074772  0  0.939366  0  0  0.084702  0  1.002776  0  0  0.087539  0  1.000032  0  0  0.113395  0.082684  0  1.004611  0
H  H24  1  0.59370588  0.58417481  0.07933868  1  0  0.075066  0  0.939387  0  0  0.085213  0  1.002644  0  0  0.087981  0  0.999969  0  0  0.113322  0.083246  0  1.004442  0
H  H25  1  0.90581775  0.50473733  0.92063915  1  0  0.074786  0  0.939348  0  0  0.08463  0  1.00286  0  0  0.087464  0  1.000121  0  0  0.113372  0.082615  0  1.004691  0
H  H26  1  0.23774744  0.19122727  0.78707281  1  0  0.113096  0  0.949326  0  0  0.123146  0  1.005437  0  0  0.126769  0  1.003619  0  0  0.10266  0.120664  0  1.006539  0
H  H27  1  0.26289114  0.40440357  0.21315561  1  0  0.11347  0  0.949136  0  0  0.12337  0  1.00548  0  0  0.126922  0  1.003776  0  0  0.102714  0.120932  0  1.006515  0
H  H28  1  0.76225145  0.80876666  0.21291643  1  0  0.113131  0  0.949277  0  0  0.123171  0  1.0054  0  0  0.126793  0  1.003587  0  0  0.102643  0.12069  0  1.006501  0
H  H29  1  0.73710979  0.59558829  0.78684030  1  0  0.113397  0  0.949197  0  0  0.123318  0  1.005528  0  0  0.126871  0  1.003825  0  0  0.102704  0.12088  0  1.006563  0
H  H30  1  0.86178827  0.26852041  0.93414972  1  0  0.385531  0  0.940763  0  0  0.342118  0  1.024252  0  0  0.354393  0  1.007449  0  0  0.280418  0.333536  0  1.036173  0
H  H31  1  0.63801395  0.33465555  0.06610559  1  0  0.386011  0  0.94025  0  0  0.342663  0  1.023628  0  0  0.354945  0  1.006812  0  0  0.280599  0.334085  0  1.035543  0
H  H32  1  0.13821897  0.73148166  0.06585585  1  0  0.385527  0  0.94077  0  0  0.342124  0  1.024239  0  0  0.354399  0  1.007437  0  0  0.280444  0.333541  0  1.036161  0
H  H33  1  0.36198929  0.66534348  0.93389262  1  0  0.385978  0  0.940316  0  0  0.342637  0  1.023678  0  0  0.354919  0  1.006862  0  0  0.280569  0.33406  0  1.035593  0
C  C34  1  0.59876431  0.13513474  0.21003957  1  0  0.75778  0  3.836144  0  0  0.713859  0  4.131142  0  0  0.74891  0  4.12472  0  0  0.236934  0.690267  0  4.138494  0
C  C35  1  0.90131882  0.92562289  0.79016625  1  0  0.757261  0  3.835479  0  0  0.713084  0  4.132109  0  0  0.748143  0  4.125707  0  0  0.236563  0.68946  0  4.139445  0
C  C36  1  0.40123416  0.86486325  0.78996279  1  0  0.757806  0  3.836064  0  0  0.713922  0  4.130997  0  0  0.74897  0  4.124578  0  0  0.236959  0.69033  0  4.138353  0
C  C37  1  0.09869356  0.07438223  0.20984145  1  0  0.757436  0  3.835444  0  0  0.713205  0  4.132131  0  0  0.748265  0  4.125726  0  0  0.236582  0.689581  0  4.139464  0
C  C38  1  0.56271131  0.21327444  0.32952046  1  0  -0.206552  0  3.578121  0  0  -0.264002  0  3.826945  0  0  -0.264634  0  3.828345  0  0  -0.034649  -0.26316  0  3.824953  0
C  C39  1  0.93749715  0.88457029  0.67078889  1  0  -0.194544  0  3.585814  0  0  -0.265277  0  3.828042  0  0  -0.265991  0  3.829511  0  0  -0.034813  -0.264268  0  3.825776  0
C  C40  1  0.43728277  0.78673995  0.67047846  1  0  -0.206513  0  3.577933  0  0  -0.264055  0  3.82672  0  0  -0.264698  0  3.828146  0  0  -0.034712  -0.263218  0  3.824727  0
C  C41  1  0.06250494  0.11543588  0.32921562  1  0  -0.19479  0  3.586021  0  0  -0.265475  0  3.828239  0  0  -0.266187  0  3.829702  0  0  -0.034852  -0.264466  0  3.825973  0
C  C42  1  0.90367491  0.38422686  0.56888249  1  0  0.249779  0  3.811864  0  0  0.230515  0  4.087973  0  0  0.238582  0  4.105688  0  0  0.219545  0.225303  0  4.07581  0
C  C43  1  0.59647305  0.81541654  0.43115604  1  0  0.251988  0  3.804837  0  0  0.229938  0  4.087636  0  0  0.237954  0  4.105442  0  0  0.219809  0.224749  0  4.075453  0
C  C44  1  0.09631526  0.61577728  0.43112051  1  0  0.249932  0  3.811816  0  0  0.230599  0  4.088011  0  0  0.238669  0  4.105727  0  0  0.219475  0.225388  0  4.075846  0
C  C45  1  0.40352510  0.18457940  0.56884708  1  0  0.252097  0  3.804805  0  0  0.229957  0  4.087738  0  0  0.237974  0  4.10554  0  0  0.219847  0.224768  0  4.075554  0
C  C46  1  0.04431424  0.38975158  0.66293343  1  0  -0.040137  0  3.784324  0  0  -0.017392  0  4.016735  0  0  -0.023868  0  4.041454  0  0  0.001164  -0.013374  0  3.999949  0
C  C47  1  0.45594753  0.72689091  0.33707598  1  0  -0.039002  0  3.783861  0  0  -0.016232  0  4.016877  0  0  -0.022696  0  4.041573  0  0  0.001752  -0.012247  0  4.000115  0
C  C48  1  0.95567974  0.61024745  0.33706766  1  0  -0.040231  0  3.784446  0  0  -0.017467  0  4.016861  0  0  -0.023944  0  4.041581  0  0  0.001164  -0.01345  0  4.000073  0
C  C49  1  0.54405609  0.27310297  0.66292745  1  0  -0.039056  0  3.783602  0  0  -0.016242  0  4.01666  0  0  -0.022703  0  4.041349  0  0  0.001769  -0.012258  0  3.999897  0
C  C50  1  0.07646147  0.27169669  0.67854542  1  0  -0.03103  0  3.672711  0  0  -0.061119  0  3.923924  0  0  -0.058636  0  3.943491  0  0  -0.065515  -0.062228  0  3.910356  0
C  C51  1  0.42395003  0.59328002  0.32152881  1  0  -0.033673  0  3.676147  0  0  -0.06388  0  3.926883  0  0  -0.061414  0  3.946498  0  0  -0.066954  -0.065001  0  3.91337  0
C  C52  1  0.92352966  0.72829929  0.32144853  1  0  -0.030933  0  3.672632  0  0  -0.060991  0  3.923859  0  0  -0.058506  0  3.943424  0  0  -0.06552  -0.062109  0  3.910318  0
C  C53  1  0.57605473  0.40671387  0.67847249  1  0  -0.033712  0  3.676145  0  0  -0.063873  0  3.92691  0  0  -0.061407  0  3.946528  0  0  -0.066957  -0.064992  0  3.913392  0
C  C54  1  0.14648615  0.51127800  0.74197312  1  0  0.111777  0  3.650662  0  0  0.067374  0  3.909106  0  0  0.073699  0  3.92495  0  0  0.059605  0.063408  0  3.898309  0
C  C55  1  0.35370746  0.76938512  0.25796012  1  0  0.112178  0  3.648671  0  0  0.068044  0  3.907094  0  0  0.074431  0  3.92294  0  0  0.060148  0.064094  0  3.896288  0
C  C56  1  0.85351015  0.48872102  0.25802763  1  0  0.111818  0  3.650739  0  0  0.067454  0  3.909178  0  0  0.073781  0  3.92502  0  0  0.05962  0.063488  0  3.898385  0
C  C57  1  0.64629632  0.23060979  0.74204371  1  0  0.112128  0  3.648545  0  0  0.067956  0  3.907003  0  0  0.074341  0  3.922843  0  0  0.060106  0.064005  0  3.8962  0
C  C58  1  0.30299763  0.40523975  0.84606398  1  0  0.12519  0  3.710122  0  0  0.089451  0  3.968828  0  0  0.096226  0  3.986151  0  0  0.048064  0.085273  0  3.956627  0
C  C59  1  0.19742945  0.55930217  0.15391409  1  0  0.126553  0  3.708838  0  0  0.09118  0  3.967275  0  0  0.097895  0  3.984552  0  0  0.048309  0.087048  0  3.955105  0
C  C60  1  0.69700227  0.59475316  0.15392664  1  0  0.125328  0  3.70999  0  0  0.08957  0  3.968687  0  0  0.096349  0  3.986007  0  0  0.048138  0.085394  0  3.956486  0
C  C61  1  0.80257761  0.44069173  0.84608377  1  0  0.126568  0  3.70882  0  0  0.091238  0  3.96726  0  0  0.097953  0  3.984536  0  0  0.04836  0.087104  0  3.955092  0
C  C62  1  0.20861248  0.27954889  0.77073113  1  0  -0.112969  0  3.744104  0  0  -0.124005  0  3.997663  0  0  -0.131246  0  4.019517  0  0  -0.086963  -0.119364  0  3.982567  0
C  C63  1  0.29188780  0.50897777  0.22931376  1  0  -0.113252  0  3.742337  0  0  -0.124221  0  3.995894  0  0  -0.131439  0  4.017826  0  0  -0.086442  -0.119608  0  3.980747  0
C  C64  1  0.79137964  0.72044607  0.22926107  1  0  -0.113147  0  3.74412  0  0  -0.124196  0  3.997724  0  0  -0.131439  0  4.019579  0  0  -0.087005  -0.119555  0  3.982625  0
C  C65  1  0.70811479  0.49101715  0.77068594  1  0  -0.113162  0  3.742355  0  0  -0.124118  0  3.995867  0  0  -0.131335  0  4.0178  0  0  -0.086442  -0.119504  0  3.980719  0
N  N66  1  0.81015661  0.26627670  0.48904385  1  0  -0.286291  0  2.823611  0  0  -0.275965  0  3.093848  0  0  -0.282609  0  3.106875  0  0  -0.188809  -0.271586  0  3.085675  0
N  N67  1  0.69022250  0.77750522  0.51113015  1  0  -0.273963  0  2.832464  0  0  -0.275953  0  3.091652  0  0  -0.282571  0  3.104677  0  0  -0.18894  -0.271602  0  3.083494  0
N  N68  1  0.18983272  0.73372950  0.51095739  1  0  -0.286318  0  2.823598  0  0  -0.275972  0  3.093884  0  0  -0.282609  0  3.10689  0  0  -0.188668  -0.271591  0  3.085709  0
N  N69  1  0.30977829  0.22249276  0.48887502  1  0  -0.273997  0  2.832483  0  0  -0.275966  0  3.09169  0  0  -0.282582  0  3.104709  0  0  -0.188968  -0.271617  0  3.083532  0
N  N70  1  0.69436904  0.30787537  0.42735400  1  0  0.243586  0  3.562288  0  0  0.292155  0  3.840737  0  0  0.288731  0  3.862052  0  0  -0.004196  0.294422  0  3.825974  0
N  N71  1  0.80571902  0.88094645  0.57279091  1  0  0.200614  0  3.620755  0  0  0.291585  0  3.839861  0  0  0.288168  0  3.861187  0  0  -0.004941  0.293842  0  3.825027  0
N  N72  1  0.30562507  0.69213185  0.57264464  1  0  0.243578  0  3.562678  0  0  0.29213  0  3.841149  0  0  0.288709  0  3.862471  0  0  -0.004245  0.294395  0  3.826388  0
N  N73  1  0.19428126  0.11905563  0.42721331  1  0  0.200744  0  3.620669  0  0  0.291743  0  3.839706  0  0  0.28833  0  3.861031  0  0  -0.004881  0.293999  0  3.824872  0
N  N74  1  0.71209296  0.44318562  0.46346635  1  0  -0.098373  0  2.850287  0  0  -0.094401  0  3.142644  0  0  -0.091062  0  3.151298  0  0  -0.064156  -0.096412  0  3.137238  0
N  N75  1  0.78760469  0.98002112  0.53653173  1  0  -0.085973  0  2.861705  0  0  -0.094579  0  3.143394  0  0  -0.091258  0  3.152106  0  0  -0.064215  -0.096588  0  3.137938  0
N  N76  1  0.28789820  0.55682466  0.53653910  1  0  -0.09847  0  2.850502  0  0  -0.094498  0  3.142848  0  0  -0.091162  0  3.151501  0  0  -0.064247  -0.09651  0  3.137442  0
N  N77  1  0.21239410  0.01997892  0.46347145  1  0  -0.086065  0  2.861673  0  0  -0.094681  0  3.143345  0  0  -0.09136  0  3.152053  0  0  -0.064268  -0.096689  0  3.13789  0
N  N78  1  0.84496644  0.49305439  0.55358768  1  0  -0.262946  0  2.916507  0  0  -0.253915  0  3.213411  0  0  -0.260951  0  3.223415  0  0  -0.19455  -0.249183  0  3.207042  0
N  N79  1  0.65478378  0.93955793  0.44635013  1  0  -0.260774  0  2.911878  0  0  -0.252705  0  3.213981  0  0  -0.259741  0  3.224041  0  0  -0.194043  -0.247966  0  3.207577  0
N  N80  1  0.15502273  0.50695078  0.44641629  1  0  -0.262966  0  2.916348  0  0  -0.253889  0  3.213216  0  0  -0.260926  0  3.22322  0  0  -0.194507  -0.249156  0  3.206846  0
N  N81  1  0.34521584  0.06044006  0.55365325  1  0  -0.260811  0  2.9119  0  0  -0.252719  0  3.21404  0  0  -0.259757  0  3.224103  0  0  -0.194074  -0.247981  0  3.207637  0
N  N82  1  0.27247708  0.51852029  0.83193361  1  0  -0.300073  0  3.205604  0  0  -0.232242  0  3.453573  0  0  -0.246774  0  3.469151  0  0  -0.30501  -0.222315  0  3.442575  0
N  N83  1  0.22776149  0.68670220  0.16801058  1  0  -0.300753  0  3.204429  0  0  -0.233043  0  3.452436  0  0  -0.24757  0  3.467995  0  0  -0.305703  -0.223111  0  3.441442  0
N  N84  1  0.72752368  0.48147771  0.16806529  1  0  -0.300096  0  3.205563  0  0  -0.232229  0  3.453501  0  0  -0.246761  0  3.469075  0  0  -0.305034  -0.222303  0  3.442505  0
N  N85  1  0.77224144  0.31329477  0.83199072  1  0  -0.300736  0  3.204366  0  0  -0.232975  0  3.452318  0  0  -0.247501  0  3.467877  0  0  -0.305688  -0.223048  0  3.441329  0
Cl  Cl86  1  0.75000244  0.81948944  0.99973807  1  0  -0.698999  0  0.818214  0  0  -0.654318  0  1.044512  0  0  -0.678866  0  1.013831  0  0  -0.306202  -0.643438  0  1.057193  0
Cl  Cl87  1  0.25000164  0.18050753  0.00026110  1  0  -0.699015  0  0.818249  0  0  -0.654355  0  1.044557  0  0  -0.678899  0  1.013874  0  0  -0.306194  -0.643474  0  1.057239  0
O  O88  1  0.49537221  0.03854628  0.12625967  1  0  -0.784325  0  2.144728  0  0  -0.73409  0  2.411595  0  0  -0.774125  0  2.401452  0  0  -0.411509  -0.715101  0  2.418465  0
O  O89  1  0.00492002  0.91291843  0.87394773  1  0  -0.783456  0  2.146403  0  0  -0.732877  0  2.412347  0  0  -0.772912  0  2.402202  0  0  -0.410713  -0.71391  0  2.419338  0
O  O90  1  0.50464061  0.96146193  0.87374064  1  0  -0.784414  0  2.144394  0  0  -0.734192  0  2.411258  0  0  -0.774252  0  2.401162  0  0  -0.411539  -0.715202  0  2.418128  0
O  O91  1  0.99508153  0.08707754  0.12604355  1  0  -0.783531  0  2.146126  0  0  -0.732944  0  2.412117  0  0  -0.772987  0  2.401977  0  0  -0.41075  -0.713975  0  2.419104  0
O  O92  1  0.72610675  0.16993219  0.19962154  1  0  -0.714884  0  2.014869  0  0  -0.669384  0  2.265585  0  0  -0.703417  0  2.253944  0  0  -0.377877  -0.651809  0  2.271932  0
O  O93  1  0.77369237  0.97043867  0.80046424  1  0  -0.71398  0  2.013312  0  0  -0.668957  0  2.265356  0  0  -0.702977  0  2.253695  0  0  -0.378359  -0.651378  0  2.271679  0
O  O94  1  0.27390210  0.83007296  0.80037844  1  0  -0.714722  0  2.015147  0  0  -0.66926  0  2.265836  0  0  -0.703285  0  2.254192  0  0  -0.377804  -0.651684  0  2.272181  0
O  O95  1  0.22630344  0.02957160  0.19954367  1  0  -0.714031  0  2.0137  0  0  -0.668959  0  2.265713  0  0  -0.702982  0  2.254069  0  0  -0.378316  -0.651379  0  2.272035  0
O  O96  1  0.90688306  0.23925240  0.00295082  1  0  -0.914382  0  1.921862  0  0  -0.859469  0  2.12535  0  0  -0.890019  0  2.089573  0  0  -0.663958  -0.844279  0  2.146662  0
O  O97  1  0.59285115  0.23661101  0.99733554  1  0  -0.913309  0  1.922688  0  0  -0.858431  0  2.125697  0  0  -0.889059  0  2.090087  0  0  -0.663189  -0.843185  0  2.146895  0
O  O98  1  0.09312287  0.76074864  0.99705491  1  0  -0.914326  0  1.921944  0  0  -0.859435  0  2.125382  0  0  -0.889986  0  2.089602  0  0  -0.663993  -0.844256  0  2.14673  0
O  O99  1  0.40715278  0.76338494  0.00266480  1  0  -0.913249  0  1.922712  0  0  -0.858371  0  2.125736  0  0  -0.888996  0  2.090113  0  0  -0.663086  -0.84312  0  2.146934  0
