# generated using pymatgen
data_CdH12C18(SN3)2
_symmetry_space_group_name_H-M   'P 1'
_cell_length_a   5.82610312
_cell_length_b   7.52436392
_cell_length_c   20.13770527
_cell_angle_alpha   89.99860407
_cell_angle_beta   89.99954111
_cell_angle_gamma   93.95082356
_symmetry_Int_Tables_number   1
_chemical_formula_structural   CdH12C18(SN3)2
_chemical_formula_sum   'Cd2 H24 C36 S4 N12'
_cell_volume   880.69318198
_cell_formula_units_Z   2
loop_
 _symmetry_equiv_pos_site_id
 _symmetry_equiv_pos_as_xyz
  1  'x, y, z'
loop_
 _atom_site_type_symbol
 _atom_site_label
 _atom_site_symmetry_multiplicity
 _atom_site_fract_x
 _atom_site_fract_y
 _atom_site_fract_z
 _atom_site_occupancy
 _atom_site_hle17_bader_spin_density
 _atom_site_hle17_ddec_charge
 _atom_site_hle17_ddec_spin_density
 _atom_site_hle17_ddec_sum_bond_order
 _atom_site_hle17_magmom
 _atom_site_hse06_10hf_bader_spin_density
 _atom_site_hse06_10hf_ddec_charge
 _atom_site_hse06_10hf_ddec_spin_density
 _atom_site_hse06_10hf_ddec_sum_bond_order
 _atom_site_hse06_10hf_magmom
 _atom_site_hse06_bader_spin_density
 _atom_site_hse06_ddec_charge
 _atom_site_hse06_ddec_spin_density
 _atom_site_hse06_ddec_sum_bond_order
 _atom_site_hse06_magmom
 _atom_site_pbe_bader_spin_density
 _atom_site_pbe_cm5_charge
 _atom_site_pbe_ddec_charge
 _atom_site_pbe_ddec_spin_density
 _atom_site_pbe_ddec_sum_bond_order
 _atom_site_pbe_magmom
Cd  Cd0  1  0.00000294  0.49998645  0.50000159  1  0  0.961549  0  1.945267  0  0  0.778803  0  2.40804  0  0  0.825699  0  2.371097  0  0  0.724356  0.746174  0  2.43279  0
Cd  Cd1  1  0.00000349  0.00000990  0.99999875  1  0  0.961443  0  1.945464  0  0  0.778682  0  2.408243  0  0  0.825572  0  2.371308  0  0  0.724353  0.746054  0  2.432994  0
H  H2  1  0.28813128  0.67301101  0.77543591  1  0  0.102023  0  0.968766  0  0  0.104371  0  1.04431  0  0  0.108455  0  1.041171  0  0  0.100129  0.101364  0  1.046601  0
H  H3  1  0.71188210  0.82699360  0.27544398  1  0  0.102081  0  0.968755  0  0  0.104449  0  1.044248  0  0  0.10853  0  1.041126  0  0  0.100201  0.101443  0  1.046538  0
H  H4  1  0.71186762  0.32698537  0.22455860  1  0  0.102006  0  0.968814  0  0  0.104367  0  1.044328  0  0  0.108442  0  1.041213  0  0  0.10015  0.101371  0  1.046606  0
H  H5  1  0.28813004  0.17299856  0.72455450  1  0  0.102104  0  0.968682  0  0  0.10445  0  1.044202  0  0  0.108534  0  1.041078  0  0  0.100193  0.101438  0  1.046497  0
H  H6  1  0.56583481  0.38385115  0.59650727  1  0  0.056327  0  0.980678  0  0  0.066046  0  1.045572  0  0  0.066719  0  1.044756  0  0  0.117279  0.065459  0  1.046218  0
H  H7  1  0.43415691  0.11614754  0.09650069  1  0  0.056462  0  0.980572  0  0  0.066099  0  1.045558  0  0  0.066762  0  1.044764  0  0  0.117317  0.065516  0  1.046192  0
H  H8  1  0.43414540  0.61613221  0.40349568  1  0  0.056441  0  0.980706  0  0  0.066052  0  1.045696  0  0  0.066695  0  1.044936  0  0  0.117255  0.065468  0  1.046326  0
H  H9  1  0.56585274  0.88386735  0.90350028  1  0  0.056521  0  0.980549  0  0  0.066103  0  1.045579  0  0  0.066754  0  1.044825  0  0  0.117306  0.065519  0  1.046212  0
H  H10  1  0.20780051  0.60980649  0.65138799  1  0  0.072372  0  0.953637  0  0  0.077902  0  1.027696  0  0  0.080513  0  1.024329  0  0  0.110187  0.075961  0  1.030129  0
H  H11  1  0.79219673  0.89019157  0.15138914  1  0  0.072356  0  0.953738  0  0  0.077871  0  1.027781  0  0  0.080483  0  1.024412  0  0  0.110178  0.075931  0  1.030211  0
H  H12  1  0.79218141  0.39017684  0.34861099  1  0  0.072557  0  0.95384  0  0  0.078081  0  1.027854  0  0  0.080695  0  1.024483  0  0  0.110264  0.076139  0  1.030284  0
H  H13  1  0.20780840  0.10982873  0.84860835  1  0  0.072468  0  0.953864  0  0  0.078047  0  1.027849  0  0  0.080663  0  1.024474  0  0  0.110221  0.076105  0  1.030281  0
H  H14  1  0.50707063  0.38136489  0.82557208  1  0  0.101677  0  0.960153  0  0  0.108599  0  1.029836  0  0  0.111592  0  1.029154  0  0  0.099839  0.106434  0  1.030469  0
H  H15  1  0.49293053  0.11866724  0.32555809  1  0  0.101505  0  0.960273  0  0  0.108415  0  1.029964  0  0  0.111408  0  1.029284  0  0  0.099787  0.10626  0  1.030592  0
H  H16  1  0.49291721  0.61865436  0.17443386  1  0  0.101586  0  0.960089  0  0  0.108471  0  1.029809  0  0  0.111465  0  1.029127  0  0  0.099795  0.106316  0  1.030438  0
H  H17  1  0.50707897  0.88133163  0.67443989  1  0  0.101544  0  0.960238  0  0  0.108458  0  1.029927  0  0  0.111453  0  1.029243  0  0  0.099789  0.1063  0  1.030559  0
H  H18  1  0.15352602  0.63532086  0.89189662  1  0  0.099475  0  0.96601  0  0  0.109235  0  1.027827  0  0  0.111608  0  1.027727  0  0  0.096807  0.107475  0  1.02815  0
H  H19  1  0.84650306  0.86470229  0.39189958  1  0  0.099433  0  0.966245  0  0  0.109208  0  1.028047  0  0  0.111572  0  1.027948  0  0  0.096848  0.107457  0  1.028344  0
H  H20  1  0.84648083  0.36468474  0.10810187  1  0  0.099481  0  0.965997  0  0  0.10925  0  1.027812  0  0  0.111619  0  1.027714  0  0  0.096823  0.107491  0  1.028136  0
H  H21  1  0.15351812  0.13527904  0.60809841  1  0  0.099463  0  0.966116  0  0  0.109254  0  1.027901  0  0  0.111603  0  1.027835  0  0  0.096857  0.107511  0  1.028183  0
H  H22  1  0.77065781  0.48759602  0.91674731  1  0  0.086155  0  0.981627  0  0  0.093664  0  1.049799  0  0  0.095448  0  1.049821  0  0  0.091546  0.092291  0  1.049859  0
H  H23  1  0.22936012  0.01244825  0.41674276  1  0  0.086237  0  0.981603  0  0  0.093754  0  1.049745  0  0  0.095555  0  1.049735  0  0  0.091691  0.092381  0  1.049808  0
H  H24  1  0.22934234  0.51242570  0.08325316  1  0  0.086103  0  0.981509  0  0  0.093646  0  1.049694  0  0  0.095424  0  1.049697  0  0  0.091558  0.092282  0  1.049747  0
H  H25  1  0.77065638  0.98753716  0.58325473  1  0  0.086194  0  0.981595  0  0  0.093754  0  1.049687  0  0  0.095526  0  1.049715  0  0  0.091658  0.092382  0  1.049751  0
C  C26  1  0.97412198  0.54294340  0.73376878  1  0  -0.040522  0  3.789575  0  0  -0.016225  0  4.010019  0  0  -0.024487  0  4.035997  0  0  -0.005209  -0.011178  0  3.992644  0
C  C27  1  0.02585969  0.95706816  0.23376746  1  0  -0.04035  0  3.789587  0  0  -0.016068  0  4.010019  0  0  -0.024329  0  4.035996  0  0  -0.005163  -0.011052  0  3.992695  0
C  C28  1  0.02585605  0.45705067  0.26623319  1  0  -0.040387  0  3.789398  0  0  -0.016159  0  4.009875  0  0  -0.024413  0  4.03585  0  0  -0.005162  -0.011152  0  3.992568  0
C  C29  1  0.97414389  0.04293883  0.76622954  1  0  -0.040479  0  3.789761  0  0  -0.016127  0  4.010071  0  0  -0.02438  0  4.036055  0  0  -0.005177  -0.011096  0  3.99273  0
C  C30  1  0.74956350  0.46280245  0.74805917  1  0  0.221657  0  3.787477  0  0  0.219848  0  4.026272  0  0  0.228663  0  4.046063  0  0  0.115943  0.214211  0  4.01276  0
C  C31  1  0.25042441  0.03721329  0.24805433  1  0  0.221638  0  3.787253  0  0  0.219787  0  4.026165  0  0  0.228604  0  4.045954  0  0  0.115891  0.214161  0  4.012631  0
C  C32  1  0.25041406  0.53720230  0.25194528  1  0  0.221556  0  3.787594  0  0  0.219869  0  4.02629  0  0  0.228678  0  4.046089  0  0  0.115904  0.214244  0  4.012757  0
C  C33  1  0.74958057  0.96279100  0.75194415  1  0  0.221557  0  3.787398  0  0  0.219813  0  4.026111  0  0  0.228607  0  4.045931  0  0  0.115843  0.214171  0  4.012609  0
C  C34  1  0.12004710  0.60582303  0.78621985  1  0  -0.08227  0  3.711608  0  0  -0.103488  0  3.960565  0  0  -0.103596  0  3.981382  0  0  -0.080127  -0.102955  0  3.946411  0
C  C35  1  0.87995335  0.89419296  0.28622158  1  0  -0.082464  0  3.711903  0  0  -0.103698  0  3.960906  0  0  -0.103815  0  3.981717  0  0  -0.080233  -0.103162  0  3.946752  0
C  C36  1  0.87994198  0.39417753  0.21377764  1  0  -0.082288  0  3.711637  0  0  -0.103503  0  3.960633  0  0  -0.103618  0  3.981447  0  0  -0.080136  -0.102968  0  3.946465  0
C  C37  1  0.12005615  0.10580592  0.71377591  1  0  -0.082422  0  3.712002  0  0  -0.103657  0  3.960965  0  0  -0.103776  0  3.98177  0  0  -0.080178  -0.103118  0  3.946818  0
C  C38  1  0.68202983  0.42645366  0.63668015  1  0  0.277438  0  3.742841  0  0  0.230539  0  4.013812  0  0  0.244226  0  4.028488  0  0  0.163816  0.221649  0  4.003606  0
C  C39  1  0.31795618  0.07355311  0.13667609  1  0  0.277322  0  3.743099  0  0  0.230451  0  4.014101  0  0  0.244138  0  4.028778  0  0  0.163804  0.22156  0  4.003899  0
C  C40  1  0.31794726  0.57353242  0.36332280  1  0  0.277277  0  3.743334  0  0  0.230442  0  4.014308  0  0  0.244135  0  4.028967  0  0  0.163909  0.221556  0  4.004094  0
C  C41  1  0.68204864  0.92646453  0.86332240  1  0  0.27725  0  3.743126  0  0  0.230411  0  4.014144  0  0  0.244094  0  4.028813  0  0  0.163861  0.221524  0  4.003933  0
C  C42  1  0.03756633  0.55330565  0.66614597  1  0  0.162361  0  3.657484  0  0  0.120306  0  3.908873  0  0  0.133353  0  3.922111  0  0  0.077696  0.11198  0  3.899557  0
C  C43  1  0.96242851  0.94669817  0.16614446  1  0  0.162288  0  3.657589  0  0  0.120303  0  3.908894  0  0  0.133351  0  3.922132  0  0  0.077677  0.111984  0  3.899568  0
C  C44  1  0.96241590  0.44668035  0.33385500  1  0  0.162256  0  3.657795  0  0  0.120218  0  3.909178  0  0  0.13326  0  3.922415  0  0  0.077791  0.111901  0  3.899849  0
C  C45  1  0.03757802  0.05331944  0.83385254  1  0  0.162302  0  3.657453  0  0  0.120181  0  3.908801  0  0  0.133228  0  3.922034  0  0  0.07773  0.11186  0  3.89948  0
C  C46  1  0.67849345  0.44186237  0.81487778  1  0  -0.146129  0  3.70088  0  0  -0.166331  0  3.952434  0  0  -0.173077  0  3.973639  0  0  -0.088174  -0.16195  0  3.938022  0
C  C47  1  0.32151859  0.05817037  0.31486912  1  0  -0.145707  0  3.700484  0  0  -0.165929  0  3.952109  0  0  -0.172677  0  3.973315  0  0  -0.088039  -0.161562  0  3.937701  0
C  C48  1  0.32149689  0.55814884  0.18512467  1  0  -0.145883  0  3.70058  0  0  -0.166112  0  3.952198  0  0  -0.172857  0  3.973402  0  0  -0.088107  -0.161743  0  3.937791  0
C  C49  1  0.67848919  0.94182853  0.68512937  1  0  -0.145794  0  3.700411  0  0  -0.166069  0  3.952016  0  0  -0.172808  0  3.973222  0  0  -0.088057  -0.161694  0  3.937613  0
C  C50  1  0.04524026  0.58509252  0.85094635  1  0  -0.067537  0  3.731433  0  0  -0.080981  0  3.980833  0  0  -0.086253  0  4.004555  0  0  -0.089505  -0.077645  0  3.964793  0
C  C51  1  0.95477340  0.91491676  0.35094528  1  0  -0.067438  0  3.731655  0  0  -0.080932  0  3.981051  0  0  -0.086195  0  4.00477  0  0  -0.08954  -0.077589  0  3.965006  0
C  C52  1  0.95476581  0.41490641  0.14905462  1  0  -0.067538  0  3.731574  0  0  -0.081002  0  3.980994  0  0  -0.08627  0  4.004712  0  0  -0.089521  -0.077666  0  3.964956  0
C  C53  1  0.04524030  0.08507404  0.64905271  1  0  -0.06745  0  3.731479  0  0  -0.080968  0  3.980897  0  0  -0.08623  0  4.004599  0  0  -0.089587  -0.077625  0  3.964856  0
C  C54  1  0.82540769  0.50133568  0.86513461  1  0  -0.024916  0  3.724644  0  0  -0.040925  0  3.974016  0  0  -0.040167  0  3.996121  0  0  -0.078994  -0.040969  0  3.958796  0
C  C55  1  0.17460996  0.99870367  0.36513265  1  0  -0.025182  0  3.724307  0  0  -0.041133  0  3.9736  0  0  -0.040377  0  3.995718  0  0  -0.079166  -0.041178  0  3.958382  0
C  C56  1  0.17458841  0.49868077  0.13486686  1  0  -0.024971  0  3.724467  0  0  -0.040992  0  3.973816  0  0  -0.040212  0  3.995947  0  0  -0.079053  -0.041045  0  3.958599  0
C  C57  1  0.82540077  0.00129118  0.63486583  1  0  -0.025077  0  3.724083  0  0  -0.041057  0  3.97337  0  0  -0.04028  0  3.995497  0  0  -0.079083  -0.041101  0  3.958152  0
C  C58  1  0.53134440  0.73151926  0.50928445  1  0  0.300895  0  4.013538  0  0  0.276493  0  4.322717  0  0  0.299238  0  4.335518  0  0  0.151598  0.261101  0  4.313571  0
C  C59  1  0.46863461  0.76848089  0.00928801  1  0  0.300954  0  4.013663  0  0  0.276556  0  4.32283  0  0  0.299299  0  4.335631  0  0  0.151613  0.261164  0  4.31369  0
C  C60  1  0.46866073  0.26844232  0.49071851  1  0  0.300776  0  4.013109  0  0  0.276378  0  4.322304  0  0  0.29912  0  4.335113  0  0  0.15147  0.260985  0  4.313161  0
C  C61  1  0.53137193  0.23153672  0.99070998  1  0  0.300754  0  4.013532  0  0  0.276347  0  4.32273  0  0  0.29909  0  4.335532  0  0  0.151493  0.260957  0  4.313594  0
S  S62  1  0.28554049  0.79958707  0.53299800  1  0  -0.303521  0  2.15474  0  0  -0.267069  0  2.484402  0  0  -0.284308  0  2.478461  0  0  -0.112045  -0.25503  0  2.488046  0
S  S63  1  0.71446109  0.70041349  0.03300538  1  0  -0.303598  0  2.154426  0  0  -0.267135  0  2.484064  0  0  -0.284376  0  2.478127  0  0  -0.11204  -0.255091  0  2.487718  0
S  S64  1  0.71446775  0.20038647  0.46700445  1  0  -0.303328  0  2.154579  0  0  -0.266907  0  2.484282  0  0  -0.284146  0  2.47834  0  0  -0.111903  -0.254864  0  2.487925  0
S  S65  1  0.28553361  0.29960565  0.96699310  1  0  -0.303426  0  2.154217  0  0  -0.266986  0  2.483926  0  0  -0.284221  0  2.477967  0  0  -0.111917  -0.254946  0  2.487576  0
N  N66  1  0.89612773  0.49484703  0.61806104  1  0  -0.382799  0  3.217956  0  0  -0.304819  0  3.483313  0  0  -0.328594  0  3.502671  0  0  -0.325642  -0.288814  0  3.4697  0
N  N67  1  0.10387037  0.00515653  0.11805660  1  0  -0.382672  0  3.217896  0  0  -0.304663  0  3.48317  0  0  -0.328436  0  3.50253  0  0  -0.325544  -0.28866  0  3.469557  0
N  N68  1  0.10385949  0.50513755  0.38193745  1  0  -0.382778  0  3.21815  0  0  -0.304741  0  3.483387  0  0  -0.328513  0  3.502745  0  0  -0.32577  -0.288734  0  3.469763  0
N  N69  1  0.89613492  0.99486511  0.88194188  1  0  -0.38268  0  3.217641  0  0  -0.30464  0  3.482911  0  0  -0.328411  0  3.502266  0  0  -0.325641  -0.288635  0  3.46929  0
N  N70  1  0.70948570  0.68491153  0.48974995  1  0  -0.54015  0  2.901062  0  0  -0.483866  0  3.185131  0  0  -0.504665  0  3.189853  0  0  -0.398121  -0.469669  0  3.181693  0
N  N71  1  0.29050727  0.81507995  0.98975177  1  0  -0.540139  0  2.901584  0  0  -0.483842  0  3.185633  0  0  -0.504641  0  3.190361  0  0  -0.398129  -0.469643  0  3.182188  0
N  N72  1  0.29050961  0.31505422  0.51025400  1  0  -0.54024  0  2.90073  0  0  -0.483958  0  3.184826  0  0  -0.504758  0  3.189543  0  0  -0.398187  -0.469765  0  3.181394  0
N  N73  1  0.70950425  0.18493624  0.01024572  1  0  -0.540082  0  2.90164  0  0  -0.483782  0  3.185702  0  0  -0.50458  0  3.190432  0  0  -0.398152  -0.469567  0  3.18222  0
N  N74  1  0.60410801  0.40763492  0.69771661  1  0  -0.373317  0  3.031476  0  0  -0.332697  0  3.296319  0  0  -0.347502  0  3.310074  0  0  -0.309194  -0.322809  0  3.286776  0
N  N75  1  0.39588558  0.09238384  0.19771014  1  0  -0.37346  0  3.031657  0  0  -0.332827  0  3.29652  0  0  -0.347629  0  3.310269  0  0  -0.309299  -0.322941  0  3.286982  0
N  N76  1  0.39586223  0.59236596  0.30228734  1  0  -0.373411  0  3.032048  0  0  -0.332842  0  3.296843  0  0  -0.347639  0  3.310588  0  0  -0.309297  -0.322958  0  3.287298  0
N  N77  1  0.60412407  0.90763105  0.80228884  1  0  -0.37344  0  3.03195  0  0  -0.332845  0  3.296754  0  0  -0.347637  0  3.310508  0  0  -0.309337  -0.322956  0  3.28722  0
