# generated using pymatgen
data_AlH10C16O5F
_symmetry_space_group_name_H-M   'P 1'
_cell_length_a   7.23243784
_cell_length_b   15.29461297
_cell_length_c   15.24161917
_cell_angle_alpha   74.77219234
_cell_angle_beta   74.22019340
_cell_angle_gamma   76.16431780
_symmetry_Int_Tables_number   1
_chemical_formula_structural   AlH10C16O5F
_chemical_formula_sum   'Al2 H20 C32 O10 F2'
_cell_volume   1539.73573653
_cell_formula_units_Z   2
loop_
 _symmetry_equiv_pos_site_id
 _symmetry_equiv_pos_as_xyz
  1  'x, y, z'
loop_
 _atom_site_type_symbol
 _atom_site_label
 _atom_site_symmetry_multiplicity
 _atom_site_fract_x
 _atom_site_fract_y
 _atom_site_fract_z
 _atom_site_occupancy
 _atom_site_pbe_bader_charge
 _atom_site_pbe_bader_spin_density
 _atom_site_pbe_cm5_charge
 _atom_site_pbe_ddec_charge
 _atom_site_pbe_ddec_spin_density
 _atom_site_pbe_ddec_sum_bond_order
 _atom_site_pbe_magmom
Al  Al0  1  0.50019730  0.50102580  0.49842395  1  2.512024  0  0.423855  1.648774  0  2.513947  0
Al  Al1  1  0.99904755  0.50224499  0.49948130  1  2.509901  0  0.42353  1.642819  0  2.508782  0
H  H2  1  0.26202830  0.59217400  0.39639161  1  0.576224  0  0.329511  0.405584  0  0.886708  0
H  H3  1  0.75907025  0.39317750  0.58032426  1  0.59691  0  0.329401  0.405777  0  0.887016  0
H  H4  1  0.89131806  0.76445109  0.52868562  1  0.135995  0  0.119807  0.148248  0  0.980762  0
H  H5  1  0.08448194  0.22059725  0.56160299  1  0.123474  0  0.117147  0.142485  0  0.984739  0
H  H6  1  0.68442731  0.24258214  0.43179975  1  0.097934  0  0.110783  0.119233  0  0.989502  0
H  H7  1  0.76188918  0.07523255  0.43352415  1  0.084172  0  0.104361  0.110349  0  1.000548  0
H  H8  1  0.32228067  0.77477957  0.48482088  1  0.108927  0  0.11026  0.11843  0  0.995363  0
H  H9  1  0.24129515  0.94207833  0.48223615  1  0.093855  0  0.101511  0.109296  0  1.014742  0
H  H10  1  0.80529208  0.53430132  0.77138874  1  0.093878  0  0.107709  0.119794  0  1.000002  0
H  H11  1  0.41772371  0.45315078  0.77046501  1  0.103038  0  0.10828  0.119986  0  1.002505  0
H  H12  1  0.17134784  0.54561366  0.20697432  1  0.08865  0  0.104239  0.112727  0  1.00524  0
H  H13  1  0.61690940  0.46673142  0.24597410  1  0.104119  0  0.107638  0.120031  0  1.002169  0
H  H14  1  0.69676681  0.60529854  0.98769197  1  0.061493  0  0.09978  0.10349  0  0.960473  0
H  H15  1  0.57615193  0.56345423  0.92673074  1  0.048623  0  0.098629  0.106082  0  1.042547  0
H  H16  1  0.38356233  0.39721797  0.01201694  1  0.047512  0  0.099699  0.102228  0  0.971397  0
H  H17  1  0.51372335  0.46505597  0.91252854  1  0.033143  0  0.099856  0.103888  0  1.016332  0
H  H18  1  0.23218320  0.60461939  0.95982222  1  0.022852  0  0.10014  0.104097  0  0.960176  0
H  H19  1  0.38216290  0.56620703  0.03999806  1  0.0392  0  0.098973  0.102457  0  1.051087  0
H  H20  1  0.70000329  0.39774025  0.03406032  1  0.03323  0  0.099449  0.101693  0  0.971885  0
H  H21  1  0.51657128  0.46910772  0.10025435  1  0.053387  0  0.09947  0.103081  0  1.015082  0
C  C22  1  0.84039206  0.50945838  0.33674490  1  1.567587  0  0.26883  0.655964  0  4.058836  0
C  C23  1  0.66448092  0.65900554  0.50298015  1  1.572804  0  0.272729  0.654778  0  4.066289  0
C  C24  1  0.16304276  0.48948510  0.66119261  1  1.55865  0  0.270606  0.65464  0  4.062093  0
C  C25  1  0.33188858  0.34303210  0.49669200  1  1.590877  0  0.271057  0.655485  0  4.061868  0
C  C26  1  0.61195664  0.75894985  0.50568728  1  -0.010706  0  -0.013577  -0.021284  0  3.992411  0
C  C27  1  0.38021450  0.24258651  0.49643905  1  0.063339  0  -0.012293  -0.016333  0  3.994298  0
C  C28  1  0.74829103  0.80294598  0.51874035  1  0.011208  0  -0.092191  -0.219504  0  3.984692  0
C  C29  1  0.69821286  0.89594132  0.51968096  1  0.37388  0  0.099444  0.23979  0  4.030884  0
C  C30  1  0.23376020  0.18921922  0.53401797  1  -0.035085  0  -0.093418  -0.220216  0  3.994059  0
C  C31  1  0.28166158  0.09525684  0.53800345  1  0.42266  0  0.099619  0.243279  0  4.032419  0
C  C32  1  0.57117937  0.20051714  0.46123646  1  -0.033342  0  -0.087791  -0.107774  0  3.994759  0
C  C33  1  0.61400963  0.10658932  0.46320037  1  -0.079291  0  -0.084776  -0.107835  0  3.989655  0
C  C34  1  0.42823507  0.80969656  0.49403000  1  -0.022398  0  -0.085948  -0.103199  0  3.989937  0
C  C35  1  0.38333982  0.90340356  0.49320160  1  -0.010594  0  -0.085907  -0.110132  0  3.979526  0
C  C36  1  0.51737434  0.95018704  0.50577966  1  0.066572  0  -0.01109  -0.019862  0  3.994214  0
C  C37  1  0.47101694  0.05014626  0.50283635  1  0.045515  0  -0.011003  -0.020563  0  3.997614  0
C  C38  1  0.68952348  0.54303537  0.96585578  1  -0.043183  0  -0.161863  -0.214937  0  3.968381  0
C  C39  1  0.37054920  0.46224927  0.95967574  1  -0.015685  0  -0.155592  -0.198156  0  3.940396  0
C  C40  1  0.28459976  0.54411010  0.01090308  1  -0.003034  0  -0.162571  -0.214386  0  3.975598  0
C  C41  1  0.66287687  0.46452956  0.05517582  1  -0.023178  0  -0.155641  -0.197333  0  3.940397  0
C  C42  1  0.92059142  0.51291614  0.81028226  1  0.035184  0  -0.088436  -0.165412  0  3.958941  0
C  C43  1  0.88086180  0.51274501  0.90497050  1  -0.068826  0  -0.011264  0.082734  0  4.018877  0
C  C44  1  0.26745939  0.46631441  0.81010840  1  -0.04726  0  -0.08638  -0.159199  0  3.951687  0
C  C45  1  0.22577322  0.46609652  0.90472562  1  -0.058283  0  -0.009591  0.083003  0  4.004203  0
C  C46  1  0.07188588  0.52282907  0.17878126  1  -0.041314  0  -0.089618  -0.164733  0  3.962545  0
C  C47  1  0.11420987  0.51736144  0.08541102  1  0.01025  0  -0.011149  0.082285  0  4.015319  0
C  C48  1  0.75851989  0.47765571  0.20078130  1  -0.104217  0  -0.088563  -0.163735  0  3.958036  0
C  C49  1  0.80317493  0.47160870  0.10768229  1  0.069829  0  -0.009549  0.081671  0  4.008452  0
C  C50  1  0.11473042  0.48780900  0.76302407  1  -0.067398  0  -0.018627  -0.040182  0  4.006821  0
C  C51  1  0.03160165  0.48519222  0.95250407  1  0.010606  0  -0.008122  -0.020018  0  3.986019  0
C  C52  1  0.89408117  0.50167188  0.23711995  1  -0.038048  0  -0.019443  -0.038488  0  4.007864  0
C  C53  1  0.98449658  0.48780348  0.05152639  1  -0.095927  0  -0.00955  -0.017351  0  3.98198  0
O  O54  1  0.65858044  0.51452993  0.37560841  1  -1.270381  0  -0.240457  -0.611942  0  2.358841  0
O  O55  1  0.84377348  0.62201152  0.49917411  1  -1.260165  0  -0.234332  -0.593806  0  2.341795  0
O  O56  1  0.02158029  0.49515780  0.62357643  1  -1.255113  0  -0.237288  -0.596182  0  2.328192  0
O  O57  1  0.47507671  0.38068785  0.49180935  1  -1.257358  0  -0.234734  -0.598558  0  2.331623  0
O  O58  1  0.34386370  0.48458814  0.62078770  1  -1.271862  0  -0.236262  -0.601435  0  2.359148  0
O  O59  1  0.15203651  0.38050794  0.50328793  1  -1.267008  0  -0.236994  -0.602357  0  2.334954  0
O  O60  1  0.97815134  0.51116817  0.37378749  1  -1.262336  0  -0.240092  -0.603575  0  2.316681  0
O  O61  1  0.52549578  0.62069819  0.50359237  1  -1.257504  0  -0.231791  -0.592076  0  2.343167  0
O  O62  1  0.25052827  0.54792780  0.45539924  1  -1.389044  0  -0.459674  -0.973777  0  2.039026  0
O  O63  1  0.74938972  0.45498545  0.54201727  1  -1.408944  0  -0.459723  -0.973461  0  2.037519  0
F  F64  1  0.83319887  0.93527446  0.53635367  1  -0.637111  0  -0.100411  -0.149285  0  1.35305  0
F  F65  1  0.13597191  0.04529031  0.58031358  1  -0.632909  0  -0.100602  -0.147094  0  1.347393  0
