# generated using pymatgen
data_Cu2H20C33N4O7
_symmetry_space_group_name_H-M   'P 1'
_cell_length_a   9.86896707
_cell_length_b   10.24862926
_cell_length_c   18.43734321
_cell_angle_alpha   83.36968520
_cell_angle_beta   76.12017794
_cell_angle_gamma   61.22064560
_symmetry_Int_Tables_number   1
_chemical_formula_structural   Cu2H20C33N4O7
_chemical_formula_sum   'Cu4 H40 C66 N8 O14'
_cell_volume   1586.74875111
_cell_formula_units_Z   2
loop_
 _symmetry_equiv_pos_site_id
 _symmetry_equiv_pos_as_xyz
  1  'x, y, z'
loop_
 _atom_site_type_symbol
 _atom_site_label
 _atom_site_symmetry_multiplicity
 _atom_site_fract_x
 _atom_site_fract_y
 _atom_site_fract_z
 _atom_site_occupancy
 _atom_site_pbe_bader_charge
 _atom_site_pbe_bader_spin_density
 _atom_site_pbe_cm5_charge
 _atom_site_pbe_ddec_charge
 _atom_site_pbe_ddec_spin_density
 _atom_site_pbe_ddec_sum_bond_order
 _atom_site_pbe_magmom
Cu  Cu0  1  0.17469687  0.92067491  0.67179409  1  1.088748  0.495234  0.741108  0.826648  0.634629  2.353933  0.494
Cu  Cu1  1  0.90461975  0.92068881  0.82821245  1  1.086847  -0.495207  0.741171  0.826712  -0.63466  2.353919  -0.494
Cu  Cu2  1  0.82528572  0.07930616  0.32819766  1  1.088813  -0.495169  0.741158  0.826868  -0.634564  2.354306  -0.494
Cu  Cu3  1  0.09540998  0.07928781  0.17179250  1  1.086896  0.495145  0.741172  0.826741  0.634596  2.354293  0.493
H  H4  1  0.83241255  0.97065213  0.67475116  1  0.151161  0.001982  0.121595  0.103287  0.00095  1.022367  0.001
H  H5  1  0.19695157  0.97063677  0.82525505  1  0.168092  -0.001969  0.121541  0.10313  -0.00095  1.022417  -0.001
H  H6  1  0.16756589  0.02934564  0.32525523  1  0.15108  -0.001981  0.121517  0.102955  -0.00095  1.022466  -0.001
H  H7  1  0.80307640  0.02934542  0.17473675  1  0.167618  0.001969  0.121483  0.102979  0.00095  1.022517  0.001
H  H8  1  0.71208222  0.92739241  0.58024975  1  0.107011  0.000768  0.10819  0.112076  0.000396  0.999624  0.0
H  H9  1  0.36055904  0.92737261  0.91974390  1  0.082135  -0.000779  0.108178  0.112086  -0.000396  0.999584  0.0
H  H10  1  0.28790847  0.07259758  0.41975340  1  0.10721  -0.000767  0.108172  0.112124  -0.000395  0.999615  0.0
H  H11  1  0.63947993  0.07259177  0.08024383  1  0.082308  0.000778  0.108171  0.112135  0.000395  0.999451  0.0
H  H12  1  0.88715441  0.80579499  0.45655962  1  0.145548  0.000155  0.108011  0.117909  0.000105  1.042675  0.0
H  H13  1  0.30705550  0.80578192  0.04342674  1  0.146976  -0.000155  0.107964  0.117791  -0.000105  1.042771  0.0
H  H14  1  0.11282062  0.19421170  0.54344176  1  0.145752  -0.000155  0.107951  0.117766  -0.000105  1.042647  0.0
H  H15  1  0.69297289  0.19420361  0.95656480  1  0.146869  0.000155  0.107901  0.117676  0.000105  1.042809  0.0
H  H16  1  0.16456517  0.68276820  0.37683259  1  0.121397  0.000408  0.114509  0.135724  0.000196  0.983013  0.0
H  H17  1  0.15263755  0.68277857  0.12315791  1  0.107175  -0.000412  0.11458  0.135714  -0.000196  0.983193  0.0
H  H18  1  0.83538167  0.31725518  0.62316375  1  0.121343  -0.000408  0.114574  0.135701  -0.000196  0.983066  0.0
H  H19  1  0.84738418  0.31723702  0.87684611  1  0.10746  0.000411  0.114715  0.135929  0.000196  0.983168  0.0
H  H20  1  0.45085640  0.60450103  0.36101763  1  0.127204  0.000473  0.106914  0.118341  0.000242  1.017407  0.0
H  H21  1  0.94461709  0.60450965  0.13896406  1  0.113348  -0.000477  0.106923  0.118373  -0.000242  1.017259  0.0
H  H22  1  0.54909099  0.39552123  0.63897383  1  0.127839  -0.000473  0.106942  0.118355  -0.000242  1.017444  0.0
H  H23  1  0.05540611  0.39550928  0.86104118  1  0.113093  0.000477  0.106881  0.118333  0.000242  1.017218  0.0
H  H24  1  0.67460862  0.59463433  0.41452171  1  0.127027  5.3e-05  0.11122  0.116202  2.4e-05  1.005708  0.0
H  H25  1  0.73071683  0.59465293  0.08545617  1  0.120314  -5.5e-05  0.111307  0.116432  -2.5e-05  1.005447  0.0
H  H26  1  0.32535748  0.40535677  0.58546664  1  0.126889  -5.3e-05  0.111283  0.116344  -2.4e-05  1.005566  0.0
H  H27  1  0.26929857  0.40534818  0.91455231  1  0.120304  5.4e-05  0.111273  0.116397  2.4e-05  1.00557  0.0
H  H28  1  0.74997036  0.66300303  0.51893971  1  0.108316  0.001022  0.111704  0.118598  0.00051  0.997712  0.0
H  H29  1  0.58698088  0.66302129  0.98104571  1  0.100198  -0.001028  0.111832  0.118767  -0.00051  0.997563  0.0
H  H30  1  0.24999448  0.33699474  0.48104132  1  0.10823  -0.001022  0.111819  0.118848  -0.00051  0.997629  0.0
H  H31  1  0.41304183  0.33697983  0.01896507  1  0.100004  0.001028  0.11184  0.118861  0.00051  0.997518  0.0
H  H32  1  0.53604628  0.80852064  0.62876587  1  0.118568  0.00233  0.127681  0.102176  0.001111  0.974592  0.002
H  H33  1  0.65544529  0.80851462  0.87123330  1  0.104689  -0.002344  0.12772  0.102149  -0.001111  0.974665  -0.002
H  H34  1  0.46395058  0.19148827  0.37122062  1  0.118362  -0.00233  0.127687  0.102135  -0.001111  0.974696  -0.002
H  H35  1  0.34457477  0.19147092  0.12877232  1  0.104427  0.002343  0.1277  0.102139  0.00111  0.974819  0.002
H  H36  1  0.08798571  0.46025136  0.70466118  1  0.134638  -2e-05  0.105144  0.116365  -1.8e-05  1.000754  0.0
H  H37  1  0.45175704  0.46029448  0.79536117  1  0.103203  2e-05  0.105131  0.116327  1.7e-05  1.000781  0.0
H  H38  1  0.91203644  0.53973417  0.29534309  1  0.13421  2e-05  0.105137  0.116378  1.8e-05  1.000661  0.0
H  H39  1  0.54824833  0.53969328  0.20464023  1  0.103241  -2e-05  0.105162  0.11638  -1.7e-05  1.000696  0.0
H  H40  1  0.47719875  0.04560067  0.75003402  1  0.125445  -4e-06  0.104461  0.117599  0.0  1.008993  0.0
H  H41  1  0.52280768  0.95438708  0.24997701  1  0.125606  4e-06  0.104406  0.117469  -0.0  1.009005  0.0
H  H42  1  0.93720051  0.12563767  0.75000676  1  0.623159  0.000271  0.289992  0.374897  1e-06  0.936552  0.0
H  H43  1  0.06280771  0.87435899  0.24999858  1  0.623112  -0.000271  0.289937  0.374836  0.0  0.93665  0.0
C  C44  1  0.90356382  0.91878119  0.62086803  1  0.52811  -0.002488  0.065028  0.131398  -0.00107  3.888833  -0.002
C  C45  1  0.17767191  0.91876298  0.87913510  1  0.519708  0.002477  0.065135  0.131627  0.001069  3.888598  0.002
C  C46  1  0.09642388  0.08122104  0.37913851  1  0.528136  0.002487  0.065229  0.131767  0.001069  3.888812  0.002
C  C47  1  0.82235384  0.08122366  0.12085725  1  0.519589  -0.002476  0.065218  0.131715  -0.001069  3.888874  -0.002
C  C48  1  0.83863368  0.89165588  0.56772299  1  -0.052202  0.00446  -0.083329  -0.130726  0.002946  3.968447  0.004
C  C49  1  0.26972192  0.89165083  0.93227892  1  -0.034938  -0.004459  -0.083278  -0.130672  -0.002946  3.968183  -0.004
C  C50  1  0.16135604  0.10833188  0.43228856  1  -0.052594  -0.004459  -0.083218  -0.130651  -0.002945  3.968159  -0.004
C  C51  1  0.73030681  0.10832357  0.06771220  1  -0.034242  0.004457  -0.083229  -0.130767  0.002945  3.968173  0.004
C  C52  1  0.93390769  0.82392983  0.50033085  1  -0.026485  -0.003636  -0.064205  -0.083994  -0.002309  3.915614  -0.002
C  C53  1  0.24216000  0.82391458  0.99966569  1  -0.056458  0.003642  -0.064198  -0.083977  0.002308  3.915344  0.002
C  C54  1  0.06605071  0.17609132  0.49967282  1  -0.02641  0.003635  -0.064218  -0.083929  0.002308  3.915339  0.002
C  C55  1  0.75786179  0.17608209  0.00033303  1  -0.055816  -0.003642  -0.064137  -0.083769  -0.002308  3.915289  -0.002
C  C56  1  0.09754824  0.77944281  0.48665770  1  -0.041644  0.002236  -0.000146  0.052629  0.001613  3.99655  0.002
C  C57  1  0.12299232  0.77943292  0.01333872  1  0.002422  -0.002236  -9e-05  0.052713  -0.001613  3.997174  -0.002
C  C58  1  0.90240485  0.22058057  0.51333187  1  -0.040254  -0.002233  -4.4e-05  0.052729  -0.001612  3.996935  -0.002
C  C59  1  0.87703171  0.22055929  0.98667355  1  0.00065  0.002235  -0.000232  0.052697  0.001612  3.997186  0.002
C  C60  1  0.20929986  0.70506212  0.42006503  1  -0.023948  0.000914  -0.076117  -0.113214  0.000635  3.935177  0.001
C  C61  1  0.08562154  0.70506135  0.07992229  1  -0.017152  -0.000915  -0.076151  -0.113219  -0.000635  3.936003  -0.001
C  C62  1  0.79067042  0.29494567  0.57992387  1  -0.023801  -0.000913  -0.076093  -0.113194  -0.000634  3.935745  -0.001
C  C63  1  0.91439240  0.29493643  0.92008713  1  -0.015765  0.000913  -0.076267  -0.11372  0.000635  3.936374  0.001
C  C64  1  0.36677064  0.66302546  0.41130317  1  -0.053504  0.000817  -0.081818  -0.119783  0.000568  3.959415  0.001
C  C65  1  0.97017815  0.66303662  0.08868387  1  -0.044009  -0.000814  -0.081798  -0.119657  -0.000568  3.959357  -0.001
C  C66  1  0.63319819  0.33697899  0.58869318  1  -0.054321  -0.000817  -0.081825  -0.119624  -0.000568  3.959489  -0.001
C  C67  1  0.02983585  0.33695893  0.91131429  1  -0.043948  0.000814  -0.081742  -0.119371  0.000568  3.959182  0.001
C  C68  1  0.42512154  0.69523724  0.46741949  1  -0.003498  0.003205  0.000685  0.046749  0.002214  4.007926  0.003
C  C69  1  0.87963440  0.69524407  0.03256169  1  0.005604  -0.003206  0.000494  0.046346  -0.002215  4.008162  -0.003
C  C70  1  0.57486496  0.30476944  0.53256740  1  -0.003608  -0.003205  0.000419  0.046263  -0.002214  4.00843  -0.003
C  C71  1  0.12036874  0.30476484  0.96744136  1  0.00632  0.003206  0.000461  0.04618  0.002215  4.008214  0.003
C  C72  1  0.58539559  0.65513682  0.46313263  1  -0.058754  -0.004448  -0.059332  -0.064252  -0.00289  3.900686  -0.003
C  C73  1  0.75944856  0.65515276  0.03684767  1  -0.064876  0.004453  -0.059577  -0.064654  0.002891  3.901117  0.003
C  C74  1  0.41458407  0.34488768  0.53684803  1  -0.059104  0.004446  -0.059284  -0.064205  0.002889  3.900868  0.003
C  C75  1  0.24054437  0.34486617  0.96315984  1  -0.065737  -0.00445  -0.059403  -0.064406  -0.002889  3.901268  -0.003
C  C76  1  0.62715144  0.69368050  0.52076336  1  -0.023841  0.005311  -0.079977  -0.12753  0.003594  3.975137  0.004
C  C77  1  0.67914639  0.69368826  0.97922078  1  -0.057991  -0.005392  -0.080105  -0.127771  -0.003595  3.975045  -0.004
C  C78  1  0.37281640  0.30632173  0.47922459  1  -0.022907  -0.005311  -0.080288  -0.128196  -0.003594  3.975276  -0.004
C  C79  1  0.32087568  0.30631619  0.02078336  1  -0.056428  0.005388  -0.080187  -0.127998  0.003594  3.975305  0.004
C  C80  1  0.50957379  0.77420491  0.58231840  1  0.47964  -0.002606  0.064295  0.115072  -0.001029  3.919844  -0.002
C  C81  1  0.71623148  0.77421306  0.91767024  1  0.544066  0.00272  0.064409  0.115396  0.00103  3.91923  0.002
C  C82  1  0.49041019  0.22579844  0.41766577  1  0.478775  0.002604  0.064457  0.115435  0.001029  3.919597  0.002
C  C83  1  0.28379964  0.22578583  0.08233310  1  0.542633  -0.002715  0.064456  0.115421  -0.001028  3.919624  -0.002
C  C84  1  0.31575326  0.77313359  0.53230636  1  0.501882  0.000126  0.115316  0.116261  0.000656  4.000907  0.0
C  C85  1  0.91111811  0.77312912  0.96767886  1  0.494948  -0.000132  0.115538  0.116745  -0.000657  4.000999  0.0
C  C86  1  0.68421868  0.22688756  0.46767442  1  0.501988  -0.000129  0.115523  0.116665  -0.000658  4.000743  0.0
C  C87  1  0.08890300  0.22687311  0.03232772  1  0.493793  0.000132  0.115533  0.116753  0.000658  4.000743  0.0
C  C88  1  0.15216248  0.81262415  0.54272955  1  0.451825  0.000571  0.111993  0.111883  0.000847  4.007773  0.001
C  C89  1  0.03521163  0.81261241  0.95726524  1  0.442443  -0.000582  0.111931  0.111594  -0.000847  4.008615  -0.001
C  C90  1  0.84781072  0.18737363  0.45725691  1  0.450678  -0.000571  0.111871  0.111474  -0.000846  4.008612  -0.001
C  C91  1  0.96481853  0.18736756  0.04274703  1  0.442716  0.000581  0.11194  0.111497  0.000847  4.008937  0.001
C  C92  1  0.21113822  0.16269222  0.69227789  1  1.567087  -0.000698  0.192143  0.554056  0.000191  4.242502  -0.002
C  C93  1  0.62616000  0.16273661  0.80775478  1  1.582846  0.000722  0.191983  0.553758  -0.000193  4.243116  0.002
C  C94  1  0.78884023  0.83732226  0.30773394  1  1.566885  0.000696  0.192316  0.554341  -0.000192  4.242156  0.002
C  C95  1  0.37384211  0.83727230  0.19225056  1  1.58337  -0.000722  0.192031  0.553979  0.000193  4.243156  -0.002
C  C96  1  0.27793219  0.24424279  0.72244632  1  -0.04892  0.006649  -0.02447  -0.039359  0.004706  4.004647  0.005
C  C97  1  0.47781488  0.24426691  0.77760126  1  -0.003987  -0.006684  -0.024539  -0.039737  -0.004705  4.005132  -0.005
C  C98  1  0.72207159  0.75576278  0.27756228  1  -0.049528  -0.006644  -0.024501  -0.03951  -0.004703  4.004629  -0.005
C  C99  1  0.52218757  0.75573087  0.22240313  1  -0.003807  0.006679  -0.024476  -0.039704  0.004702  4.004966  0.005
C  C100  1  0.19864269  0.39997515  0.72401688  1  -0.104166  0.00119  -0.08166  -0.12147  0.000791  3.963797  0.001
C  C101  1  0.40140638  0.39999140  0.77600595  1  -0.113079  -0.001211  -0.081894  -0.121597  -0.00079  3.963857  -0.001
C  C102  1  0.80138737  0.60002374  0.27597629  1  -0.103832  -0.001189  -0.081784  -0.121696  -0.00079  3.963555  -0.001
C  C103  1  0.59860253  0.59999969  0.22399533  1  -0.112941  0.001211  -0.08186  -0.121596  0.00079  3.963321  0.001
C  C104  1  0.26091571  0.47819010  0.75001233  1  -0.059153  5e-06  -0.021093  -0.03407  -0.0  3.998038  0.0
C  C105  1  0.73909865  0.52181102  0.24999302  1  -0.059112  -5e-06  -0.021036  -0.033873  0.0  3.997378  0.0
C  C106  1  0.17710645  0.64580190  0.75001006  1  1.645515  -1e-06  0.184447  0.569993  -0.0  4.258672  0.0
C  C107  1  0.82290506  0.35419032  0.25000383  1  1.645061  1e-06  0.184458  0.570007  0.0  4.258471  0.0
C  C108  1  0.41663720  0.16673212  0.75002273  1  -0.032133  -0.0  -0.0836  -0.112822  0.0  3.93188  0.0
C  C109  1  0.58335503  0.83325897  0.24999099  1  -0.031749  1e-06  -0.083518  -0.112589  0.0  3.931841  0.0
N  N110  1  0.05621055  0.88235951  0.60770674  1  -1.205525  0.058206  -0.336008  -0.269367  0.038829  3.606618  0.051
N  N111  1  0.06144193  0.88234816  0.89229847  1  -1.20619  -0.058201  -0.336058  -0.269349  -0.038833  3.606821  -0.051
N  N112  1  0.94377497  0.11766165  0.39227880  1  -1.205157  -0.058175  -0.336082  -0.26932  -0.038807  3.607124  -0.051
N  N113  1  0.93857153  0.11764851  0.10771813  1  -1.206341  0.058169  -0.336042  -0.269164  0.038809  3.607167  0.051
N  N114  1  0.35815402  0.81311996  0.58736062  1  -1.215375  0.07071  -0.339489  -0.258368  0.047069  3.624313  0.061
N  N115  1  0.82874052  0.81312632  0.91262291  1  -1.207144  -0.070719  -0.339622  -0.258556  -0.047072  3.624138  -0.061
N  N116  1  0.64182251  0.18690454  0.41261556  1  -1.215288  -0.070698  -0.339584  -0.258446  -0.047065  3.623853  -0.061
N  N117  1  0.17127279  0.18689150  0.08738421  1  -1.206111  0.070712  -0.339658  -0.258524  0.047068  3.623803  0.061
O  O118  1  0.28188971  0.01943870  0.70173273  1  -1.12948  0.080449  -0.333124  -0.547395  0.051559  2.341739  0.073
O  O119  1  0.69868200  0.01948116  0.79828982  1  -1.132141  -0.080415  -0.333067  -0.547292  -0.051553  2.341782  -0.073
O  O120  1  0.71812124  0.98057132  0.29828062  1  -1.129734  -0.080414  -0.33328  -0.547515  -0.051538  2.342464  -0.073
O  O121  1  0.30131952  0.98052886  0.20169601  1  -1.132423  0.080378  -0.333188  -0.547466  0.051532  2.342327  0.073
O  O122  1  0.09522329  0.23352150  0.66155438  1  -1.192167  -0.00263  -0.335539  -0.577211  -0.001951  2.144544  -0.002
O  O123  1  0.67125559  0.23357598  0.83847069  1  -1.190684  0.002626  -0.335418  -0.576898  0.001951  2.144819  0.002
O  O124  1  0.90477847  0.76648185  0.33844757  1  -1.192092  0.002631  -0.335623  -0.577418  0.001952  2.144207  0.002
O  O125  1  0.32871711  0.76642291  0.16155970  1  -1.190924  -0.002629  -0.335431  -0.576998  -0.001953  2.14483  -0.002
O  O126  1  0.02674276  0.70853004  0.76353349  1  -1.176046  -0.004958  -0.350916  -0.59338  -0.003473  2.229783  -0.005
O  O127  1  0.26472386  0.70854353  0.73647738  1  -1.182438  0.004944  -0.350822  -0.593268  0.003466  2.229836  0.005
O  O128  1  0.97326520  0.29144214  0.23648106  1  -1.175759  0.004951  -0.350887  -0.593363  0.003469  2.229742  0.005
O  O129  1  0.73529354  0.29144311  0.26351929  1  -1.182334  -0.004943  -0.350869  -0.593376  -0.003465  2.22998  -0.005
O  O130  1  0.99146559  0.01710374  0.75000595  1  -1.119357  -0.000269  -0.592843  -0.813904  7e-06  2.322617  0.0
O  O131  1  0.00853846  0.98289292  0.24999451  1  -1.119201  0.000274  -0.592796  -0.813913  -2e-06  2.322856  0.0
