# generated using pymatgen
data_NiH32C26(NO2)4
_symmetry_space_group_name_H-M   'P 1'
_cell_length_a   8.02741404
_cell_length_b   8.93489799
_cell_length_c   10.59733749
_cell_angle_alpha   90.84223636
_cell_angle_beta   74.11186517
_cell_angle_gamma   91.74079264
_symmetry_Int_Tables_number   1
_chemical_formula_structural   NiH32C26(NO2)4
_chemical_formula_sum   'Ni1 H32 C26 N4 O8'
_cell_volume   730.69452719
_cell_formula_units_Z   1
loop_
 _symmetry_equiv_pos_site_id
 _symmetry_equiv_pos_as_xyz
  1  'x, y, z'
loop_
 _atom_site_type_symbol
 _atom_site_label
 _atom_site_symmetry_multiplicity
 _atom_site_fract_x
 _atom_site_fract_y
 _atom_site_fract_z
 _atom_site_occupancy
 _atom_site_hle17_ddec_charge
 _atom_site_hle17_ddec_spin_density
 _atom_site_hle17_ddec_sum_bond_order
 _atom_site_hle17_magmom
 _atom_site_hse06_10hf_ddec_charge
 _atom_site_hse06_10hf_ddec_spin_density
 _atom_site_hse06_10hf_ddec_sum_bond_order
 _atom_site_hse06_10hf_magmom
 _atom_site_hse06_ddec_charge
 _atom_site_hse06_ddec_spin_density
 _atom_site_hse06_ddec_sum_bond_order
 _atom_site_hse06_magmom
 _atom_site_pbe_cm5_charge
 _atom_site_pbe_ddec_charge
 _atom_site_pbe_ddec_spin_density
 _atom_site_pbe_ddec_sum_bond_order
 _atom_site_pbe_magmom
Ni  Ni0  1  0.49999394  0.49999588  0.50000133  1  0.827212  -1.766295  1.962058  -1.518  0.826387  -1.826169  2.342098  -1.639  0.91987  -1.878248  2.272389  -1.725  0.631746  0.754836  -1.779339  2.395972  -1.565
H  H1  1  0.27016872  0.81486695  0.08693807  1  0.385532  8e-06  0.814272  0.0  0.37566  7e-06  0.862374  0.0  0.382994  5e-06  0.85489  0.0  0.339537  0.371145  1e-06  0.866561  0.0
H  H2  1  0.72982926  0.18513758  0.91307015  1  0.385377  1e-05  0.814356  0.0  0.375543  7e-06  0.862421  0.0  0.382877  5e-06  0.854936  0.0  0.339445  0.371024  1e-06  0.866611  0.0
H  H3  1  0.50411577  0.37051133  0.28845287  1  0.357779  0.001083  0.941727  0.001  0.332954  0.000508  1.013613  0.001  0.344807  0.000589  1.002428  0.001  0.283496  0.324244  0.000368  1.022051  0.0
H  H4  1  0.49588874  0.62949886  0.71154366  1  0.357768  0.001083  0.941601  0.001  0.332937  0.000508  1.013502  0.001  0.344786  0.000589  1.002327  0.001  0.283492  0.324227  0.000368  1.021933  0.0
H  H5  1  0.37439603  0.40007469  0.04439336  1  0.106293  3.1e-05  0.956516  0.0  0.111875  3.1e-05  1.023533  0.0  0.11599  2.1e-05  1.019367  0.0  0.100708  0.109341  3.8e-05  1.02537  0.0
H  H6  1  0.62562262  0.59992509  0.95562015  1  0.106327  2.5e-05  0.956436  0.0  0.111848  3.1e-05  1.023522  0.0  0.115964  2.1e-05  1.019351  0.0  0.100649  0.109308  3.8e-05  1.025361  0.0
H  H7  1  0.32058419  0.18403480  0.19701273  1  0.108119  -0.000279  0.974814  0.0  0.118231  -0.000289  1.038121  0.0  0.121924  -0.000193  1.036403  0.0  0.102114  0.115449  -0.000403  1.039688  0.0
H  H8  1  0.67939817  0.81596599  0.80300710  1  0.108264  -0.000278  0.974718  0.0  0.118277  -0.000289  1.038101  0.0  0.12197  -0.000193  1.036394  0.0  0.102213  0.115494  -0.000403  1.039664  0.0
H  H9  1  0.25188971  0.89169655  0.88713738  1  0.107608  8e-06  0.948374  0.0  0.120451  -9e-06  1.004449  0.0  0.123949  -6e-06  1.003095  0.0  0.103996  0.11679  -1.7e-05  1.00757  0.0
H  H10  1  0.74811215  0.10830592  0.11287289  1  0.107645  5e-06  0.948421  0.0  0.120518  -9e-06  1.004453  0.0  0.124025  -6e-06  1.003086  0.0  0.103998  0.116837  -1.7e-05  1.007605  0.0
H  H11  1  0.30777434  0.10922989  0.73445973  1  0.091503  -0.000204  0.960828  0.0  0.103004  -0.000159  1.022552  0.0  0.106121  -0.000104  1.020027  0.0  0.101763  0.100878  -0.000253  1.024157  0.0
H  H12  1  0.69224956  0.89077330  0.26554423  1  0.091687  -0.000205  0.960766  0.0  0.103105  -0.000159  1.022563  0.0  0.106221  -0.000104  1.020035  0.0  0.101833  0.100981  -0.000253  1.024166  0.0
H  H13  1  0.70306927  0.28728405  0.65756193  1  0.097959  4.9e-05  0.946787  0.0  0.107113  -2e-05  1.01051  0.0  0.109885  7e-06  1.007046  0.0  0.134482  0.104989  -4.1e-05  1.013104  0.0
H  H14  1  0.29693515  0.71272624  0.34244122  1  0.097914  5.4e-05  0.946779  0.0  0.107058  -2e-05  1.01053  0.0  0.109831  6e-06  1.007063  0.0  0.134469  0.104938  -4.2e-05  1.01313  0.0
H  H15  1  0.87764540  0.49547193  0.28856940  1  0.105626  -5.1e-05  0.955918  0.0  0.117965  -0.00017  1.009519  0.0  0.120259  -0.000109  1.008441  0.0  0.118453  0.116217  -0.000227  1.010358  -0.001
H  H16  1  0.12235590  0.50450320  0.71141169  1  0.105644  -5.1e-05  0.95598  0.0  0.117883  -0.00017  1.009707  0.0  0.120173  -0.000109  1.008634  0.0  0.11844  0.116133  -0.000227  1.010537  -0.001
H  H17  1  0.15045637  0.34204159  0.33961049  1  0.121059  -0.000389  0.970514  0.0  0.129641  -0.000333  1.03273  0.0  0.132914  -0.000228  1.03069  0.0  0.122632  0.127086  -0.000447  1.034452  0.0
H  H18  1  0.84954063  0.65794709  0.66038846  1  0.121046  -0.000389  0.970695  0.0  0.129626  -0.000333  1.032891  0.0  0.132898  -0.000227  1.030853  0.0  0.122637  0.127065  -0.000447  1.034608  0.0
H  H19  1  0.97160798  0.17086834  0.67902421  1  0.077925  4.9e-05  0.941764  0.0  0.093525  -3e-06  1.004399  0.0  0.095068  -3e-06  1.003163  0.0  0.108692  0.092317  -2e-06  1.005149  0.0
H  H20  1  0.02838872  0.82913833  0.32098048  1  0.077972  2.5e-05  0.941713  0.0  0.093577  -3e-06  1.004341  0.0  0.09512  -3e-06  1.003105  0.0  0.108708  0.092365  -2e-06  1.005091  0.0
H  H21  1  0.17158509  0.24766453  0.57999616  1  0.098993  0.000123  0.939191  0.0  0.109754  0.000102  1.008292  0.0  0.111181  0.000105  1.007509  0.0  0.113393  0.108258  9.1e-05  1.008736  0.0
H  H22  1  0.82841295  0.75233883  0.42000826  1  0.098925  0.000115  0.939261  0.0  0.10972  0.000102  1.008312  0.0  0.111135  0.000105  1.00756  0.0  0.113377  0.108225  9.1e-05  1.008753  0.0
H  H23  1  0.16744373  0.06051246  0.40391958  1  0.071787  -3.3e-05  0.941544  0.0  0.091572  -2.5e-05  1.002763  0.0  0.092254  -1.5e-05  1.003237  0.0  0.093616  0.090897  -3.3e-05  1.00261  0.0
H  H24  1  0.83255817  0.93949217  0.59608501  1  0.071874  -2.4e-05  0.941504  0.0  0.091688  -2.5e-05  1.002654  0.0  0.092371  -1.5e-05  1.003126  0.0  0.093683  0.091014  -3.3e-05  1.002496  0.0
H  H25  1  0.15613081  0.97136408  0.55354386  1  0.070178  -1.4e-05  0.939489  0.0  0.091597  6e-06  0.99701  0.0  0.091823  7e-06  0.998379  0.0  0.094935  0.09123  -1.5e-05  0.996379  0.0
H  H26  1  0.84386715  0.02864047  0.44646530  1  0.070214  -6e-06  0.939596  0.0  0.091603  6e-06  0.997128  0.0  0.091827  7e-06  0.998497  0.0  0.094916  0.091234  -1.5e-05  0.996495  0.0
H  H27  1  0.66041402  0.18405374  0.34265283  1  0.065501  0.000167  0.960787  0.0  0.08152  0.000184  1.029041  0.0  0.081947  0.00017  1.029173  0.0  0.088914  0.080896  0.000159  1.030003  0.0
H  H28  1  0.33958976  0.81594582  0.65731081  1  0.065496  0.000171  0.960893  0.0  0.081535  0.000184  1.029127  0.0  0.081963  0.000171  1.029253  0.0  0.088915  0.080903  0.000159  1.030096  0.0
H  H29  1  0.46586199  0.08871176  0.33075207  1  0.061641  -0.002256  0.96538  -0.003  0.076633  -0.001421  1.038274  -0.002  0.076381  -0.000871  1.038394  -0.001  0.08623  0.077258  -0.002015  1.037583  -0.003
H  H30  1  0.53413782  0.91129548  0.66921048  1  0.061656  -0.002249  0.965103  -0.003  0.076565  -0.001421  1.038126  -0.002  0.076307  -0.000871  1.038257  -0.001  0.086241  0.077192  -0.002015  1.037432  -0.003
H  H31  1  0.48973295  0.14687766  0.48771305  1  0.080971  -0.000175  0.947779  -0.001  0.097837  -8.2e-05  1.015795  -0.001  0.097973  2.7e-05  1.015935  0.0  0.096135  0.098158  -0.000311  1.014989  -0.001
H  H32  1  0.51028014  0.85310100  0.51225152  1  0.080854  -0.000175  0.947979  -0.001  0.097787  -8.2e-05  1.015913  -0.001  0.09793  2.7e-05  1.016044  0.0  0.096138  0.098111  -0.000311  1.015108  -0.001
C  C33  1  0.38769997  0.39553225  0.78391120  1  0.624709  0.005251  3.91594  0.005  0.580589  0.001286  4.219533  0.001  0.617129  0.001123  4.212193  0.001  0.199467  0.555286  0.001467  4.223547  0.001
C  C34  1  0.61230704  0.60447042  0.21609992  1  0.624202  0.005279  3.916072  0.005  0.580196  0.001286  4.219616  0.001  0.616734  0.001126  4.212283  0.001  0.199278  0.554893  0.001468  4.223634  0.001
C  C35  1  0.34260996  0.26896188  0.87922477  1  -0.111933  -0.005169  3.805346  -0.007  -0.095847  -0.002944  4.047805  -0.004  -0.1072  -0.002125  4.071961  -0.003  -0.041086  -0.088495  -0.003757  4.032058  -0.005
C  C36  1  0.65739047  0.73104732  0.12078956  1  -0.111934  -0.005218  3.805394  -0.007  -0.095976  -0.002945  4.047932  -0.004  -0.107327  -0.002128  4.072083  -0.003  -0.04118  -0.088629  -0.003757  4.032194  -0.005
C  C37  1  0.34376696  0.28946753  0.01059968  1  -0.04757  0.001087  3.751849  0.0  -0.070991  0.000165  4.002743  0.0  -0.067113  0.000225  4.020935  0.0  -0.088102  -0.073149  0.000156  3.9899  0.0
C  C38  1  0.65622969  0.71052929  0.98941917  1  -0.047531  0.001172  3.751599  0.0  -0.070859  0.000167  4.002459  0.0  -0.066983  0.000227  4.020657  0.0  -0.088  -0.073011  0.000156  3.989606  0.0
C  C39  1  0.31424130  0.16878375  0.09625121  1  -0.198069  -0.000912  3.731139  -0.001  -0.218002  -0.000428  3.982834  -0.001  -0.226091  -0.000328  4.0035  0.0  -0.109797  -0.212683  -0.000511  3.969295  -0.001
C  C40  1  0.68574624  0.83122272  0.90376192  1  -0.198382  -0.000947  3.730915  -0.001  -0.218168  -0.000429  3.982647  -0.001  -0.226268  -0.00033  4.003304  0.0  -0.110006  -0.212853  -0.000511  3.969103  -0.001
C  C41  1  0.28284341  0.02542620  0.05119724  1  0.337872  0.00183  3.827515  0.001  0.331041  0.000719  4.090259  0.0  0.343733  0.00062  4.106232  0.0  0.08107  0.322406  0.000887  4.079017  0.0
C  C42  1  0.71714288  0.97457468  0.94881898  1  0.33814  0.001872  3.826767  0.001  0.331164  0.000721  4.089695  0.0  0.343877  0.000625  4.105636  0.0  0.081152  0.322534  0.000886  4.078446  0.0
C  C43  1  0.27688833  0.00385060  0.92136697  1  -0.22595  -0.000506  3.790188  -0.001  -0.24557  -0.000113  4.042794  0.0  -0.253778  -0.000131  4.063507  0.0  -0.113049  -0.239838  -0.000128  4.029747  0.0
C  C44  1  0.72311471  0.99615976  0.07864401  1  -0.226163  -0.000528  3.789635  -0.001  -0.245742  -0.000115  4.042256  0.0  -0.253965  -0.000133  4.062954  0.0  -0.113056  -0.239998  -0.000128  4.029235  0.0
C  C45  1  0.30756370  0.12493532  0.83659556  1  -0.040182  0.001747  3.774269  0.001  -0.064099  0.000448  4.024632  0.0  -0.059517  0.000485  4.042695  0.0  -0.088358  -0.067163  0.000475  4.012477  0.0
C  C46  1  0.69244195  0.87506627  0.16342149  1  -0.040261  0.001827  3.773854  0.001  -0.064085  0.000449  4.024245  0.0  -0.059498  0.000492  4.042299  0.0  -0.088414  -0.067152  0.000475  4.012095  0.0
C  C47  1  0.78526934  0.32604004  0.56423204  1  0.144859  0.010825  3.658977  0.006  0.089467  0.004158  3.929701  0.002  0.104325  0.004402  3.943052  0.002  0.136922  0.078456  0.004082  3.921444  0.002
C  C48  1  0.21472751  0.67395984  0.43576790  1  0.144946  0.010793  3.659018  0.006  0.089543  0.004158  3.929774  0.002  0.104399  0.004404  3.943126  0.002  0.136966  0.078523  0.004081  3.92154  0.002
C  C49  1  0.88124055  0.42935730  0.37244898  1  -0.007565  0.003634  3.756387  0.002  -0.039013  0.001548  4.030168  0.001  -0.035475  0.001927  4.04976  0.001  -0.005524  -0.041832  0.001304  4.016694  0.0
C  C50  1  0.11875936  0.57061788  0.62753899  1  -0.00774  0.003613  3.755989  0.002  -0.039125  0.001554  4.0298  0.001  -0.035588  0.001936  4.049399  0.001  -0.005662  -0.041942  0.001307  4.016317  0.0
C  C51  1  0.01617812  0.35262107  0.39452772  1  -0.064631  -0.002768  3.678676  -0.003  -0.104601  -0.001271  3.937122  -0.002  -0.103031  -0.00113  3.954917  -0.001  -0.000102  -0.104654  -0.001473  3.925073  -0.002
C  C52  1  0.98380605  0.64736703  0.60546436  1  -0.064541  -0.002753  3.678475  -0.003  -0.104473  -0.001272  3.936874  -0.002  -0.102901  -0.001132  3.954661  -0.001  -0.000123  -0.104523  -0.001473  3.924811  -0.002
C  C53  1  0.04971487  0.18982597  0.57769172  1  -0.01523  -0.0007  3.618283  -0.001  -0.076803  -0.000456  3.876478  -0.001  -0.07298  -0.000325  3.886911  -0.001  -0.056567  -0.078681  -0.000582  3.868464  -0.001
C  C54  1  0.95027927  0.81018058  0.42231160  1  -0.015107  -0.00066  3.618126  -0.001  -0.07672  -0.000457  3.876376  -0.001  -0.0729  -0.000327  3.886797  -0.001  -0.056542  -0.078593  -0.000583  3.868352  -0.001
C  C55  1  0.08317044  0.04112246  0.50364970  1  -0.121569  0.000134  3.682808  0.0  -0.165069  3.7e-05  3.944997  0.0  -0.166328  3.5e-05  3.959185  0.0  -0.163484  -0.16407  1.6e-05  3.93524  0.0
C  C56  1  0.91682240  0.95888074  0.49635670  1  -0.121817  5.2e-05  3.682942  0.0  -0.165299  3.8e-05  3.945157  0.0  -0.166554  3.8e-05  3.959338  0.0  -0.163574  -0.164293  1.6e-05  3.935393  0.0
C  C57  1  0.51872966  0.17683930  0.38374202  1  -0.034385  0.002263  3.679428  0.002  -0.127311  -0.000194  3.957115  0.0  -0.119444  0.000136  3.963412  0.0  -0.159149  -0.133352  -0.000659  3.952718  0.0
C  C58  1  0.48127278  0.82315807  0.61622754  1  -0.03424  0.002233  3.67929  0.002  -0.127213  -0.000194  3.956965  0.0  -0.119342  0.000134  3.96325  0.0  -0.159138  -0.133249  -0.000658  3.952574  0.0
N  N59  1  0.95337661  0.28855529  0.51646564  1  -0.062053  0.000152  3.607663  -0.001  0.034647  -4.9e-05  3.819175  -0.001  0.020123  8.6e-05  3.846432  -0.001  -0.247674  0.044404  -0.000146  3.80045  -0.001
N  N60  1  0.04662286  0.71144464  0.48353094  1  -0.062086  0.000149  3.607673  -0.001  0.034605  -5.1e-05  3.819229  -0.001  0.020095  8.5e-05  3.846456  -0.001  -0.24763  0.044363  -0.000146  3.800516  -0.001
N  N61  1  0.73804885  0.41287005  0.47935066  1  -0.348758  -0.043968  3.343009  -0.07  -0.312215  -0.028511  3.653756  -0.046  -0.341728  -0.02258  3.67519  -0.039  -0.359381  -0.291578  -0.033199  3.639385  -0.051
N  N62  1  0.26195347  0.58712085  0.52063496  1  -0.348676  -0.043967  3.342914  -0.07  -0.312102  -0.028514  3.653584  -0.046  -0.341619  -0.022585  3.675029  -0.039  -0.35929  -0.29147  -0.033201  3.639226  -0.051
O  O63  1  0.39989164  0.36184113  0.66358051  1  -0.613157  -0.048063  2.084192  -0.082  -0.585892  -0.031183  2.363529  -0.055  -0.623664  -0.022743  2.355595  -0.043  -0.315089  -0.557116  -0.038905  2.367361  -0.065
O  O64  1  0.60009069  0.63816521  0.33643650  1  -0.612802  -0.048084  2.084009  -0.082  -0.585619  -0.031191  2.363316  -0.055  -0.623411  -0.02275  2.355437  -0.043  -0.314951  -0.556842  -0.038914  2.367145  -0.065
O  O65  1  0.41461805  0.52605334  0.82576069  1  -0.615257  0.001751  1.957305  0.001  -0.568193  0.001088  2.174183  0.0  -0.592039  0.001246  2.164178  0.001  -0.330039  -0.551592  0.000819  2.181391  0.0
O  O66  1  0.58542404  0.47394378  0.17424245  1  -0.615077  0.001743  1.957487  0.001  -0.568029  0.001087  2.174317  0.0  -0.591876  0.001244  2.164313  0.001  -0.329933  -0.551423  0.000819  2.181527  0.0
O  O67  1  0.26144226  0.90820602  0.13701821  1  -0.512591  0.000318  2.092468  0.0  -0.470189  0.000172  2.295045  0.0  -0.487168  0.000133  2.28746  0.0  -0.348661  -0.457983  0.000228  2.298791  0.0
O  O68  1  0.73853373  0.09179662  0.86299252  1  -0.512448  0.000326  2.092166  0.0  -0.470067  0.000172  2.294795  0.0  -0.48705  0.000135  2.287196  0.0  -0.348554  -0.457858  0.000228  2.298546  0.0
O  O69  1  0.44105733  0.31696825  0.37530164  1  -0.510654  -0.041872  2.196354  -0.071  -0.464488  -0.029709  2.458758  -0.052  -0.495165  -0.021335  2.452338  -0.039  -0.39636  -0.440949  -0.037292  2.462878  -0.061
O  O70  1  0.55894360  0.68302934  0.62468521  1  -0.510719  -0.041875  2.196318  -0.071  -0.464477  -0.029712  2.458617  -0.052  -0.495154  -0.021337  2.452206  -0.039  -0.396374  -0.440933  -0.037297  2.462721  -0.061
