# generated using pymatgen
data_H13RhC18NO4
_symmetry_space_group_name_H-M   'P 1'
_cell_length_a   10.15667728
_cell_length_b   11.58473771
_cell_length_c   15.59549741
_cell_angle_alpha   94.02003981
_cell_angle_beta   90.00080556
_cell_angle_gamma   90.00047162
_symmetry_Int_Tables_number   1
_chemical_formula_structural   H13RhC18NO4
_chemical_formula_sum   'H52 Rh4 C72 N4 O16'
_cell_volume   1830.48945235
_cell_formula_units_Z   4
loop_
 _symmetry_equiv_pos_site_id
 _symmetry_equiv_pos_as_xyz
  1  'x, y, z'
loop_
 _atom_site_type_symbol
 _atom_site_label
 _atom_site_symmetry_multiplicity
 _atom_site_fract_x
 _atom_site_fract_y
 _atom_site_fract_z
 _atom_site_occupancy
 _atom_site_pbe_bader_spin_density
 _atom_site_pbe_cm5_charge
 _atom_site_pbe_ddec_charge
 _atom_site_pbe_ddec_spin_density
 _atom_site_pbe_ddec_sum_bond_order
 _atom_site_pbe_magmom
H  H0  1  0.32783716  0.65246733  0.76757603  1  0  0.103892  0.103224  0  1.032719  0
H  H1  1  0.17217412  0.15244841  0.26759013  1  0  0.103944  0.103259  0  1.032787  0
H  H2  1  0.67217970  0.34755067  0.23241182  1  0  0.103916  0.10323  0  1.032773  0
H  H3  1  0.82781812  0.84754966  0.73239850  1  0  0.103956  0.103216  0  1.032714  0
H  H4  1  0.34727470  0.73755832  0.91909519  1  0  0.105627  0.110944  0  0.99201  0
H  H5  1  0.15272198  0.23753754  0.41910708  1  0  0.105653  0.110998  0  0.991835  0
H  H6  1  0.65273034  0.26245619  0.08089438  1  0  0.105605  0.110939  0  0.991887  0
H  H7  1  0.84727322  0.76246573  0.58088184  1  0  0.105615  0.110944  0  0.991911  0
H  H8  1  0.56993795  0.77181902  0.98312239  1  0  0.097825  0.090508  0  1.035752  0
H  H9  1  0.93005875  0.27180759  0.48312192  1  0  0.097818  0.090542  0  1.035785  0
H  H10  1  0.43007398  0.22817468  0.01686983  1  0  0.097845  0.090495  0  1.0357  0
H  H11  1  0.06993251  0.72818874  0.51686789  1  0  0.097857  0.090495  0  1.035762  0
H  H12  1  0.76956115  0.73400937  0.89537124  1  0  0.101614  0.105685  0  1.020901  0
H  H13  1  0.73044017  0.23399729  0.39535804  1  0  0.101636  0.105755  0  1.020981  0
H  H14  1  0.23045275  0.26598597  0.10463005  1  0  0.101704  0.105886  0  1.020828  0
H  H15  1  0.26955011  0.76599208  0.60463521  1  0  0.101665  0.105768  0  1.020841  0
H  H16  1  0.74874717  0.64856978  0.74341252  1  0  0.102202  0.101794  0  1.029293  0
H  H17  1  0.75126972  0.14856222  0.24339785  1  0  0.10218  0.10179  0  1.029282  0
H  H18  1  0.25128446  0.35143425  0.25658542  1  0  0.102188  0.101813  0  1.029384  0
H  H19  1  0.24871760  0.85143583  0.75659334  1  0  0.102193  0.101794  0  1.029326  0
H  H20  1  0.23206568  0.81541806  0.42880991  1  0  0.10284  0.10482  0  1.020968  0
H  H21  1  0.26793194  0.31541529  0.92880307  1  0  0.102832  0.104753  0  1.021105  0
H  H22  1  0.76790490  0.18459101  0.57120372  1  0  0.102784  0.104682  0  1.021012  0
H  H23  1  0.73208787  0.68458520  0.07120237  1  0  0.10278  0.104679  0  1.021039  0
H  H24  1  0.19388860  0.01635614  0.38833206  1  0  0.096942  0.094297  0  1.036308  0
H  H25  1  0.30611913  0.51635485  0.88832814  1  0  0.096924  0.094233  0  1.036235  0
H  H26  1  0.80607410  0.98365461  0.61168552  1  0  0.096903  0.094242  0  1.036308  0
H  H27  1  0.69392628  0.48364815  0.11168578  1  0  0.096882  0.094241  0  1.036311  0
H  H28  1  0.38503107  0.14174769  0.35574532  1  0  0.10036  0.097892  0  1.011236  0
H  H29  1  0.11497417  0.64175420  0.85575553  1  0  0.100326  0.097925  0  1.011224  0
H  H30  1  0.61493460  0.85824165  0.64424985  1  0  0.10043  0.098059  0  1.011125  0
H  H31  1  0.88506238  0.35823677  0.14424936  1  0  0.100397  0.098024  0  1.01109  0
H  H32  1  0.61308373  0.06427429  0.36445598  1  0  0.098357  0.094455  0  1.034148  0
H  H33  1  0.88692420  0.56428051  0.86446028  1  0  0.098345  0.0944  0  1.034167  0
H  H34  1  0.38687898  0.93570993  0.63553248  1  0  0.09841  0.094537  0  1.033949  0
H  H35  1  0.11311925  0.43571147  0.13553120  1  0  0.098405  0.094542  0  1.03394  0
H  H36  1  0.64983515  0.86307047  0.40549619  1  0  0.105718  0.110086  0  0.996443  0
H  H37  1  0.85015972  0.36307700  0.90549383  1  0  0.105682  0.110086  0  0.996415  0
H  H38  1  0.35013150  0.13691193  0.59450050  1  0  0.105753  0.110173  0  0.996556  0
H  H39  1  0.14986994  0.63691669  0.09450032  1  0  0.105727  0.110162  0  0.99644  0
H  H40  1  0.22362557  0.41816115  0.65586215  1  0  0.120482  0.094639  0  0.990352  0
H  H41  1  0.27637195  0.91816344  0.15586616  1  0  0.120526  0.094691  0  0.990504  0
H  H42  1  0.77637554  0.58186180  0.34414843  1  0  0.120535  0.094617  0  0.990337  0
H  H43  1  0.72361143  0.08187753  0.84415893  1  0  0.120531  0.094587  0  0.990413  0
H  H44  1  0.99483211  0.40876066  0.71345650  1  0  0.105773  0.113362  0  1.018387  0
H  H45  1  0.50515799  0.90875552  0.21346022  1  0  0.105707  0.113303  0  1.018434  0
H  H46  1  0.00516604  0.59125980  0.28654432  1  0  0.105722  0.113266  0  1.018302  0
H  H47  1  0.49481751  0.09125613  0.78655485  1  0  0.105659  0.113229  0  1.018267  0
H  H48  1  0.80504290  0.46347905  0.62016391  1  0  0.114493  0.131387  0  1.020278  0
H  H49  1  0.69495059  0.96346590  0.12017271  1  0  0.114506  0.131455  0  1.020331  0
H  H50  1  0.19495722  0.53653280  0.37983192  1  0  0.114481  0.131366  0  1.02046  0
H  H51  1  0.30503870  0.03651463  0.87983734  1  0  0.114482  0.131393  0  1.020453  0
Rh  Rh52  1  0.38224607  0.48960459  0.51058680  1  0  0.633397  0.535306  0  3.745839  0
Rh  Rh53  1  0.11775189  0.98960561  0.01058739  1  0  0.633382  0.53516  0  3.746004  0
Rh  Rh54  1  0.61774716  0.51039601  0.48940775  1  0  0.633276  0.535041  0  3.745943  0
Rh  Rh55  1  0.88225118  0.01039496  0.98941036  1  0  0.633237  0.535134  0  3.745683  0
C  C56  1  0.52366252  0.59365992  0.65760353  1  0  0.212381  0.532509  0  4.131991  0
C  C57  1  0.97634706  0.09365756  0.15760015  1  0  0.212447  0.532647  0  4.13194  0
C  C58  1  0.47635335  0.40634153  0.34239363  1  0  0.212339  0.532531  0  4.132369  0
C  C59  1  0.02364420  0.90633960  0.84239291  1  0  0.212294  0.532398  0  4.132518  0
C  C60  1  0.53683537  0.64493511  0.74722995  1  0  -0.022643  -0.040926  0  4.003078  0
C  C61  1  0.96317763  0.14493263  0.24722773  1  0  -0.022692  -0.041009  0  4.002818  0
C  C62  1  0.46318740  0.35506892  0.25276800  1  0  -0.022724  -0.041148  0  4.002727  0
C  C63  1  0.03680871  0.85506800  0.75276489  1  0  -0.022783  -0.041388  0  4.003042  0
C  C64  1  0.42380792  0.67031850  0.79660886  1  0  -0.086378  -0.100006  0  3.97556  0
C  C65  1  0.07620613  0.17031103  0.29661122  1  0  -0.086416  -0.100045  0  3.975364  0
C  C66  1  0.57621484  0.32968817  0.20338604  1  0  -0.086346  -0.099926  0  3.975114  0
C  C67  1  0.92378710  0.82968703  0.70337805  1  0  -0.086327  -0.099705  0  3.975052  0
C  C68  1  0.43544476  0.71671068  0.88115163  1  0  -0.092073  -0.091556  0  4.004732  0
C  C69  1  0.06455287  0.21670659  0.38115343  1  0  -0.092136  -0.091621  0  4.004793  0
C  C70  1  0.56456521  0.28328126  0.11884434  1  0  -0.092036  -0.091562  0  4.004493  0
C  C71  1  0.93543839  0.78328889  0.61883504  1  0  -0.092133  -0.091682  0  4.004691  0
C  C72  1  0.56025575  0.73694130  0.91678405  1  0  -0.085849  -0.066316  0  3.984759  0
C  C73  1  0.93974804  0.23693258  0.41678062  1  0  -0.085801  -0.066325  0  3.984941  0
C  C74  1  0.43976013  0.26304977  0.08321186  1  0  -0.085958  -0.06632  0  3.984719  0
C  C75  1  0.06024519  0.76306032  0.58320578  1  0  -0.085988  -0.066506  0  3.985043  0
C  C76  1  0.67325662  0.71393197  0.86741245  1  0  -0.091725  -0.083487  0  3.994489  0
C  C77  1  0.82674292  0.21393107  0.36739948  1  0  -0.091717  -0.083565  0  3.994423  0
C  C78  1  0.32676417  0.28605381  0.13259214  1  0  -0.09173  -0.083685  0  3.994474  0
C  C79  1  0.17323554  0.78605744  0.63259244  1  0  -0.09165  -0.08333  0  3.994281  0
C  C80  1  0.66185411  0.66767182  0.78282988  1  0  -0.08711  -0.102861  0  3.974686  0
C  C81  1  0.83816185  0.16767444  0.28282042  1  0  -0.087112  -0.102842  0  3.974631  0
C  C82  1  0.33816668  0.33231655  0.21717550  1  0  -0.087115  -0.102828  0  3.974663  0
C  C83  1  0.16183138  0.83231400  0.71717791  1  0  -0.087079  -0.102784  0  3.974461  0
C  C84  1  0.46460500  0.70775036  0.44606709  1  0  0.212686  0.53362  0  4.128128  0
C  C85  1  0.03540184  0.20775082  0.94606412  1  0  0.212699  0.533693  0  4.12797  0
C  C86  1  0.53538527  0.29224586  0.55393361  1  0  0.212466  0.533308  0  4.128074  0
C  C87  1  0.96461896  0.79224456  0.05393333  1  0  0.212557  0.533457  0  4.127967  0
C  C88  1  0.44306574  0.82677904  0.41900321  1  0  -0.022197  -0.042667  0  4.00605  0
C  C89  1  0.05693178  0.32677712  0.91899709  1  0  -0.022093  -0.042562  0  4.005917  0
C  C90  1  0.55690583  0.17322141  0.58100671  1  0  -0.021914  -0.042267  0  4.005937  0
C  C91  1  0.94309197  0.67321908  0.08100554  1  0  -0.021997  -0.042406  0  4.006131  0
C  C92  1  0.31471879  0.87041339  0.41402825  1  0  -0.0854  -0.095553  0  3.970144  0
C  C93  1  0.18527803  0.37040733  0.91402304  1  0  -0.085438  -0.095443  0  3.970016  0
C  C94  1  0.68524588  0.12958437  0.58598985  1  0  -0.085622  -0.095775  0  3.970454  0
C  C95  1  0.81475261  0.62958619  0.08598713  1  0  -0.085612  -0.095712  0  3.970589  0
C  C96  1  0.29397902  0.98310957  0.39134151  1  0  -0.094119  -0.0889  0  4.013854  0
C  C97  1  0.20602525  0.48310543  0.89133531  1  0  -0.094077  -0.088861  0  4.013496  0
C  C98  1  0.70599452  0.01689259  0.60866916  1  0  -0.093926  -0.088606  0  4.013554  0
C  C99  1  0.79400638  0.51689504  0.10867270  1  0  -0.093923  -0.088698  0  4.013649  0
C  C100  1  0.40103313  0.05327047  0.37324264  1  0  -0.083609  -0.067566  0  3.981098  0
C  C101  1  0.09897167  0.55327346  0.87324545  1  0  -0.083575  -0.067638  0  3.981079  0
C  C102  1  0.59893450  0.94672319  0.62675342  1  0  -0.083599  -0.067724  0  3.981056  0
C  C103  1  0.90106587  0.44672278  0.12675269  1  0  -0.08355  -0.067644  0  3.98115  0
C  C104  1  0.52914180  0.00998833  0.37799112  1  0  -0.091408  -0.088674  0  4.017237  0
C  C105  1  0.97086099  0.50998919  0.87799458  1  0  -0.091431  -0.088613  0  4.017471  0
C  C106  1  0.47082386  0.99000541  0.62199789  1  0  -0.091528  -0.088783  0  4.017439  0
C  C107  1  0.02917457  0.49000192  0.12199749  1  0  -0.091509  -0.088748  0  4.017391  0
C  C108  1  0.55042479  0.89728680  0.40072303  1  0  -0.081792  -0.092559  0  3.967133  0
C  C109  1  0.94957521  0.39728894  0.90072194  1  0  -0.081761  -0.092614  0  3.967333  0
C  C110  1  0.44954678  0.10270940  0.59927896  1  0  -0.081917  -0.09279  0  3.967643  0
C  C111  1  0.05044755  0.60270731  0.09927556  1  0  -0.081864  -0.092766  0  3.967561  0
C  C112  1  0.13973954  0.43982573  0.61643151  1  0  0.056205  0.100541  0  3.927144  0
C  C113  1  0.36025634  0.93981834  0.11643443  1  0  0.05615  0.100497  0  3.927288  0
C  C114  1  0.86027240  0.56018948  0.38357478  1  0  0.056132  0.100537  0  3.926967  0
C  C115  1  0.63971621  0.06019670  0.88358788  1  0  0.056064  0.100652  0  3.927003  0
C  C116  1  0.01054013  0.43485476  0.64850534  1  0  -0.085023  -0.121989  0  3.992176  0
C  C117  1  0.48945148  0.93484587  0.14850549  1  0  -0.084983  -0.121967  0  3.992056  0
C  C118  1  0.98945704  0.56516472  0.35150633  1  0  -0.084869  -0.121743  0  3.99202  0
C  C119  1  0.51052994  0.06516144  0.85151061  1  0  -0.084801  -0.121766  0  3.991695  0
C  C120  1  0.90645476  0.46490096  0.59785622  1  0  -0.066235  -0.111626  0  3.923001  0
C  C121  1  0.59354810  0.96488619  0.09785760  1  0  -0.066227  -0.111727  0  3.923072  0
C  C122  1  0.09356604  0.53511425  0.40214943  1  0  -0.066319  -0.111749  0  3.923363  0
C  C123  1  0.40642839  0.03509953  0.90215340  1  0  -0.066273  -0.11168  0  3.923083  0
C  C124  1  0.06704237  0.50119192  0.48579182  1  0  0.113258  0.144219  0  3.98927  0
C  C125  1  0.43295160  0.00118778  0.98579856  1  0  0.11321  0.143989  0  3.989535  0
C  C126  1  0.93296366  0.49881741  0.51419681  1  0  0.113427  0.144429  0  3.989516  0
C  C127  1  0.56702981  0.99880837  0.01420855  1  0  0.113503  0.144717  0  3.989893  0
N  N128  1  0.16851497  0.47213990  0.53835871  1  0  -0.321684  -0.216555  0  3.504709  0
N  N129  1  0.33147752  0.97214093  0.03836186  1  0  -0.32165  -0.216383  0  3.504664  0
N  N130  1  0.83150976  0.52785967  0.46165180  1  0  -0.32174  -0.21656  0  3.504866  0
N  N131  1  0.66848617  0.02785937  0.96166152  1  0  -0.321751  -0.216851  0  3.505143  0
O  O132  1  0.40797663  0.56277572  0.63226925  1  0  -0.294406  -0.442919  0  2.469341  0
O  O133  1  0.09202593  0.06277624  0.13226644  1  0  -0.294436  -0.442934  0  2.469632  0
O  O134  1  0.59202842  0.43724308  0.36772378  1  0  -0.294435  -0.442924  0  2.469765  0
O  O135  1  0.90797025  0.93723655  0.86772304  1  0  -0.294419  -0.442866  0  2.469512  0
O  O136  1  0.62907637  0.58416541  0.61222834  1  0  -0.297775  -0.450156  0  2.468099  0
O  O137  1  0.87092523  0.08416734  0.11222811  1  0  -0.297793  -0.450234  0  2.468044  0
O  O138  1  0.37093359  0.41582314  0.38776038  1  0  -0.297681  -0.450059  0  2.467989  0
O  O139  1  0.12906111  0.91582208  0.88776066  1  0  -0.297628  -0.449922  0  2.468132  0
O  O140  1  0.36197791  0.65152808  0.46744577  1  0  -0.296739  -0.450569  0  2.464099  0
O  O141  1  0.13802494  0.15152851  0.96744436  1  0  -0.296725  -0.450549  0  2.464069  0
O  O142  1  0.63800547  0.34846479  0.53254384  1  0  -0.296652  -0.450453  0  2.464106  0
O  O143  1  0.86199389  0.84846175  0.03254574  1  0  -0.296644  -0.450473  0  2.464009  0
O  O144  1  0.58346950  0.67042834  0.44709206  1  0  -0.297875  -0.444326  0  2.442201  0
O  O145  1  0.91653236  0.17042932  0.94709317  1  0  -0.297883  -0.444418  0  2.442047  0
O  O146  1  0.41651684  0.32957651  0.55291043  1  0  -0.297815  -0.444287  0  2.442094  0
O  O147  1  0.08348450  0.82957209  0.05290719  1  0  -0.297895  -0.444364  0  2.442148  0
