# generated using pymatgen
data_Zn4H4C24S4Br4O13
_symmetry_space_group_name_H-M   'P 1'
_cell_length_a   19.77911954
_cell_length_b   19.78765089
_cell_length_c   33.63967048
_cell_angle_alpha   78.57195347
_cell_angle_beta   78.59860137
_cell_angle_gamma   63.56620761
_symmetry_Int_Tables_number   1
_chemical_formula_structural   Zn4H4C24S4Br4O13
_chemical_formula_sum   'Zn16 H16 C96 S16 Br16 O52'
_cell_volume   11465.48048680
_cell_formula_units_Z   4
loop_
 _symmetry_equiv_pos_site_id
 _symmetry_equiv_pos_as_xyz
  1  'x, y, z'
loop_
 _atom_site_type_symbol
 _atom_site_label
 _atom_site_symmetry_multiplicity
 _atom_site_fract_x
 _atom_site_fract_y
 _atom_site_fract_z
 _atom_site_occupancy
 _atom_site_pbe_bader_charge
 _atom_site_pbe_bader_spin_density
 _atom_site_pbe_cm5_charge
 _atom_site_pbe_ddec_charge
 _atom_site_pbe_ddec_spin_density
 _atom_site_pbe_ddec_sum_bond_order
 _atom_site_pbe_magmom
Zn  Zn0  1  0.05622684  0.40131164  0.47879182  1  1.319233  0  0.674845  0.977022  0  2.362115  0
Zn  Zn1  1  0.98259517  0.48248747  0.55988774  1  1.318156  0  0.673478  0.969783  0  2.367669  0
Zn  Zn2  1  0.05990161  0.55996375  0.48246263  1  1.32151  0  0.674639  0.97431  0  2.363311  0
Zn  Zn3  1  0.90131843  0.55605161  0.47881672  1  1.318877  0  0.674431  0.973857  0  2.363262  0
Zn  Zn4  1  0.69371543  0.34869709  0.27119680  1  1.320244  0  0.674615  0.977016  0  2.361267  0
Zn  Zn5  1  0.69008131  0.19005476  0.26748678  1  1.320547  0  0.674479  0.974409  0  2.362704  0
Zn  Zn6  1  0.76752342  0.26748664  0.19007558  1  1.319178  0  0.674352  0.974087  0  2.363173  0
Zn  Zn7  1  0.84859721  0.19391212  0.27124166  1  1.31826  0  0.674045  0.970794  0  2.365264  0
Zn  Zn8  1  0.26743124  0.76752060  0.69010802  1  1.317814  0  0.67369  0.970155  0  2.366936  0
Zn  Zn9  1  0.34868538  0.69388372  0.77120511  1  1.319101  0  0.674451  0.97425  0  2.362745  0
Zn  Zn10  1  0.19372854  0.84866827  0.77122987  1  1.320174  0  0.674775  0.977131  0  2.361335  0
Zn  Zn11  1  0.19009879  0.69004561  0.76752670  1  1.32138  0  0.674446  0.974489  0  2.362313  0
Zn  Zn12  1  0.55991931  0.05995514  0.98250292  1  1.320856  0  0.674388  0.974195  0  2.363749  0
Zn  Zn13  1  0.40142123  0.05602315  0.97876239  1  1.318414  0  0.674137  0.970834  0  2.366269  0
Zn  Zn14  1  0.55624280  0.90128059  0.97882271  1  1.319308  0  0.674756  0.977168  0  2.361987  0
Zn  Zn15  1  0.48250567  0.98252830  0.05991457  1  1.319903  0  0.674281  0.973832  0  2.363802  0
H  H16  1  0.28630280  0.51000066  0.40924875  1  0.136658  0  0.121291  0.147731  0  0.969799  0
H  H17  1  0.46364494  0.24005212  0.34073762  1  0.138011  0  0.121307  0.147697  0  0.96975  0
H  H18  1  0.77115964  0.54750246  0.64820819  1  0.117664  0  0.121196  0.147573  0  0.970957  0
H  H19  1  0.47889273  0.70253175  0.60178831  1  0.11833  0  0.121135  0.147523  0  0.970659  0
H  H20  1  0.04754952  0.27109409  0.64816796  1  0.119668  0  0.120968  0.147107  0  0.971482  0
H  H21  1  0.20250059  0.97894887  0.60182518  1  0.118596  0  0.120897  0.146883  0  0.971412  0
H  H22  1  0.80137401  0.77922515  0.40219721  1  0.139268  0  0.121118  0.146965  0  0.969172  0
H  H23  1  0.94853668  0.97078125  0.34785559  1  0.140117  0  0.120631  0.146511  0  0.970045  0
H  H24  1  0.70254578  0.47894759  0.10182167  1  0.118018  0  0.121176  0.147325  0  0.970874  0
H  H25  1  0.54749447  0.77110070  0.14817095  1  0.118863  0  0.121305  0.147583  0  0.970946  0
H  H26  1  0.08664992  0.10894610  0.20964293  1  0.131793  0  0.120813  0.146597  0  0.970858  0
H  H27  1  0.16331446  0.14103355  0.04033896  1  0.129976  0  0.120839  0.146663  0  0.970933  0
H  H28  1  0.44857032  0.47078030  0.84783502  1  0.140236  0  0.120994  0.146934  0  0.969314  0
H  H29  1  0.30141107  0.27922173  0.90217683  1  0.139382  0  0.120624  0.146439  0  0.969887  0
H  H30  1  0.96363944  0.74005261  0.84074391  1  0.137567  0  0.121194  0.147592  0  0.969955  0
H  H31  1  0.78629526  0.01000318  0.90925553  1  0.137181  0  0.121317  0.147807  0  0.969568  0
C  C32  1  0.06128912  0.31592652  0.56169129  1  1.564605  0  0.217363  0.609859  0  4.21871  0
C  C33  1  0.06845609  0.56852897  0.56846760  1  1.594164  0  0.228414  0.625442  0  4.124158  0
C  C34  1  0.18429517  0.43903147  0.43858395  1  1.565057  0  0.217416  0.610125  0  4.217042  0
C  C35  1  0.93806754  0.68427197  0.43856787  1  1.540345  0  0.218127  0.610411  0  4.215818  0
C  C36  1  0.93148852  0.43146210  0.43156111  1  1.635032  0  0.228746  0.626886  0  4.126115  0
C  C37  1  0.81592771  0.56126678  0.56170634  1  1.564739  0  0.217531  0.609879  0  4.218724  0
C  C38  1  0.56566188  0.31102257  0.31143365  1  1.566467  0  0.217514  0.610467  0  4.215981  0
C  C39  1  0.68161245  0.18146823  0.18149816  1  1.598842  0  0.228692  0.626228  0  4.124304  0
C  C40  1  0.68881388  0.43409442  0.18833131  1  1.563225  0  0.217543  0.609974  0  4.219862  0
C  C41  1  0.93456627  0.18837483  0.18876865  1  1.524927  0  0.21798  0.61196  0  4.214556  0
C  C42  1  0.81845965  0.31849227  0.31848429  1  1.633605  0  0.22858  0.627317  0  4.125508  0
C  C43  1  0.81190352  0.06566626  0.31146698  1  1.54163  0  0.218282  0.611404  0  4.213999  0
C  C44  1  0.43411130  0.68878765  0.68831110  1  1.563827  0  0.217608  0.610536  0  4.219044  0
C  C45  1  0.31846922  0.81849360  0.81846179  1  1.635603  0  0.2286  0.626712  0  4.126436  0
C  C46  1  0.18878754  0.93409515  0.68832416  1  1.563716  0  0.21759  0.610471  0  4.219307  0
C  C47  1  0.06564064  0.81102425  0.81142642  1  1.566976  0  0.217421  0.61042  0  4.216348  0
C  C48  1  0.18158075  0.68149731  0.68150094  1  1.599322  0  0.228805  0.626054  0  4.124459  0
C  C49  1  0.31191937  0.56566499  0.81144139  1  1.538957  0  0.218078  0.611305  0  4.214276  0
C  C50  1  0.43808471  0.18427746  0.93854574  1  1.541618  0  0.218579  0.611415  0  4.215384  0
C  C51  1  0.43150554  0.93144847  0.93153796  1  1.634484  0  0.228959  0.627337  0  4.125782  0
C  C52  1  0.68427165  0.93903513  0.93857554  1  1.566354  0  0.217539  0.610566  0  4.216433  0
C  C53  1  0.56125573  0.81593137  0.06168642  1  1.563106  0  0.217681  0.609932  0  4.218202  0
C  C54  1  0.56842902  0.06855645  0.06846773  1  1.593982  0  0.228189  0.625639  0  4.124559  0
C  C55  1  0.31545434  0.06169329  0.06121732  1  1.524463  0  0.217287  0.610347  0  4.215394  0
C  C56  1  0.90252607  0.40249518  0.40249994  1  0.00788  0  -0.014499  -0.095878  0  3.842771  0
C  C57  1  0.84749116  0.34754516  0.34746578  1  0.007459  0  -0.014199  -0.095347  0  3.842551  0
C  C58  1  0.83022064  0.44660492  0.38840454  1  -0.002974  0  -0.014741  0.048672  0  3.874098  0
C  C59  1  0.91978687  0.30344151  0.36156516  1  -0.006893  0  -0.014949  0.04895  0  3.873407  0
C  C60  1  0.80335301  0.41981649  0.36154235  1  -0.008198  0  -0.014769  0.048048  0  3.874939  0
C  C61  1  0.94668308  0.33024616  0.38839948  1  -0.004066  0  -0.014572  0.048194  0  3.874924  0
C  C62  1  0.09747964  0.59752193  0.59747953  1  0.011526  0  -0.01427  -0.093951  0  3.840053  0
C  C63  1  0.15254598  0.65248802  0.65248493  1  0.011396  0  -0.014296  -0.094384  0  3.838857  0
C  C64  1  0.14066009  0.64073445  0.58245863  1  -0.007596  0  -0.014335  0.048407  0  3.8719  0
C  C65  1  0.10935027  0.60927946  0.66749786  1  -0.006821  0  -0.014739  0.047916  0  3.872188  0
C  C66  1  0.16754435  0.66754516  0.60929242  1  -0.012316  0  -0.014235  0.048634  0  3.870776  0
C  C67  1  0.08247288  0.58246335  0.64066095  1  -0.011794  0  -0.014115  0.049045  0  3.870829  0
C  C68  1  0.30360993  0.45354573  0.40120898  1  0.039005  0  -0.088257  -0.13538  0  3.968038  0
C  C69  1  0.44633806  0.29647327  0.34882453  1  0.036703  0  -0.088231  -0.135212  0  3.967677  0
C  C70  1  0.25902254  0.41366981  0.41365678  1  -0.185388  0  -0.025545  -0.119858  0  3.990085  0
C  C71  1  0.49094120  0.33632002  0.33640409  1  -0.170842  0  -0.025281  -0.119466  0  3.988331  0
C  C72  1  0.37812085  0.33902973  0.37241707  1  -0.143252  0  -0.021072  -0.007291  0  4.065056  0
C  C73  1  0.37181532  0.41096954  0.37761638  1  -0.14957  0  -0.020916  -0.007077  0  4.065721  0
C  C74  1  0.72621329  0.57628029  0.62861767  1  0.018112  0  -0.088166  -0.135786  0  3.970885  0
C  C75  1  0.52382892  0.67372458  0.62138888  1  0.019661  0  -0.088229  -0.135748  0  3.96899  0
C  C76  1  0.74095048  0.58635822  0.58640479  1  -0.084939  0  -0.02527  -0.117804  0  3.987533  0
C  C77  1  0.50906209  0.66364552  0.66361439  1  -0.085302  0  -0.025252  -0.117965  0  3.987188  0
C  C78  1  0.60283846  0.64192630  0.60859569  1  -0.190919  0  -0.021269  -0.00765  0  4.066599  0
C  C79  1  0.64719991  0.60802802  0.64142227  1  -0.191778  0  -0.021335  -0.007075  0  4.066512  0
C  C80  1  0.07631412  0.22615789  0.62860576  1  0.019201  0  -0.088263  -0.135731  0  3.970512  0
C  C81  1  0.17370553  0.02387156  0.62140049  1  0.020593  0  -0.088273  -0.135148  0  3.969381  0
C  C82  1  0.08636856  0.24094680  0.58639019  1  -0.086947  0  -0.025063  -0.117814  0  3.987768  0
C  C83  1  0.16365284  0.00904982  0.66362785  1  -0.08565  0  -0.025164  -0.118543  0  3.98763  0
C  C84  1  0.14191881  0.10286448  0.60859485  1  -0.190841  0  -0.021215  -0.007613  0  4.065827  0
C  C85  1  0.10805025  0.14715928  0.64142331  1  -0.191762  0  -0.021373  -0.007525  0  4.06532  0
C  C86  1  0.84518476  0.79997011  0.39758627  1  0.096086  0  -0.087653  -0.133455  0  3.967632  0
C  C87  1  0.90476634  0.94999757  0.35247467  1  0.097035  0  -0.088  -0.134311  0  3.966859  0
C  C88  1  0.91354171  0.75903970  0.41366811  1  -0.203321  0  -0.025208  -0.118458  0  3.988068  0
C  C89  1  0.83636548  0.99093381  0.33640955  1  -0.208639  0  -0.025297  -0.119066  0  3.987072  0
C  C90  1  0.90811239  0.88044296  0.37472974  1  -0.183208  0  -0.021221  -0.007685  0  4.066417  0
C  C91  1  0.84191402  0.86944814  0.37527487  1  -0.179157  0  -0.021191  -0.008247  0  4.067401  0
C  C92  1  0.65257994  0.15246212  0.15248154  1  0.011474  0  -0.014305  -0.094509  0  3.838864  0
C  C93  1  0.59745660  0.09753794  0.09747961  1  0.011973  0  -0.014275  -0.094085  0  3.839816  0
C  C94  1  0.66760336  0.16750929  0.10928587  1  -0.011622  0  -0.014271  0.048394  0  3.870807  0
C  C95  1  0.58242363  0.08248978  0.14066604  1  -0.011923  0  -0.014079  0.048594  0  3.871185  0
C  C96  1  0.64067065  0.14072345  0.08246036  1  -0.008221  0  -0.014571  0.048341  0  3.871322  0
C  C97  1  0.60935233  0.10928089  0.16749291  1  -0.007138  0  -0.014792  0.048172  0  3.871996  0
C  C98  1  0.67372153  0.52386746  0.12139797  1  0.022446  0  -0.087927  -0.134728  0  3.96832  0
C  C99  1  0.57628859  0.72616395  0.12860851  1  0.019938  0  -0.087934  -0.135225  0  3.96931  0
C  C100  1  0.66365978  0.50904180  0.16362528  1  -0.086684  0  -0.025094  -0.118319  0  3.987291  0
C  C101  1  0.58635321  0.74095939  0.08639316  1  -0.086889  0  -0.025165  -0.118102  0  3.987488  0
C  C102  1  0.60803667  0.64716294  0.14142292  1  -0.191363  0  -0.021181  -0.007225  0  4.064987  0
C  C103  1  0.64192282  0.60286587  0.10859602  1  -0.190281  0  -0.021093  -0.007663  0  4.06565  0
C  C104  1  0.07978200  0.12498580  0.17736725  1  0.024951  0  -0.087475  -0.133435  0  3.968047  0
C  C105  1  0.17020791  0.12490195  0.07260538  1  0.02425  0  -0.088036  -0.134501  0  3.968179  0
C  C106  1  0.00907801  0.16357505  0.16362366  1  -0.125485  0  -0.025934  -0.120298  0  3.988098  0
C  C107  1  0.24092013  0.08636530  0.08635112  1  -0.121699  0  -0.025665  -0.119222  0  3.986631  0
C  C108  1  0.11148503  0.13898807  0.10569083  1  -0.178706  0  -0.021055  -0.006968  0  4.067209  0
C  C109  1  0.13851200  0.11083903  0.14428241  1  -0.177598  0  -0.021579  -0.008285  0  4.068035  0
C  C110  1  0.34750306  0.84751137  0.84745377  1  0.006475  0  -0.014478  -0.095614  0  3.842014  0
C  C111  1  0.40253741  0.90245593  0.90249098  1  0.007876  0  -0.014231  -0.095607  0  3.842002  0
C  C112  1  0.30335403  0.91978197  0.86154054  1  -0.006512  0  -0.014636  0.048249  0  3.874204  0
C  C113  1  0.44668019  0.83019679  0.88839916  1  -0.003426  0  -0.014622  0.048174  0  3.874704  0
C  C114  1  0.33024971  0.94657341  0.88837758  1  -0.002365  0  -0.015051  0.048795  0  3.873082  0
C  C115  1  0.41981481  0.80340738  0.86153921  1  -0.006372  0  -0.01461  0.048957  0  3.873751  0
C  C116  1  0.40477932  0.45001488  0.85246745  1  0.096791  0  -0.087565  -0.133283  0  3.965954  0
C  C117  1  0.34520284  0.29998680  0.89757974  1  0.09532  0  -0.087897  -0.134014  0  3.968152  0
C  C118  1  0.33638811  0.49095170  0.83640178  1  -0.206705  0  -0.025237  -0.11914  0  3.987211  0
C  C119  1  0.41356487  0.25906353  0.91366111  1  -0.205539  0  -0.025468  -0.118785  0  3.988206  0
C  C120  1  0.34192123  0.36947242  0.87527316  1  -0.179183  0  -0.021273  -0.008003  0  4.067323  0
C  C121  1  0.40812074  0.38046728  0.87472760  1  -0.182286  0  -0.021149  -0.008241  0  4.066479  0
C  C122  1  0.94633032  0.79647684  0.84882596  1  0.037735  0  -0.088127  -0.135101  0  3.967982  0
C  C123  1  0.80360219  0.95354930  0.90120982  1  0.038615  0  -0.088237  -0.135506  0  3.967714  0
C  C124  1  0.99093180  0.83632591  0.83639980  1  -0.171479  0  -0.025442  -0.119657  0  3.988749  0
C  C125  1  0.75901372  0.91367910  0.91365026  1  -0.186775  0  -0.025372  -0.119503  0  3.989276  0
C  C126  1  0.87181097  0.91097008  0.87762104  1  -0.149133  0  -0.020742  -0.006723  0  4.065341  0
C  C127  1  0.87811707  0.83903056  0.87242104  1  -0.144738  0  -0.02127  -0.007643  0  4.065665  0
S  S128  1  0.29954052  0.32459410  0.39683287  1  0.274645  0  0.084097  0.12326  0  2.729713  0
S  S129  1  0.45040325  0.42540402  0.35323465  1  0.260784  0  0.084126  0.123121  0  2.72936  0
S  S130  1  0.65928137  0.63426063  0.56211586  1  0.256716  0  0.083206  0.121785  0  2.730273  0
S  S131  1  0.59074059  0.61569448  0.68789818  1  0.25768  0  0.083257  0.121662  0  2.730597  0
S  S132  1  0.13425689  0.15934269  0.56210651  1  0.257359  0  0.083853  0.122672  0  2.729378  0
S  S133  1  0.11571798  0.09066223  0.68790775  1  0.257252  0  0.084013  0.12297  0  2.729255  0
S  S134  1  0.97400571  0.80454829  0.40181452  1  0.264667  0  0.082923  0.121528  0  2.731027  0
S  S135  1  0.77598517  0.94535008  0.34821969  1  0.269592  0  0.083462  0.122436  0  2.731359  0
S  S136  1  0.61569935  0.59065773  0.18790644  1  0.257415  0  0.083765  0.122469  0  2.729347  0
S  S137  1  0.63426653  0.65935044  0.06210843  1  0.257199  0  0.083787  0.12252  0  2.729323  0
S  S138  1  0.01351464  0.18284885  0.11064468  1  0.265737  0  0.083346  0.12208  0  2.730723  0
S  S139  1  0.23647794  0.06708054  0.13932480  1  0.265429  0  0.083458  0.122229  0  2.730717  0
S  S140  1  0.27599581  0.44537190  0.84821668  1  0.267732  0  0.08281  0.121538  0  2.731714  0
S  S141  1  0.47401633  0.30457475  0.90181159  1  0.266611  0  0.083682  0.122681  0  2.730918  0
S  S142  1  0.95039608  0.92540786  0.85323569  1  0.260578  0  0.083905  0.122845  0  2.72933  0
S  S143  1  0.79953164  0.82459918  0.89683336  1  0.275605  0  0.084352  0.123545  0  2.729699  0
Br  Br144  1  0.76404010  0.54442570  0.40437600  1  0.022215  0  0.038015  -0.020604  0  1.606217  0
Br  Br145  1  0.98587275  0.20547341  0.34570951  1  0.019698  0  0.035677  -0.023317  0  1.604635  0
Br  Br146  1  0.70543106  0.48585398  0.34562779  1  0.024549  0  0.03998  -0.018328  0  1.607524  0
Br  Br147  1  0.04466276  0.26422738  0.40426663  1  0.024093  0  0.039389  -0.019032  0  1.60774  0
Br  Br148  1  0.16557403  0.66599954  0.52553233  1  0.022028  0  0.038328  -0.020275  0  1.60641  0
Br  Br149  1  0.08445787  0.58403479  0.72441624  1  0.022314  0  0.038441  -0.020144  0  1.606489  0
Br  Br150  1  0.22449854  0.72447753  0.58416612  1  0.027096  0  0.036171  -0.022671  0  1.604061  0
Br  Br151  1  0.02551689  0.52552225  0.66580090  1  0.026758  0  0.036198  -0.02273  0  1.603522  0
Br  Br152  1  0.72473194  0.22425589  0.08417841  1  0.02916  0  0.037655  -0.020953  0  1.60544  0
Br  Br153  1  0.52528361  0.02574476  0.16578203  1  0.029106  0  0.037667  -0.021043  0  1.605054  0
Br  Br154  1  0.66558044  0.16602425  0.02553380  1  0.021594  0  0.037886  -0.020712  0  1.606235  0
Br  Br155  1  0.58445721  0.08401109  0.22441230  1  0.022043  0  0.037954  -0.020669  0  1.606453  0
Br  Br156  1  0.20538759  0.98579595  0.84565911  1  0.023597  0  0.03938  -0.019112  0  1.607628  0
Br  Br157  1  0.54460846  0.76415207  0.90430966  1  0.024442  0  0.039921  -0.018462  0  1.607506  0
Br  Br158  1  0.26415443  0.04454563  0.90423223  1  0.019363  0  0.035795  -0.023112  0  1.604589  0
Br  Br159  1  0.48597721  0.70558186  0.84556851  1  0.021551  0  0.037939  -0.020724  0  1.60645  0
O  O160  1  0.00003029  0.49996327  0.49999413  1  -1.234987  0  -0.57172  -1.030703  0  2.525063  0
O  O161  1  0.07817666  0.31611136  0.52291311  1  -1.177494  0  -0.319553  -0.547709  0  2.33775  0
O  O162  1  0.03030350  0.53044868  0.58414787  1  -1.163211  0  -0.312883  -0.539685  0  2.484286  0
O  O163  1  0.15646582  0.50551462  0.44942991  1  -1.17182  0  -0.316764  -0.539572  0  2.317231  0
O  O164  1  0.02503460  0.37393763  0.58101970  1  -1.171846  0  -0.316945  -0.540344  0  2.319157  0
O  O165  1  0.15385720  0.39187221  0.44714842  1  -1.182616  0  -0.319759  -0.548042  0  2.338128  0
O  O166  1  0.08413085  0.58415194  0.53035039  1  -1.157584  0  -0.312934  -0.539788  0  2.481988  0
O  O167  1  0.00472900  0.65631329  0.44946969  1  -1.174501  0  -0.320548  -0.549373  0  2.339531  0
O  O168  1  0.88895546  0.49643355  0.44277911  1  -1.180974  0  -0.313027  -0.540337  0  2.48452  0
O  O169  1  0.89095412  0.65398957  0.44708112  1  -1.153849  0  -0.316661  -0.539326  0  2.313894  0
O  O170  1  0.99644328  0.38890043  0.44285253  1  -1.179547  0  -0.312657  -0.539514  0  2.483182  0
O  O171  1  0.87398395  0.52498206  0.58103310  1  -1.172005  0  -0.316973  -0.540152  0  2.318176  0
O  O172  1  0.81605663  0.57817839  0.52292639  1  -1.177584  0  -0.319867  -0.548572  0  2.338837  0
O  O173  1  0.74998570  0.25003129  0.25000600  1  -1.234093  0  -0.571895  -1.031266  0  2.524535  0
O  O174  1  0.59608874  0.35816530  0.30290882  1  -1.182765  0  -0.319345  -0.547609  0  2.338026  0
O  O175  1  0.66594406  0.16582460  0.21961339  1  -1.161492  0  -0.313082  -0.540362  0  2.483387  0
O  O176  1  0.72506378  0.37605195  0.16902623  1  -1.171557  0  -0.316536  -0.539807  0  2.319013  0
O  O177  1  0.59346683  0.24458484  0.30051132  1  -1.170828  0  -0.316937  -0.540077  0  2.315688  0
O  O178  1  0.67198857  0.43393222  0.22711640  1  -1.177643  0  -0.320102  -0.548337  0  2.338076  0
O  O179  1  0.71973849  0.21958139  0.16584393  1  -1.163633  0  -0.313071  -0.539769  0  2.483382  0
O  O180  1  0.87630792  0.22476436  0.16945388  1  -1.16691  0  -0.320139  -0.549125  0  2.337434  0
O  O181  1  0.86101922  0.25351092  0.30728586  1  -1.18148  0  -0.313157  -0.540885  0  2.485082  0
O  O182  1  0.93454883  0.17149402  0.22745429  1  -1.144767  0  -0.316911  -0.54075  0  2.316111  0
O  O183  1  0.75343999  0.36095560  0.30726098  1  -1.178654  0  -0.312311  -0.5396  0  2.482714  0
O  O184  1  0.74530056  0.09360662  0.30046262  1  -1.173492  0  -0.320415  -0.549408  0  2.335615  0
O  O185  1  0.85900565  0.09593505  0.30300911  1  -1.155031  0  -0.317211  -0.540464  0  2.315867  0
O  O186  1  0.24998653  0.75002923  0.75000685  1  -1.234887  0  -0.571853  -1.031138  0  2.52478  0
O  O187  1  0.37605506  0.72504904  0.66899467  1  -1.171108  0  -0.316707  -0.540191  0  2.31929  0
O  O188  1  0.36098057  0.75348550  0.80727466  1  -1.181963  0  -0.312851  -0.540341  0  2.484202  0
O  O189  1  0.17197200  0.93390048  0.72711327  1  -1.177184  0  -0.320085  -0.548332  0  2.336698  0
O  O190  1  0.43398027  0.67192715  0.72710403  1  -1.177653  0  -0.320439  -0.549362  0  2.337487  0
O  O191  1  0.22500967  0.87608110  0.66900176  1  -1.171815  0  -0.316842  -0.540464  0  2.319791  0
O  O192  1  0.25348474  0.86101205  0.80721118  1  -1.180856  0  -0.312495  -0.53933  0  2.484271  0
O  O193  1  0.09608171  0.85816567  0.80289957  1  -1.183242  0  -0.319565  -0.547868  0  2.33803  0
O  O194  1  0.16589571  0.66589363  0.71961536  1  -1.161178  0  -0.313026  -0.540075  0  2.48232  0
O  O195  1  0.09344107  0.74459727  0.80049745  1  -1.171136  0  -0.316949  -0.540289  0  2.316259  0
O  O196  1  0.21973506  0.71956549  0.66582450  1  -1.164332  0  -0.313051  -0.539638  0  2.484178  0
O  O197  1  0.35900380  0.59597067  0.80297573  1  -1.15357  0  -0.316577  -0.539766  0  2.314213  0
O  O198  1  0.24533662  0.59355893  0.80042687  1  -1.172538  0  -0.32057  -0.549685  0  2.337649  0
O  O199  1  0.50002946  0.99996302  0.99998778  1  -1.234612  0  -0.571879  -1.031224  0  2.525245  0
O  O200  1  0.50475262  0.15627797  0.94944630  1  -1.174605  0  -0.320548  -0.54942  0  2.338522  0
O  O201  1  0.38891230  0.99638933  0.94277437  1  -1.180974  0  -0.31362  -0.541065  0  2.48531  0
O  O202  1  0.65385018  0.89187517  0.94713616  1  -1.182545  0  -0.319673  -0.548025  0  2.337839  0
O  O203  1  0.39094917  0.15402932  0.94704159  1  -1.154715  0  -0.31723  -0.540611  0  2.315304  0
O  O204  1  0.65643860  0.00552937  0.94941373  1  -1.171195  0  -0.316613  -0.539744  0  2.31701  0
O  O205  1  0.49650231  0.88895771  0.94279363  1  -1.179891  0  -0.312525  -0.5397  0  2.482802  0
O  O206  1  0.57814967  0.81608365  0.02290938  1  -1.177117  0  -0.319934  -0.548024  0  2.338325  0
O  O207  1  0.53028646  0.03045019  0.08412421  1  -1.163279  0  -0.312827  -0.539629  0  2.483413  0
O  O208  1  0.52497741  0.87397594  0.08099502  1  -1.171065  0  -0.316635  -0.539815  0  2.317707  0
O  O209  1  0.58410021  0.08420921  0.03035147  1  -1.15738  0  -0.312857  -0.54011  0  2.483392  0
O  O210  1  0.31547317  0.07862958  0.02253426  1  -1.146052  0  -0.3163  -0.539866  0  2.316919  0
O  O211  1  0.37372034  0.02535661  0.08053457  1  -1.166892  0  -0.320218  -0.548804  0  2.337438  0
