# generated using pymatgen
data_Ti2H4C2O9
_symmetry_space_group_name_H-M   'P 1'
_cell_length_a   9.41571240
_cell_length_b   9.41572222
_cell_length_c   9.66626785
_cell_angle_alpha   89.99957498
_cell_angle_beta   89.99995640
_cell_angle_gamma   112.05628734
_symmetry_Int_Tables_number   1
_chemical_formula_structural   Ti2H4C2O9
_chemical_formula_sum   'Ti8 H16 C8 O36'
_cell_volume   794.25304012
_cell_formula_units_Z   4
loop_
 _symmetry_equiv_pos_site_id
 _symmetry_equiv_pos_as_xyz
  1  'x, y, z'
loop_
 _atom_site_type_symbol
 _atom_site_label
 _atom_site_symmetry_multiplicity
 _atom_site_fract_x
 _atom_site_fract_y
 _atom_site_fract_z
 _atom_site_occupancy
 _atom_site_hle17_bader_spin_density
 _atom_site_hle17_ddec_charge
 _atom_site_hle17_ddec_spin_density
 _atom_site_hle17_ddec_sum_bond_order
 _atom_site_hle17_magmom
 _atom_site_hse06_10hf_bader_spin_density
 _atom_site_hse06_10hf_ddec_charge
 _atom_site_hse06_10hf_ddec_spin_density
 _atom_site_hse06_10hf_ddec_sum_bond_order
 _atom_site_hse06_10hf_magmom
 _atom_site_hse06_bader_spin_density
 _atom_site_hse06_ddec_charge
 _atom_site_hse06_ddec_spin_density
 _atom_site_hse06_ddec_sum_bond_order
 _atom_site_hse06_magmom
 _atom_site_pbe_bader_spin_density
 _atom_site_pbe_cm5_charge
 _atom_site_pbe_ddec_charge
 _atom_site_pbe_ddec_spin_density
 _atom_site_pbe_ddec_sum_bond_order
 _atom_site_pbe_magmom
Ti  Ti0  1  0.46047621  0.82802843  0.60278274  1  0  2.230298  0  2.148346  0  0  2.198284  0  2.601162  0  0  2.378753  0  2.417403  0  0  1.444048  2.127862  0  2.624995  0
Ti  Ti1  1  0.03951679  0.67196899  0.10278075  1  0  2.23024  0  2.148486  0  0  2.198303  0  2.601152  0  0  2.378687  0  2.417562  0  0  1.444036  2.127872  0  2.624998  0
Ti  Ti2  1  0.17197784  0.53953562  0.39720403  1  0  2.230267  0  2.148544  0  0  2.198283  0  2.601303  0  0  2.378722  0  2.417605  0  0  1.444014  2.12786  0  2.625143  0
Ti  Ti3  1  0.32802690  0.96046828  0.89721135  1  0  2.23032  0  2.148352  0  0  2.198286  0  2.601197  0  0  2.378791  0  2.417397  0  0  1.444083  2.127866  0  2.625029  0
Ti  Ti4  1  0.53952407  0.17197195  0.39721868  1  0  2.23033  0  2.148251  0  0  2.19833  0  2.60102  0  0  2.378777  0  2.417321  0  0  1.444065  2.12791  0  2.624857  0
Ti  Ti5  1  0.96047732  0.32802909  0.89721859  1  0  2.230348  0  2.148365  0  0  2.198312  0  2.601236  0  0  2.378823  0  2.417419  0  0  1.44408  2.127885  0  2.625074  0
Ti  Ti6  1  0.82803202  0.46047051  0.60278808  1  0  2.230249  0  2.148556  0  0  2.198242  0  2.601346  0  0  2.378695  0  2.417629  0  0  1.44402  2.127818  0  2.625184  0
Ti  Ti7  1  0.67197297  0.03953667  0.10279317  1  0  2.230216  0  2.148657  0  0  2.198174  0  2.601506  0  0  2.378668  0  2.417735  0  0  1.444014  2.127748  0  2.625338  0
H  H8  1  0.70129208  0.92300687  0.79875867  1  0  0.459833  0  0.82858  0  0  0.428374  0  0.891787  0  0  0.441537  0  0.87266  0  0  0.311529  0.419256  0  0.905193  0
H  H9  1  0.79870238  0.57698867  0.29876237  1  0  0.459758  0  0.828658  0  0  0.428304  0  0.891864  0  0  0.441466  0  0.872738  0  0  0.311486  0.419188  0  0.905267  0
H  H10  1  0.07700582  0.29870691  0.20123064  1  0  0.459722  0  0.828667  0  0  0.428234  0  0.891921  0  0  0.441398  0  0.872798  0  0  0.311475  0.419114  0  0.905328  0
H  H11  1  0.42300068  0.20128802  0.70122736  1  0  0.459735  0  0.828702  0  0  0.428243  0  0.891955  0  0  0.441409  0  0.872829  0  0  0.311465  0.419123  0  0.905363  0
H  H12  1  0.29871393  0.07698895  0.20124895  1  0  0.459766  0  0.828699  0  0  0.428327  0  0.89186  0  0  0.441485  0  0.872744  0  0  0.311536  0.419215  0  0.905258  0
H  H13  1  0.20129173  0.42300941  0.70124836  1  0  0.459855  0  0.828554  0  0  0.428415  0  0.89173  0  0  0.441573  0  0.87261  0  0  0.311545  0.4193  0  0.905132  0
H  H14  1  0.92299848  0.70128432  0.79876043  1  0  0.459688  0  0.828787  0  0  0.428223  0  0.892009  0  0  0.441387  0  0.872881  0  0  0.311444  0.419106  0  0.905413  0
H  H15  1  0.57699727  0.79871465  0.29876267  1  0  0.459686  0  0.828781  0  0  0.428239  0  0.891969  0  0  0.441399  0  0.872848  0  0  0.311488  0.419123  0  0.905371  0
H  H16  1  0.73918495  0.06000048  0.68991833  1  0  0.471945  0  0.777941  0  0  0.452076  0  0.829424  0  0  0.464116  0  0.812044  0  0  0.340038  0.44406  0  0.841094  0
H  H17  1  0.76082048  0.43999102  0.18992459  1  0  0.472062  0  0.777641  0  0  0.45211  0  0.829361  0  0  0.46415  0  0.811982  0  0  0.340054  0.444094  0  0.84103  0
H  H18  1  0.94000135  0.26081005  0.31007807  1  0  0.471884  0  0.777733  0  0  0.451943  0  0.829556  0  0  0.463987  0  0.81217  0  0  0.339965  0.443925  0  0.84123  0
H  H19  1  0.56000696  0.23917806  0.81006960  1  0  0.471939  0  0.777678  0  0  0.452037  0  0.829414  0  0  0.464079  0  0.812032  0  0  0.340004  0.444019  0  0.841085  0
H  H20  1  0.26083063  0.93999536  0.31007274  1  0  0.472115  0  0.77761  0  0  0.452166  0  0.829289  0  0  0.464203  0  0.811913  0  0  0.340117  0.444152  0  0.840956  0
H  H21  1  0.23918510  0.56000365  0.81007786  1  0  0.472132  0  0.777679  0  0  0.45218  0  0.829289  0  0  0.464219  0  0.811911  0  0  0.340101  0.444165  0  0.84096  0
H  H22  1  0.06000527  0.73917317  0.68993162  1  0  0.471984  0  0.777717  0  0  0.452105  0  0.829345  0  0  0.464144  0  0.811969  0  0  0.340069  0.444088  0  0.841017  0
H  H23  1  0.43999989  0.76081432  0.18992561  1  0  0.472009  0  0.777781  0  0  0.452089  0  0.829397  0  0  0.46413  0  0.812016  0  0  0.340061  0.444071  0  0.84107  0
C  C24  1  0.60560809  0.60560292  0.65996275  1  0  0.565591  0  3.897197  0  0  0.522694  0  4.199534  0  0  0.555544  0  4.196607  0  0  0.220169  0.500572  0  4.205894  0
C  C25  1  0.89438717  0.89439160  0.15996304  1  0  0.565795  0  3.896967  0  0  0.52278  0  4.199449  0  0  0.55562  0  4.196515  0  0  0.220167  0.500667  0  4.205816  0
C  C26  1  0.39439325  0.39439746  0.34003660  1  0  0.565641  0  3.897104  0  0  0.522666  0  4.199616  0  0  0.555508  0  4.196687  0  0  0.220162  0.500546  0  4.205985  0
C  C27  1  0.10561397  0.10561107  0.84003424  1  0  0.565875  0  3.896855  0  0  0.522921  0  4.199326  0  0  0.555778  0  4.196396  0  0  0.220297  0.500797  0  4.205689  0
C  C28  1  0.67152532  0.67152725  0.51755696  1  0  0.572445  0  3.896906  0  0  0.523081  0  4.198303  0  0  0.554906  0  4.195719  0  0  0.228266  0.501291  0  4.20428  0
C  C29  1  0.82846739  0.82848002  0.01755777  1  0  0.572161  0  3.896596  0  0  0.52288  0  4.197941  0  0  0.554732  0  4.195303  0  0  0.228135  0.501062  0  4.203964  0
C  C30  1  0.32846945  0.32848113  0.48244032  1  0  0.572551  0  3.896343  0  0  0.523122  0  4.197902  0  0  0.554937  0  4.195316  0  0  0.228196  0.501315  0  4.203914  0
C  C31  1  0.17152994  0.17152951  0.98244054  1  0  0.572343  0  3.896975  0  0  0.522994  0  4.198451  0  0  0.554821  0  4.19587  0  0  0.228207  0.501203  0  4.204428  0
O  O32  1  0.50666830  0.65141265  0.71088610  1  0  -0.601801  0  2.025055  0  0  -0.561856  0  2.266945  0  0  -0.599103  0  2.253771  0  0  -0.323947  -0.542903  0  2.271552  0
O  O33  1  0.99331761  0.84858253  0.21088665  1  0  -0.601812  0  2.025108  0  0  -0.561853  0  2.267044  0  0  -0.599078  0  2.253873  0  0  -0.323909  -0.542905  0  2.271654  0
O  O34  1  0.34858812  0.49333362  0.28911174  1  0  -0.601785  0  2.025198  0  0  -0.56184  0  2.267153  0  0  -0.59908  0  2.253977  0  0  -0.323942  -0.542885  0  2.271761  0
O  O35  1  0.15141698  0.00667767  0.78910800  1  0  -0.601801  0  2.025139  0  0  -0.561879  0  2.267107  0  0  -0.599132  0  2.253927  0  0  -0.323968  -0.542934  0  2.27172  0
O  O36  1  0.49332540  0.34859001  0.28911842  1  0  -0.601781  0  2.02525  0  0  -0.561805  0  2.267181  0  0  -0.59904  0  2.254008  0  0  -0.323883  -0.542855  0  2.271791  0
O  O37  1  0.00667247  0.15141897  0.78911476  1  0  -0.601869  0  2.024993  0  0  -0.561949  0  2.266969  0  0  -0.599205  0  2.253789  0  0  -0.323975  -0.543  0  2.27158  0
O  O38  1  0.65141728  0.50667479  0.71088968  1  0  -0.601719  0  2.025296  0  0  -0.561811  0  2.267218  0  0  -0.599055  0  2.254043  0  0  -0.323904  -0.542862  0  2.271829  0
O  O39  1  0.84857755  0.99332155  0.21088721  1  0  -0.601801  0  2.025163  0  0  -0.561852  0  2.26714  0  0  -0.599104  0  2.253968  0  0  -0.323914  -0.542899  0  2.271748  0
O  O40  1  0.61991624  0.76545529  0.46506999  1  0  -0.614482  0  2.091954  0  0  -0.56308  0  2.328587  0  0  -0.599498  0  2.317703  0  0  -0.30096  -0.543903  0  2.333116  0
O  O41  1  0.88006430  0.73452609  0.96506857  1  0  -0.614528  0  2.091538  0  0  -0.563164  0  2.328145  0  0  -0.599584  0  2.317249  0  0  -0.301031  -0.543977  0  2.332682  0
O  O42  1  0.23454649  0.38009501  0.53493095  1  0  -0.614474  0  2.091522  0  0  -0.56304  0  2.328195  0  0  -0.599448  0  2.317307  0  0  -0.300925  -0.543862  0  2.332735  0
O  O43  1  0.26546160  0.11991518  0.03492919  1  0  -0.61453  0  2.091633  0  0  -0.563118  0  2.328279  0  0  -0.599541  0  2.317394  0  0  -0.301008  -0.543948  0  2.332808  0
O  O44  1  0.38008041  0.23453821  0.53493040  1  0  -0.61469  0  2.091531  0  0  -0.563231  0  2.328195  0  0  -0.59965  0  2.317313  0  0  -0.301008  -0.544042  0  2.332729  0
O  O45  1  0.11991936  0.26545823  0.03493078  1  0  -0.614523  0  2.091953  0  0  -0.563096  0  2.328608  0  0  -0.599524  0  2.317725  0  0  -0.300992  -0.543922  0  2.333137  0
O  O46  1  0.76545720  0.61990881  0.46507046  1  0  -0.614564  0  2.091534  0  0  -0.563142  0  2.328163  0  0  -0.599564  0  2.317279  0  0  -0.301044  -0.543965  0  2.332691  0
O  O47  1  0.73454190  0.88009666  0.96506912  1  0  -0.614306  0  2.091626  0  0  -0.562897  0  2.328199  0  0  -0.599323  0  2.317296  0  0  -0.300878  -0.543715  0  2.332739  0
O  O48  1  0.34601285  0.84600922  0.74999672  1  0  -1.080641  0  1.459674  0  0  -1.07943  0  1.770857  0  0  -1.164275  0  1.727661  0  0  -0.728116  -1.044174  0  1.778303  0
O  O49  1  0.15397783  0.65398799  0.24999478  1  0  -1.080654  0  1.459834  0  0  -1.079486  0  1.771025  0  0  -1.1643  0  1.727857  0  0  -0.728138  -1.044231  0  1.778471  0
O  O50  1  0.65398232  0.15398886  0.25000263  1  0  -1.080691  0  1.459858  0  0  -1.079476  0  1.771043  0  0  -1.164317  0  1.727859  0  0  -0.728142  -1.044225  0  1.778493  0
O  O51  1  0.84601928  0.34601811  0.75000353  1  0  -1.080693  0  1.459824  0  0  -1.079464  0  1.770979  0  0  -1.164305  0  1.727784  0  0  -0.728121  -1.044204  0  1.778423  0
O  O52  1  0.49999775  0.99999756  0.50000303  1  0  -1.055439  0  1.483458  0  0  -1.057675  0  1.803339  0  0  -1.145794  0  1.765581  0  0  -0.731089  -1.020104  0  1.807863  0
O  O53  1  0.00000271  0.50000081  0.99999944  1  0  -1.055436  0  1.483494  0  0  -1.057643  0  1.8033  0  0  -1.145765  0  1.765549  0  0  -0.731108  -1.020073  0  1.807825  0
O  O54  1  0.00000378  0.50000311  0.49999881  1  0  -1.05541  0  1.483391  0  0  -1.057637  0  1.803234  0  0  -1.145755  0  1.765489  0  0  -0.73104  -1.020061  0  1.807757  0
O  O55  1  0.50000009  0.99999871  0.99999849  1  0  -1.055422  0  1.483461  0  0  -1.057621  0  1.803309  0  0  -1.14578  0  1.765568  0  0  -0.731043  -1.020045  0  1.80783  0
O  O56  1  0.30790511  0.69210085  0.49999180  1  0  -1.083777  0  1.516925  0  0  -1.086519  0  1.832775  0  0  -1.175048  0  1.796285  0  0  -0.736374  -1.048663  0  1.836142  0
O  O57  1  0.19208325  0.80790779  0.99999516  1  0  -1.083817  0  1.517083  0  0  -1.086544  0  1.832896  0  0  -1.175072  0  1.796413  0  0  -0.736426  -1.048688  0  1.836261  0
O  O58  1  0.69209412  0.30790525  0.50001375  1  0  -1.083824  0  1.516978  0  0  -1.086555  0  1.832799  0  0  -1.175088  0  1.796317  0  0  -0.736437  -1.048698  0  1.83616  0
O  O59  1  0.80790939  0.19210058  0.00000937  1  0  -1.083778  0  1.517011  0  0  -1.08649  0  1.83286  0  0  -1.175046  0  1.796361  0  0  -0.736397  -1.048633  0  1.836222  0
O  O60  1  0.67711134  0.95212042  0.70544955  1  0  -0.904838  0  1.85983  0  0  -0.864842  0  2.05863  0  0  -0.898424  0  2.015482  0  0  -0.597085  -0.848803  0  2.082333  0
O  O61  1  0.82288651  0.54787827  0.20545034  1  0  -0.904887  0  1.859639  0  0  -0.864821  0  2.058617  0  0  -0.898397  0  2.015494  0  0  -0.597065  -0.84877  0  2.082297  0
O  O62  1  0.04789494  0.32289719  0.29455821  1  0  -0.904694  0  1.85963  0  0  -0.86461  0  2.058756  0  0  -0.898194  0  2.015614  0  0  -0.596985  -0.848563  0  2.082457  0
O  O63  1  0.45211392  0.17709573  0.79454991  1  0  -0.904748  0  1.859652  0  0  -0.86468  0  2.058735  0  0  -0.898274  0  2.015582  0  0  -0.597023  -0.848643  0  2.082442  0
O  O64  1  0.32288723  0.04787538  0.29454152  1  0  -0.904953  0  1.859733  0  0  -0.864864  0  2.058677  0  0  -0.898453  0  2.015563  0  0  -0.597165  -0.848819  0  2.08236  0
O  O65  1  0.17711825  0.45212555  0.79454798  1  0  -0.905069  0  1.859671  0  0  -0.864984  0  2.05856  0  0  -0.898582  0  2.015433  0  0  -0.597168  -0.848941  0  2.082247  0
O  O66  1  0.95211809  0.67710322  0.70545459  1  0  -0.904755  0  1.859819  0  0  -0.864739  0  2.058744  0  0  -0.898325  0  2.015606  0  0  -0.597058  -0.84869  0  2.082428  0
O  O67  1  0.54787911  0.82289661  0.20545668  1  0  -0.904793  0  1.85994  0  0  -0.864721  0  2.058786  0  0  -0.898319  0  2.015671  0  0  -0.597071  -0.84867  0  2.082468  0
