# generated using pymatgen
data_CeH19(C17O4)2
_symmetry_space_group_name_H-M   'P 1'
_cell_length_a   9.12099191
_cell_length_b   11.44358521
_cell_length_c   15.20198434
_cell_angle_alpha   93.51847971
_cell_angle_beta   89.27318635
_cell_angle_gamma   93.88918452
_symmetry_Int_Tables_number   1
_chemical_formula_structural   CeH19(C17O4)2
_chemical_formula_sum   'Ce2 H38 C68 O16'
_cell_volume   1580.03923394
_cell_formula_units_Z   2
loop_
 _symmetry_equiv_pos_site_id
 _symmetry_equiv_pos_as_xyz
  1  'x, y, z'
loop_
 _atom_site_type_symbol
 _atom_site_label
 _atom_site_symmetry_multiplicity
 _atom_site_fract_x
 _atom_site_fract_y
 _atom_site_fract_z
 _atom_site_occupancy
 _atom_site_pbe_bader_charge
 _atom_site_pbe_bader_spin_density
 _atom_site_pbe_cm5_charge
 _atom_site_pbe_ddec_charge
 _atom_site_pbe_ddec_spin_density
 _atom_site_pbe_ddec_sum_bond_order
 _atom_site_pbe_magmom
Ce  Ce0  1  0.21095481  0.03102257  0.97718665  1  2.279927  -0.864174  1.351055  2.022658  -0.978688  2.409508  -0.843
Ce  Ce1  1  0.78896425  0.97037232  0.02163496  1  2.277545  -0.876518  1.343722  2.018724  -0.988492  2.396229  -0.854
H  H2  1  0.59717662  0.20428957  0.96546534  1  0.649243  -0.000192  0.31769  0.372849  -4.4e-05  0.95576  0.0
H  H3  1  0.39940480  0.79762712  0.03575268  1  0.653983  -7.9e-05  0.31806  0.375601  8e-06  0.953269  0.0
H  H4  1  0.27215729  0.73745338  0.50141626  1  0.035631  -3e-05  0.101328  0.103209  3.2e-05  1.012568  0.0
H  H5  1  0.72790783  0.26236572  0.49924942  1  0.032914  -1.1e-05  0.101827  0.104142  1.9e-05  1.012036  0.0
H  H6  1  0.25297681  0.30718374  0.49330641  1  0.030947  -1e-05  0.099145  0.095064  7.2e-05  1.039454  0.0
H  H7  1  0.74540676  0.69254527  0.50661454  1  0.037118  -3e-06  0.099574  0.094884  2.2e-05  1.0384  0.0
H  H8  1  0.52798661  0.52613231  0.69095473  1  0.119508  -4.6e-05  0.098366  0.096267  2.8e-05  1.056573  0.0
H  H9  1  0.47079647  0.47303436  0.30916615  1  0.107126  -3.2e-05  0.099285  0.097585  4e-06  1.056408  0.0
H  H10  1  0.59367744  0.41838207  0.81939707  1  0.07066  -0.000177  0.107283  0.110959  9.1e-05  1.000631  0.0
H  H11  1  0.40520230  0.58104866  0.18056561  1  0.063149  -3.2e-05  0.108764  0.11232  1.9e-05  0.999412  0.0
H  H12  1  0.26698886  0.14173948  0.74610144  1  0.090405  -0.000152  0.11578  0.123599  0.000127  1.000474  0.0
H  H13  1  0.73272264  0.85680571  0.25334315  1  0.10122  -3.7e-05  0.117208  0.124754  4.9e-05  0.998017  0.0
H  H14  1  0.19706785  0.25085430  0.61936692  1  0.043017  -2.8e-05  0.101091  0.104099  4.8e-05  1.00763  0.0
H  H15  1  0.80273979  0.74762652  0.38028183  1  0.052069  -2e-05  0.101618  0.104348  9e-06  1.006677  0.0
H  H16  1  0.18307655  0.58324581  0.73401750  1  0.049192  -6.7e-05  0.101331  0.103477  -8e-06  1.022015  0.0
H  H17  1  0.81609141  0.41574955  0.26655778  1  0.063627  -1.4e-05  0.101148  0.103194  1.3e-05  1.0217  0.0
H  H18  1  0.25297568  0.70183965  0.87036632  1  0.083441  -9.1e-05  0.112141  0.113004  8e-06  0.985863  0.0
H  H19  1  0.74518896  0.29762612  0.13008055  1  0.090061  -4.5e-05  0.112384  0.113766  3e-05  0.984447  0.0
H  H20  1  0.61253829  0.87456138  0.73277751  1  0.082786  -9e-06  0.107909  0.109792  3e-05  0.995002  0.0
H  H21  1  0.38454483  0.12638905  0.26780977  1  0.075773  1e-06  0.107687  0.109549  3.7e-05  0.995096  0.0
H  H22  1  0.53352930  0.76347400  0.59303750  1  0.056133  -8.3e-05  0.098512  0.10138  -1.4e-05  1.012071  0.0
H  H23  1  0.46460015  0.23699166  0.40756437  1  0.059932  -7.4e-05  0.098814  0.102262  -1.2e-05  1.011894  0.0
H  H24  1  0.34392144  0.78045802  0.36468231  1  0.064032  -1.3e-05  0.098298  0.099381  3e-05  1.012212  0.0
H  H25  1  0.65672364  0.21961269  0.63593141  1  0.074015  -2.1e-05  0.099145  0.100479  1.6e-05  1.011565  0.0
H  H26  1  0.27418457  0.88781387  0.23639430  1  0.10955  -7.2e-05  0.106339  0.109363  1.4e-05  1.001293  0.0
H  H27  1  0.72751076  0.11232935  0.76391957  1  0.06978  -0.000233  0.106998  0.110003  -2.2e-05  1.001083  0.0
H  H28  1  0.90868181  0.63740722  0.18597262  1  0.103915  -3.2e-05  0.105926  0.110918  1.7e-05  0.995736  0.0
H  H29  1  0.09323586  0.36306557  0.81338697  1  0.09881  -6.1e-05  0.106727  0.112737  1.3e-05  0.994934  0.0
H  H30  1  0.97566703  0.53059247  0.31554649  1  0.094036  -3.4e-05  0.09498  0.091245  2.6e-05  1.054343  0.0
H  H31  1  0.02503151  0.46972867  0.68400509  1  0.083845  -9.5e-05  0.095546  0.091849  -1e-06  1.05455  0.0
H  H32  1  0.26234896  0.44971720  0.24157002  1  0.071096  -4.2e-05  0.102084  0.103401  -6e-06  1.036623  0.0
H  H33  1  0.73900686  0.55121570  0.75870232  1  0.077818  -6.5e-05  0.102642  0.104934  -4e-06  1.033124  0.0
H  H34  1  0.17066101  0.29718423  0.12939762  1  0.102725  -0.000126  0.115233  0.113667  -1.9e-05  0.989215  0.0
H  H35  1  0.83318603  0.70371066  0.87028216  1  0.065462  -0.000169  0.11498  0.112999  -1.2e-05  0.990095  0.0
H  H36  1  0.91744746  0.12095034  0.32777324  1  0.088829  6e-06  0.108409  0.114989  3.8e-05  0.9878  0.0
H  H37  1  0.08461004  0.87867657  0.67050009  1  0.087143  -2.9e-05  0.108511  0.115197  4.6e-05  0.9872  0.0
H  H38  1  0.01454178  0.27103180  0.44193065  1  0.076046  -0.000102  0.098703  0.101798  -2.4e-05  1.015836  0.0
H  H39  1  0.98539208  0.72851539  0.55705210  1  0.061741  -3.8e-05  0.098476  0.101663  6e-06  1.016417  0.0
C  C40  1  0.30758239  0.46484854  0.57270874  1  0.077506  -0.004084  -0.006372  0.025514  -0.001074  3.971174  -0.001
C  C41  1  0.69130095  0.53449814  0.42754723  1  0.055487  -0.003314  -0.00705  0.023461  -0.000996  3.966989  -0.002
C  C42  1  0.31336831  0.58929575  0.57384757  1  0.019292  -0.007789  -0.002469  0.033639  -0.002421  3.958047  -0.005
C  C43  1  0.68586022  0.41014620  0.42658688  1  0.0215  -0.004264  -0.001325  0.035969  -0.001338  3.957603  -0.002
C  C44  1  0.27001548  0.64186192  0.49863024  1  -0.116283  0.000923  -0.087366  -0.173973  0.001534  3.966652  0.001
C  C45  1  0.72970228  0.35792081  0.50183941  1  -0.120962  4.4e-05  -0.0864  -0.174055  0.000438  3.964037  0.0
C  C46  1  0.21394995  0.57894769  0.42252908  1  0.086821  -0.011682  -0.003404  0.033  -0.003605  3.953251  -0.007
C  C47  1  0.78594651  0.42118100  0.57771731  1  0.082814  -0.006394  -0.001743  0.036235  -0.00197  3.950204  -0.004
C  C48  1  0.20392101  0.45442304  0.42240256  1  -0.024704  -0.001106  -0.004882  0.026894  -4.8e-05  3.947643  0.0
C  C49  1  0.79556194  0.54568329  0.57766884  1  -0.012968  -0.001992  -0.003432  0.027964  -0.000555  3.943904  -0.001
C  C50  1  0.25321522  0.40251917  0.49656843  1  -0.122558  -0.00485  -0.088146  -0.173322  -0.001499  3.983541  -0.003
C  C51  1  0.74548534  0.59722455  0.50350011  1  -0.101148  -0.001054  -0.087086  -0.17026  -0.0003  3.97955  0.0
C  C52  1  0.35534172  0.39841393  0.64617040  1  -0.056664  -0.020858  -0.003089  0.078466  -0.006367  3.97536  -0.013
C  C53  1  0.64367808  0.60067024  0.35373544  1  -0.004372  -0.005397  0.001234  0.083507  -0.001644  3.968115  -0.003
C  C54  1  0.46887492  0.44311388  0.70339880  1  -0.113412  0.000798  -0.091151  -0.133546  0.002004  3.99355  0.002
C  C55  1  0.53005263  0.55598103  0.29665224  1  -0.113413  -0.00108  -0.089423  -0.131566  -0.000215  3.984373  0.0
C  C56  1  0.50655397  0.38294763  0.77507448  1  0.010701  -0.011731  -0.082613  -0.085682  -0.003581  3.987811  -0.007
C  C57  1  0.49241995  0.61623277  0.22490244  1  0.070398  -0.002049  -0.080652  -0.083244  -0.000615  3.985241  -0.001
C  C58  1  0.43323017  0.27433672  0.79140087  1  -0.044874  -0.005324  -0.021718  -0.068508  -0.00113  4.02618  -0.001
C  C59  1  0.56597666  0.72454822  0.20863291  1  -0.096775  -0.002484  -0.019464  -0.067567  -0.000683  4.020032  -0.001
C  C60  1  0.32422211  0.22570882  0.73295836  1  -0.026824  -0.013799  -0.074152  -0.07843  -0.004211  3.95978  -0.008
C  C61  1  0.67541524  0.77293390  0.26664815  1  0.000457  -0.003248  -0.071447  -0.07359  -0.000972  3.954593  -0.002
C  C62  1  0.28666652  0.28717253  0.66157455  1  0.071178  0.00067  -0.092101  -0.139236  0.00183  3.985884  0.002
C  C63  1  0.71301042  0.71150485  0.33811129  1  0.00328  -0.000513  -0.089285  -0.136208  2.3e-05  3.976835  0.0
C  C64  1  0.46879717  0.21150169  0.86821895  1  1.452295  -0.033266  0.246983  0.604134  -0.011524  4.087608  -0.023
C  C65  1  0.52957846  0.78864197  0.13213983  1  1.484111  -0.005883  0.255059  0.614514  -0.001908  4.086913  -0.004
C  C66  1  0.35413529  0.66440427  0.65398697  1  0.006226  -0.002643  -0.002358  0.075621  -0.000805  3.99703  -0.001
C  C67  1  0.64485473  0.33494691  0.34656203  1  -0.008062  -0.003599  -0.003048  0.074695  -0.001117  3.998963  -0.002
C  C68  1  0.27587769  0.64817897  0.73295479  1  -0.085509  -0.000284  -0.086658  -0.124334  6.8e-05  3.985724  0.0
C  C69  1  0.72308692  0.35098800  0.26757474  1  -0.044296  0.000108  -0.086818  -0.124713  0.000346  3.987881  0.0
C  C70  1  0.31539670  0.71374447  0.80962663  1  -0.023829  -0.00232  -0.077294  -0.079227  -0.0007  3.974237  -0.001
C  C71  1  0.68300714  0.28569086  0.19088863  1  -0.04386  -0.002771  -0.077345  -0.078815  -0.000835  3.973951  -0.002
C  C72  1  0.43838677  0.79431320  0.81038539  1  0.021911  -0.001029  -0.012438  -0.043931  -0.000128  3.970202  0.0
C  C73  1  0.55961280  0.20550929  0.19019577  1  -0.042517  -0.00034  -0.012416  -0.044485  0.000256  3.970172  0.0
C  C74  1  0.51664311  0.81220609  0.73195296  1  -0.053469  -0.00134  -0.07702  -0.074986  -0.000386  3.965627  -0.001
C  C75  1  0.48110677  0.18807570  0.26863190  1  0.005861  -0.001579  -0.077202  -0.075058  -0.000457  3.964414  -0.001
C  C76  1  0.47220341  0.74994994  0.65402104  1  -0.03687  -0.000839  -0.09236  -0.141647  -0.000225  3.975827  0.0
C  C77  1  0.52608969  0.25007409  0.34657070  1  -0.061749  -8.7e-05  -0.091725  -0.141591  0.000157  3.97622  0.0
C  C78  1  0.48421100  0.85590889  0.89547532  1  1.546683  -0.007483  0.248185  0.643588  -0.00253  4.127028  -0.006
C  C79  1  0.51408696  0.14341696  0.10518128  1  1.541541  -0.007415  0.248192  0.640713  -0.002404  4.12601  -0.005
C  C80  1  0.16653206  0.64535972  0.34862114  1  0.012003  -0.001591  -0.00938  0.066432  -0.000381  3.997967  0.0
C  C81  1  0.83398585  0.35488267  0.65158505  1  0.017038  -0.002325  -0.008542  0.065168  -0.000704  3.996542  -0.001
C  C82  1  0.24668866  0.74940560  0.32676301  1  -0.152681  -0.002354  -0.09481  -0.138989  -0.000729  3.999703  -0.001
C  C83  1  0.75406287  0.25084075  0.67364744  1  -0.155934  -0.001259  -0.093811  -0.136292  -0.000387  3.99799  -0.001
C  C84  1  0.20890373  0.80943550  0.25449647  1  -0.044  -0.00076  -0.085905  -0.091147  -0.000113  3.989231  0.0
C  C85  1  0.79231191  0.19093884  0.74585663  1  0.014754  -0.001875  -0.08573  -0.0926  -0.000556  3.987884  -0.001
C  C86  1  0.08850344  0.76843055  0.20199911  1  -0.027825  -0.004052  -0.016327  -0.03567  -0.001125  3.950129  -0.002
C  C87  1  0.91297706  0.23224113  0.79801263  1  0.003872  -0.002475  -0.014728  -0.033386  -0.000579  3.95147  -0.001
C  C88  1  0.00442014  0.66781855  0.22526944  1  -0.0855  -0.00013  -0.083093  -0.084898  0.000238  3.976315  0.0
C  C89  1  0.99701155  0.33275446  0.77448684  1  -0.101022  -0.001168  -0.082835  -0.086747  -0.000308  3.975998  0.0
C  C90  1  0.04279311  0.60779960  0.29751250  1  -0.024806  -0.003447  -0.093929  -0.137925  -0.001074  4.000021  -0.002
C  C91  1  0.95808066  0.39258758  0.70230026  1  -0.009609  -0.002566  -0.09341  -0.13592  -0.000797  3.998477  -0.001
C  C92  1  0.05143323  0.83291798  0.12338071  1  1.593377  -0.004536  0.236602  0.636727  -0.001421  4.143719  -0.003
C  C93  1  0.95113233  0.16790210  0.87624672  1  1.553497  -0.006223  0.238306  0.636429  -0.001936  4.138635  -0.004
C  C94  1  0.14678527  0.37077221  0.35035055  1  0.033016  -0.001722  -0.00026  0.080685  -0.00052  3.983417  -0.001
C  C95  1  0.85356169  0.62958549  0.64932562  1  -0.070766  -0.004369  -0.001247  0.079551  -0.001342  3.98398  -0.003
C  C96  1  0.18877791  0.37711562  0.26138893  1  -0.032845  -0.000303  -0.088133  -0.133667  -4.6e-05  3.978779  0.0
C  C97  1  0.81269852  0.62355947  0.73847692  1  0.003673  6.9e-05  -0.088573  -0.134386  0.000346  3.978905  0.0
C  C98  1  0.13689165  0.29188187  0.19808192  1  -0.060098  -0.000759  -0.072543  -0.072978  -0.000192  3.955168  0.0
C  C99  1  0.86592356  0.70877449  0.80141732  1  0.002553  -0.002649  -0.072787  -0.072763  -0.000778  3.953706  -0.002
C  C100  1  0.03891362  0.19916061  0.22191246  1  -0.003261  -0.000445  -0.015092  -0.043465  4e-05  3.981779  0.0
C  C101  1  0.96404984  0.80116789  0.77714336  1  -0.068109  -0.000719  -0.014031  -0.042306  8e-05  3.981236  0.0
C  C102  1  0.99630662  0.19179596  0.31036484  1  -0.091278  -0.00069  -0.080426  -0.081877  -0.000171  3.990232  0.0
C  C103  1  0.00564968  0.80815911  0.68845326  1  -0.051246  -0.002622  -0.080768  -0.082121  -0.000769  3.989542  -0.001
C  C104  1  0.05052117  0.27582398  0.37353073  1  -0.065206  -6.7e-05  -0.093604  -0.143589  0.000104  3.986298  0.0
C  C105  1  0.95007347  0.72416844  0.62562263  1  0.004391  0.00017  -0.094185  -0.145471  0.000421  3.988733  0.0
C  C106  1  0.96967061  0.11380651  0.15504655  1  1.528235  -0.00186  0.220325  0.601656  -0.000538  4.180403  -0.001
C  C107  1  0.03275351  0.88705311  0.84376498  1  1.523214  -0.007516  0.216334  0.59676  -0.002557  4.181575  -0.005
O  O108  1  0.40096002  0.11680458  0.88664284  1  -1.192719  -0.004056  -0.360451  -0.609145  0.002268  2.336318  0.003
O  O109  1  0.59885001  0.88251896  0.11399737  1  -1.195414  -0.000726  -0.350183  -0.601815  0.001154  2.323575  0.001
O  O110  1  0.57722027  0.26031653  0.91825861  1  -1.152643  -0.01166  -0.317019  -0.465149  -0.002928  2.277425  -0.008
O  O111  1  0.41891801  0.74184358  0.08365843  1  -1.149761  -0.002132  -0.30914  -0.456884  -0.00049  2.281692  -0.001
O  O112  1  0.38180709  0.87410823  0.95364189  1  -1.218272  -0.000991  -0.36633  -0.671334  0.001405  2.346472  0.002
O  O113  1  0.61702967  0.12443110  0.04741834  1  -1.209189  -0.00071  -0.369463  -0.672075  0.001374  2.342075  0.002
O  O114  1  0.61913745  0.88331953  0.90932644  1  -1.181597  -2e-05  -0.354278  -0.62389  0.002843  2.247251  0.003
O  O115  1  0.37925373  0.11650411  0.09096026  1  -1.183097  0.000563  -0.352341  -0.619048  0.003504  2.249143  0.004
O  O116  1  0.92011512  0.82220599  0.09480864  1  -1.184186  7.6e-05  -0.362961  -0.633172  0.00251  2.226199  0.003
O  O117  1  0.08269284  0.17919782  0.90443603  1  -1.173668  0.001725  -0.363777  -0.627108  0.003669  2.226155  0.004
O  O118  1  0.15568228  0.89759711  0.09063925  1  -1.193565  -0.002332  -0.377914  -0.647605  0.00022  2.294189  0.001
O  O119  1  0.84791671  0.10243798  0.90934214  1  -1.191106  0.000837  -0.380628  -0.646881  0.003487  2.296567  0.004
O  O120  1  0.85738236  0.04939691  0.17544308  1  -1.165415  0.002275  -0.33757  -0.582762  0.003522  2.200916  0.003
O  O121  1  0.14472048  0.95193517  0.82338853  1  -1.16624  -0.001374  -0.339153  -0.584191  0.001451  2.203197  0.001
O  O122  1  0.01941460  0.10953349  0.07461292  1  -1.210282  -0.000296  -0.399975  -0.724413  0.003096  2.383097  0.004
O  O123  1  0.98222253  0.89168721  0.92412028  1  -1.215483  0.001462  -0.399161  -0.723791  0.004793  2.376779  0.006
