# generated using pymatgen
data_CuPH15C18S3Cl
_symmetry_space_group_name_H-M   'P 1'
_cell_length_a   10.14586005
_cell_length_b   12.39399066
_cell_length_c   12.39465647
_cell_angle_alpha   119.99840187
_cell_angle_beta   89.99678217
_cell_angle_gamma   89.99919755
_symmetry_Int_Tables_number   1
_chemical_formula_structural   CuPH15C18S3Cl
_chemical_formula_sum   'Cu3 P3 H45 C54 S9 Cl3'
_cell_volume   1349.80847531
_cell_formula_units_Z   3
loop_
 _symmetry_equiv_pos_site_id
 _symmetry_equiv_pos_as_xyz
  1  'x, y, z'
loop_
 _atom_site_type_symbol
 _atom_site_label
 _atom_site_symmetry_multiplicity
 _atom_site_fract_x
 _atom_site_fract_y
 _atom_site_fract_z
 _atom_site_occupancy
 _atom_site_pbe_bader_spin_density
 _atom_site_pbe_cm5_charge
 _atom_site_pbe_ddec_charge
 _atom_site_pbe_ddec_spin_density
 _atom_site_pbe_ddec_sum_bond_order
 _atom_site_pbe_magmom
Cu  Cu0  1  0.43692366  0.07696445  0.99771100  1  0  0.372773  0.238856  0  2.844513  0
Cu  Cu1  1  0.77021979  0.00243360  0.07935206  1  0  0.372979  0.238448  0  2.846083  0
Cu  Cu2  1  0.10353869  0.92072730  0.92310172  1  0  0.372894  0.238861  0  2.844584  0
P  P3  1  0.51744841  0.22367612  0.17673310  1  0  -0.039994  0.143532  0  4.262093  0
P  P4  1  0.85067132  0.82346039  0.04713656  1  0  -0.039955  0.144089  0  4.26157  0
P  P5  1  0.18411719  0.95303211  0.77641434  1  0  -0.03983  0.143787  0  4.261813  0
H  H6  1  0.17139430  0.21619098  0.16861454  1  0  0.088635  0.106007  0  1.05211  0
H  H7  1  0.50439896  0.83170516  0.04769258  1  0  0.088543  0.106035  0  1.052571  0
H  H8  1  0.83779243  0.95238051  0.78379782  1  0  0.088804  0.106657  0  1.052386  0
H  H9  1  0.01799953  0.31746699  0.09121605  1  0  0.091834  0.100406  0  1.031696  0
H  H10  1  0.35094929  0.90905201  0.22642631  1  0  0.091836  0.100157  0  1.032531  0
H  H11  1  0.68446002  0.77362102  0.68234838  1  0  0.092204  0.100547  0  1.032169  0
H  H12  1  0.04550607  0.54257519  0.15714692  1  0  0.096572  0.094666  0  1.015921  0
H  H13  1  0.37868971  0.84301066  0.38551688  1  0  0.096514  0.094562  0  1.016173  0
H  H14  1  0.71238787  0.61441903  0.45727440  1  0  0.096381  0.094373  0  1.016468  0
H  H15  1  0.22980492  0.66410245  0.29845728  1  0  0.095556  0.091721  0  1.031004  0
H  H16  1  0.56305645  0.70178477  0.36564291  1  0  0.095465  0.091803  0  1.030527  0
H  H17  1  0.89684246  0.63426147  0.33602063  1  0  0.095306  0.091361  0  1.031021  0
H  H18  1  0.38493639  0.56150626  0.37524004  1  0  0.094728  0.09935  0  1.0276  0
H  H19  1  0.71823492  0.62517950  0.18628513  1  0  0.094812  0.099877  0  1.027498  0
H  H20  1  0.05197556  0.81366247  0.43878113  1  0  0.095011  0.099581  0  1.028431  0
H  H21  1  0.81497594  0.23639016  0.99961224  1  0  0.087101  0.104959  0  1.069044  0
H  H22  1  0.14798130  0.00013201  0.23701713  1  0  0.087201  0.105214  0  1.067814  0
H  H23  1  0.48149573  0.76314080  0.76323822  1  0  0.087152  0.104983  0  1.068664  0
H  H24  1  0.84365998  0.21412612  0.79142909  1  0  0.091737  0.084833  0  1.045395  0
H  H25  1  0.17678490  0.20834693  0.42287724  1  0  0.091791  0.085255  0  1.044577  0
H  H26  1  0.51028071  0.57725036  0.78559031  1  0  0.092045  0.08565  0  1.044239  0
H  H27  1  0.68149613  0.31263901  0.71437264  1  0  0.09488  0.087748  0  1.039061  0
H  H28  1  0.01463622  0.28556646  0.59845423  1  0  0.095066  0.088305  0  1.037937  0
H  H29  1  0.34822047  0.40162694  0.68714916  1  0  0.094999  0.088068  0  1.038002  0
H  H30  1  0.48661617  0.42479912  0.84406668  1  0  0.096989  0.092704  0  1.037751  0
H  H31  1  0.81966185  0.15602139  0.58101108  1  0  0.09718  0.092853  0  1.038554  0
H  H32  1  0.15320077  0.41906105  0.57507626  1  0  0.09714  0.092518  0  1.038642  0
H  H33  1  0.45869274  0.44690610  0.05421544  1  0  0.100308  0.107972  0  1.01744  0
H  H34  1  0.79167179  0.94582757  0.39300881  1  0  0.100994  0.108766  0  1.017887  0
H  H35  1  0.12511359  0.60715951  0.55306649  1  0  0.100787  0.108528  0  1.0179  0
H  H36  1  0.58930906  0.30418775  0.50714331  1  0  0.095142  0.100869  0  1.035481  0
H  H37  1  0.92241860  0.49294834  0.79694777  1  0  0.094943  0.101578  0  1.034606  0
H  H38  1  0.25599213  0.20298249  0.69590327  1  0  0.095092  0.101632  0  1.034184  0
H  H39  1  0.70676357  0.49099646  0.67020167  1  0  0.095172  0.091042  0  1.032411  0
H  H40  1  0.03989667  0.32974708  0.82051772  1  0  0.094969  0.091095  0  1.033137  0
H  H41  1  0.37336582  0.17945422  0.50908983  1  0  0.095217  0.091131  0  1.032776  0
H  H42  1  0.92006055  0.55501612  0.62174691  1  0  0.09233  0.087689  0  1.046361  0
H  H43  1  0.25319910  0.37815219  0.93300541  1  0  0.092554  0.087912  0  1.045829  0
H  H44  1  0.58660473  0.06677438  0.44481140  1  0  0.09238  0.087315  0  1.04645  0
H  H45  1  0.01524079  0.43313432  0.40690957  1  0  0.098353  0.099261  0  1.026576  0
H  H46  1  0.34833710  0.59301290  0.02607404  1  0  0.098198  0.098916  0  1.026383  0
H  H47  1  0.68164635  0.97350762  0.56644444  1  0  0.098389  0.099134  0  1.026978  0
H  H48  1  0.89842196  0.24722680  0.24460794  1  0  0.087473  0.101686  0  1.070981  0
H  H49  1  0.23148393  0.75541353  0.00265201  1  0  0.087055  0.100977  0  1.071586  0
H  H50  1  0.56503754  0.99709180  0.75241286  1  0  0.087562  0.101955  0  1.069908  0
C  C51  1  0.28611768  0.38373294  0.27816471  1  0  -0.017277  0.065428  0  4.020969  0
C  C52  1  0.61920138  0.72223766  0.10565916  1  0  -0.017202  0.066545  0  4.020427  0
C  C53  1  0.95271647  0.89444254  0.61640834  1  0  -0.017215  0.067017  0  4.019124  0
C  C54  1  0.18339737  0.31444098  0.19754822  1  0  -0.094562  -0.125209  0  3.96438  0
C  C55  1  0.51637117  0.80277627  0.11700099  1  0  -0.094314  -0.125045  0  3.964317  0
C  C56  1  0.84984465  0.88307720  0.68555009  1  0  -0.094173  -0.125417  0  3.96616  0
C  C57  1  0.09707250  0.37227179  0.15446859  1  0  -0.09388  -0.072081  0  3.979622  0
C  C58  1  0.43004248  0.84581762  0.21790757  1  0  -0.094006  -0.071707  0  3.980036  0
C  C59  1  0.76357980  0.78212342  0.62763100  1  0  -0.094243  -0.072589  0  3.981433  0
C  C60  1  0.11264004  0.49805764  0.19169205  1  0  -0.0882  -0.073162  0  3.995301  0
C  C61  1  0.44577722  0.80855614  0.30642036  1  0  -0.088337  -0.073134  0  3.99543  0
C  C62  1  0.77942089  0.69356163  0.50189432  1  0  -0.088525  -0.073247  0  3.995257  0
C  C63  1  0.21596558  0.56651019  0.27105705  1  0  -0.095194  -0.080471  0  4.003628  0
C  C64  1  0.54919878  0.72921749  0.29546547  1  0  -0.09502  -0.080568  0  4.003076  0
C  C65  1  0.88291559  0.70449929  0.43359402  1  0  -0.094559  -0.079215  0  4.001457  0
C  C66  1  0.30341603  0.50954954  0.31402953  1  0  -0.093705  -0.130026  0  4.009132  0
C  C67  1  0.63666386  0.68631955  0.19554306  1  0  -0.094029  -0.131749  0  4.011208  0
C  C68  1  0.97034056  0.80446086  0.49065233  1  0  -0.094342  -0.132064  0  4.01079  0
C  C69  1  0.63659030  0.34556277  0.03993941  1  0  -0.015735  0.064782  0  4.03575  0
C  C70  1  0.96961226  0.95996069  0.30601426  1  0  -0.015975  0.06521  0  4.036055  0
C  C71  1  0.30303416  0.69422701  0.65422764  1  0  -0.015716  0.06547  0  4.036402  0
C  C72  1  0.74461501  0.27940777  0.96611400  1  0  -0.091012  -0.114908  0  3.947595  0
C  C73  1  0.07766892  0.03369510  0.31360746  1  0  -0.090997  -0.115502  0  3.947798  0
C  C74  1  0.41116572  0.68658545  0.72027096  1  0  -0.09069  -0.11462  0  3.948195  0
C  C75  1  0.76007864  0.26736687  0.84884152  1  0  -0.090265  -0.064257  0  3.980836  0
C  C76  1  0.09321745  0.15098560  0.41878958  1  0  -0.090294  -0.064818  0  3.981988  0
C  C77  1  0.42667204  0.58139067  0.73238120  1  0  -0.090697  -0.065569  0  3.981032  0
C  C78  1  0.66889370  0.32144133  0.80569842  1  0  -0.089892  -0.074066  0  3.992078  0
C  C79  1  0.00203469  0.19419955  0.51600110  1  0  -0.089985  -0.074398  0  3.99099  0
C  C80  1  0.33554100  0.48413370  0.67833479  1  0  -0.089977  -0.07404  0  3.99122  0
C  C81  1  0.55955543  0.38469753  0.87837817  1  0  -0.095405  -0.077156  0  4.002066  0
C  C82  1  0.89261563  0.12162992  0.50660844  1  0  -0.095642  -0.077502  0  4.001413  0
C  C83  1  0.22610140  0.49351368  0.61517605  1  0  -0.095404  -0.076774  0  4.002156  0
C  C84  1  0.54258873  0.39667325  0.99555678  1  0  -0.092805  -0.126894  0  3.983186  0
C  C85  1  0.87555810  0.00445777  0.40143309  1  0  -0.09335  -0.127747  0  3.984343  0
C  C86  1  0.20903779  0.59874016  0.60325032  1  0  -0.093593  -0.128271  0  3.98426  0
C  C87  1  0.73765059  0.26426925  0.36636751  1  0  -0.017789  0.073353  0  3.999055  0
C  C88  1  0.07070792  0.63370793  0.89795837  1  0  -0.017876  0.073848  0  3.99941  0
C  C89  1  0.40425309  0.10188211  0.73552337  1  0  -0.017879  0.073914  0  3.99795  0
C  C90  1  0.68313007  0.33230854  0.48614379  1  0  -0.094305  -0.127539  0  3.988851  0
C  C91  1  0.01619489  0.51392524  0.84613530  1  0  -0.09434  -0.128891  0  3.9895  0
C  C92  1  0.34976872  0.15379697  0.66762415  1  0  -0.094164  -0.1283  0  3.988566  0
C  C93  1  0.74953441  0.43669389  0.57742654  1  0  -0.095331  -0.081224  0  3.997778  0
C  C94  1  0.08261641  0.42255793  0.85910272  1  0  -0.09469  -0.080798  0  3.998508  0
C  C95  1  0.41609995  0.14077716  0.56322651  1  0  -0.095464  -0.082009  0  3.998979  0
C  C96  1  0.86949531  0.47281076  0.54982776  1  0  -0.089278  -0.078912  0  4.003995  0
C  C97  1  0.20258608  0.45010226  0.92278971  1  0  -0.089891  -0.079394  0  4.003329  0
C  C98  1  0.53603144  0.07701731  0.52700649  1  0  -0.089633  -0.077387  0  4.001523  0
C  C99  1  0.92273352  0.40504727  0.43030719  1  0  -0.090601  -0.074315  0  3.983589  0
C  C100  1  0.25576950  0.56966232  0.97467658  1  0  -0.090011  -0.073383  0  3.983373  0
C  C101  1  0.58917933  0.02505497  0.59462947  1  0  -0.090252  -0.074531  0  3.985028  0
C  C102  1  0.85719755  0.30074206  0.33801000  1  0  -0.091678  -0.119399  0  3.978711  0
C  C103  1  0.19024781  0.66201806  0.96277696  1  0  -0.091513  -0.119451  0  3.979929  0
C  C104  1  0.52376769  0.03701454  0.69895283  1  0  -0.091841  -0.120074  0  3.981164  0
S  S105  1  0.39449644  0.31227832  0.33693714  1  0  -0.006106  -0.09543  0  2.745589  0
S  S106  1  0.72754041  0.66337203  0.97540236  1  0  -0.006018  -0.0958  0  2.745883  0
S  S107  1  0.06102376  0.02473040  0.68795753  1  0  -0.006295  -0.096025  0  2.74432  0
S  S108  1  0.62559692  0.37853855  0.19653305  1  0  0.014064  -0.061978  0  2.746573  0
S  S109  1  0.95857393  0.80342444  0.18220252  1  0  0.014148  -0.062024  0  2.74498  0
S  S110  1  0.29193118  0.81791031  0.62132798  1  0  0.014204  -0.062106  0  2.747056  0
S  S111  1  0.65004558  0.13359746  0.24991413  1  0  -0.033149  -0.06017  0  3.126808  0
S  S112  1  0.98318698  0.75029618  0.88385622  1  0  -0.033276  -0.06051  0  3.126957  0
S  S113  1  0.31684535  0.11618721  0.86635989  1  0  -0.033171  -0.060649  0  3.126072  0
Cl  Cl114  1  0.61566079  0.94296933  0.91976788  1  0  -0.27764  -0.399406  0  1.747214  0
Cl  Cl115  1  0.94898361  0.08028857  0.02328412  1  0  -0.27765  -0.399401  0  1.748582  0
Cl  Cl116  1  0.28226738  0.97685550  0.05710726  1  0  -0.277631  -0.39948  0  1.747543  0
