# generated using pymatgen
data_ZnH17C25S(NO)4
_symmetry_space_group_name_H-M   'P 1'
_cell_length_a   10.38894619
_cell_length_b   10.81709331
_cell_length_c   22.30039704
_cell_angle_alpha   97.00517250
_cell_angle_beta   92.31939118
_cell_angle_gamma   97.59886199
_symmetry_Int_Tables_number   1
_chemical_formula_structural   ZnH17C25S(NO)4
_chemical_formula_sum   'Zn4 H68 C100 S4 N16 O16'
_cell_volume   2461.44408136
_cell_formula_units_Z   4
loop_
 _symmetry_equiv_pos_site_id
 _symmetry_equiv_pos_as_xyz
  1  'x, y, z'
loop_
 _atom_site_type_symbol
 _atom_site_label
 _atom_site_symmetry_multiplicity
 _atom_site_fract_x
 _atom_site_fract_y
 _atom_site_fract_z
 _atom_site_occupancy
 _atom_site_pbe_bader_charge
 _atom_site_pbe_bader_spin_density
 _atom_site_pbe_cm5_charge
 _atom_site_pbe_ddec_charge
 _atom_site_pbe_ddec_spin_density
 _atom_site_pbe_ddec_sum_bond_order
 _atom_site_pbe_magmom
Zn  Zn0  1  0.00094424  0.34397714  0.35602676  1  1.254318  0  0.696831  0.800042  0  2.354145  0
Zn  Zn1  1  0.99905489  0.65602202  0.64397154  1  1.254358  0  0.696841  0.800113  0  2.354024  0
Zn  Zn2  1  0.60127759  0.76863473  0.05607337  1  1.257058  0  0.699434  0.806811  0  2.359355  0
Zn  Zn3  1  0.39872508  0.23136822  0.94392787  1  1.257046  0  0.69948  0.80691  0  2.359379  0
H  H4  1  0.59649563  0.99175605  0.26957526  1  0.462998  0  0.340991  0.307581  0  0.895973  0
H  H5  1  0.40350679  0.00824502  0.73042632  1  0.463052  0  0.34101  0.30765  0  0.895864  0
H  H6  1  0.00358932  0.12338464  0.14057654  1  0.518567  0  0.346808  0.315982  0  0.88259  0
H  H7  1  0.99641147  0.87660605  0.85942219  1  0.5186  0  0.346836  0.316032  0  0.882565  0
H  H8  1  0.67952725  0.25089208  0.25882804  1  0.112686  0  0.100973  0.121145  0  1.045642  0
H  H9  1  0.32047338  0.74910994  0.74117358  1  0.112676  0  0.100983  0.121174  0  1.045614  0
H  H10  1  0.73474058  0.38992516  0.17851221  1  0.049251  0  0.098066  0.098894  0  1.008571  0
H  H11  1  0.26525634  0.61007783  0.82148943  1  0.049301  0  0.098084  0.098939  0  1.008626  0
H  H12  1  0.73498187  0.29732143  0.07070505  1  0.083978  0  0.102144  0.106068  0  1.009359  0
H  H13  1  0.26501309  0.70268155  0.92929567  1  0.084059  0  0.102162  0.106049  0  1.009352  0
H  H14  1  0.68824988  0.06900997  0.04013888  1  0.092728  0  0.10796  0.130664  0  1.023963  0
H  H15  1  0.31174207  0.93099209  0.95986220  1  0.092767  0  0.107935  0.130631  0  1.024006  0
H  H16  1  0.64281638  0.81232316  0.30003797  1  0.085256  0  0.098828  0.105493  0  1.038126  0
H  H17  1  0.35718530  0.18767320  0.69996244  1  0.085249  0  0.098823  0.105476  0  1.038125  0
H  H18  1  0.46869605  0.80904797  0.29989060  1  0.083337  0  0.099703  0.113695  0  1.002645  0
H  H19  1  0.53130593  0.19095028  0.70011037  1  0.083289  0  0.099723  0.113729  0  1.002654  0
H  H20  1  0.74167816  0.61482218  0.30652548  1  0.093373  0  0.102791  0.109758  0  1.026746  0
H  H21  1  0.25831772  0.38516850  0.69347051  1  0.093341  0  0.102756  0.109688  0  1.026731  0
H  H22  1  0.50600330  0.31391185  0.37596665  1  0.139546  0  0.107617  0.115754  0  1.013667  0
H  H23  1  0.49399292  0.68608643  0.62403471  1  0.139575  0  0.107615  0.115735  0  1.013732  0
H  H24  1  0.32760142  0.61680781  0.31581948  1  0.109872  0  0.099287  0.10521  0  1.060107  0
H  H25  1  0.67239961  0.38319134  0.68417840  1  0.109353  0  0.09933  0.105309  0  1.060082  0
H  H26  1  0.92725503  0.86313413  0.15302413  1  0.092224  0  0.106113  0.12644  0  1.030795  0
H  H27  1  0.07273843  0.13685851  0.84697687  1  0.092608  0  0.10615  0.126508  0  1.030725  0
H  H28  1  0.86662857  0.72721434  0.23359169  1  0.032797  0  0.099232  0.099144  0  1.008329  0
H  H29  1  0.13337353  0.27278395  0.76641243  1  0.032793  0  0.099227  0.099122  0  1.008329  0
H  H30  1  0.86138020  0.82134058  0.34066324  1  0.056408  0  0.095996  0.093458  0  1.016555  0
H  H31  1  0.13862533  0.17866145  0.65934068  1  0.056472  0  0.095989  0.09341  0  1.016552  0
H  H32  1  0.91512745  0.05282831  0.37062795  1  0.099796  0  0.101856  0.107264  0  1.024205  0
H  H33  1  0.08486971  0.94717654  0.62937290  1  0.099849  0  0.101884  0.107274  0  1.02422  0
H  H34  1  0.12787756  0.30350008  0.10696961  1  0.083946  0  0.100737  0.116555  0  0.993156  0
H  H35  1  0.87212085  0.69649438  0.89302796  1  0.083739  0  0.100741  0.116539  0  0.993124  0
H  H36  1  0.95457393  0.30446195  0.10996877  1  0.09759  0  0.100778  0.109551  0  1.037087  0
H  H37  1  0.04542368  0.69553346  0.89002930  1  0.098028  0  0.100781  0.109611  0  1.037086  0
H  H38  1  0.85791880  0.49781224  0.09678500  1  0.066323  0  0.104028  0.113571  0  1.023535  0
H  H39  1  0.14208167  0.50218314  0.90321265  1  0.066331  0  0.104004  0.113567  0  1.023439  0
H  H40  1  0.10201171  0.80898472  0.04036540  1  0.114744  0  0.106033  0.114924  0  1.008847  0
H  H41  1  0.89798754  0.19101449  0.95963604  1  0.114701  0  0.106056  0.114996  0  1.008943  0
H  H42  1  0.27391659  0.50038232  0.09863524  1  0.095117  0  0.097107  0.095617  0  1.074413  0
H  H43  1  0.72608433  0.49961589  0.90136347  1  0.09503  0  0.097114  0.095639  0  1.074407  0
H  H44  1  0.82180562  0.19168546  0.45177840  1  0.164063  0  0.141529  0.117839  0  0.994639  0
H  H45  1  0.17819763  0.80830898  0.54822013  1  0.164094  0  0.141534  0.117811  0  0.994643  0
H  H46  1  0.17401939  0.43972961  0.47407504  1  0.129345  0  0.125849  0.126303  0  0.987219  0
H  H47  1  0.82597367  0.56028086  0.52592294  1  0.12896  0  0.125884  0.12639  0  0.987135  0
H  H48  1  0.10531016  0.37766107  0.58693609  1  0.175938  0  0.121673  0.130804  0  1.05048  0
H  H49  1  0.89468569  0.62234846  0.41306277  1  0.175964  0  0.121651  0.13079  0  1.050333  0
H  H50  1  0.84694987  0.01716502  0.52612198  1  0.085175  0  0.105792  0.112124  0  0.996181  0
H  H51  1  0.15304986  0.98283792  0.47387789  1  0.085163  0  0.10577  0.112105  0  0.9962  0
H  H52  1  0.75432396  0.91262857  0.60911833  1  0.127892  0  0.106769  0.127849  0  1.026855  0
H  H53  1  0.24567936  0.08737248  0.39088192  1  0.127866  0  0.10675  0.127842  0  1.026877  0
H  H54  1  0.81663097  0.26848120  0.72544591  1  0.05903  0  0.103613  0.102109  0  1.008324  0
H  H55  1  0.18337731  0.73152076  0.27455444  1  0.058711  0  0.103607  0.102128  0  1.008262  0
H  H56  1  0.90653570  0.37192633  0.64202640  1  0.166493  0  0.10926  0.133586  0  1.033923  0
H  H57  1  0.09346885  0.62807658  0.35797352  1  0.166243  0  0.109261  0.133584  0  1.033977  0
H  H58  1  0.65428637  0.84128810  0.67146109  1  0.127863  0  0.103697  0.112847  0  1.064125  0
H  H59  1  0.34572152  0.15871105  0.32854000  1  0.127834  0  0.103706  0.112866  0  1.064093  0
H  H60  1  0.59357251  0.72812187  0.75540528  1  0.062657  0  0.101059  0.103325  0  1.04182  0
H  H61  1  0.40643150  0.27187729  0.24459487  1  0.062639  0  0.101067  0.103334  0  1.041792  0
H  H62  1  0.72935866  0.06167274  0.88065713  1  0.165636  0  0.106637  0.121437  0  1.058636  0
H  H63  1  0.27064376  0.93832833  0.11934445  1  0.165649  0  0.1066  0.121381  0  1.058729  0
H  H64  1  0.79168279  0.17488067  0.79666365  1  0.075024  0  0.099565  0.097048  0  1.026069  0
H  H65  1  0.20832234  0.82511944  0.20333701  1  0.074538  0  0.099584  0.097049  0  1.026031  0
H  H66  1  0.64623183  0.96682315  0.94845606  1  0.202782  0  0.141443  0.123102  0  1.033137  0
H  H67  1  0.35376512  0.03318073  0.05154294  1  0.202819  0  0.141417  0.123107  0  1.033147  0
H  H68  1  0.55283324  0.57260457  0.94475588  1  0.160405  0  0.128243  0.136648  0  0.99182  0
H  H69  1  0.44717264  0.42740025  0.05524640  1  0.16038  0  0.128213  0.136592  0  0.991808  0
H  H70  1  0.59301887  0.62531530  0.82825006  1  0.124283  0  0.125162  0.124109  0  1.013376  0
H  H71  1  0.40698837  0.37468575  0.17175202  1  0.124151  0  0.125116  0.12402  0  1.013441  0
C  C72  1  0.59136521  0.87659473  0.18484194  1  0.945457  0  0.228797  0.280838  0  4.085827  0
C  C73  1  0.40863556  0.12340823  0.81515974  1  0.945528  0  0.228739  0.280755  0  4.085862  0
C  C74  1  0.65152520  0.08420415  0.19315697  1  0.336735  0  0.088503  0.144751  0  4.034991  0
C  C75  1  0.34847254  0.91579788  0.80684462  1  0.336849  0  0.088387  0.14461  0  4.035015  0
C  C76  1  0.68171536  0.21286163  0.21154412  1  -0.001833  0  -0.100806  -0.170536  0  3.989777  0
C  C77  1  0.31828254  0.78714136  0.78845797  1  -0.001781  0  -0.100789  -0.170547  0  3.98987  0
C  C78  1  0.71281562  0.28833114  0.16634249  1  -0.112166  0  -0.104277  -0.104631  0  4.057936  0
C  C79  1  0.28718210  0.71167089  0.83365865  1  -0.112136  0  -0.104297  -0.104737  0  4.058054  0
C  C80  1  0.71457545  0.23582215  0.10541904  1  0.007235  0  -0.10371  -0.101902  0  4.044762  0
C  C81  1  0.28541664  0.76418085  0.89458210  1  0.007125  0  -0.103789  -0.10186  0  4.044662  0
C  C82  1  0.68697478  0.10655871  0.08753527  1  0.033498  0  -0.093177  -0.156647  0  3.962176  0
C  C83  1  0.31301911  0.89344334  0.91246628  1  0.03329  0  -0.093183  -0.156722  0  3.962226  0
C  C84  1  0.65406938  0.03025845  0.13232604  1  0.359626  0  0.085282  0.147444  0  4.047336  0
C  C85  1  0.34592565  0.96974456  0.86767648  1  0.359532  0  0.085412  0.147689  0  4.047144  0
C  C86  1  0.54812630  0.75666795  0.28531912  1  -0.100938  0  -0.143438  -0.230543  0  3.913386  0
C  C87  1  0.45187466  0.24333028  0.71468050  1  -0.100806  0  -0.143429  -0.230523  0  3.913396  0
C  C88  1  0.53612254  0.63183410  0.30936958  1  -0.002221  0  -0.020457  0.115624  0  4.000047  0
C  C89  1  0.46387096  0.36815945  0.69062879  1  -0.002558  0  -0.020465  0.115551  0  4.000017  0
C  C90  1  0.64622674  0.57270011  0.31815495  1  -0.055381  0  -0.082857  -0.146136  0  3.921755  0
C  C91  1  0.35376890  0.42729618  0.68183866  1  -0.055069  0  -0.082812  -0.145951  0  3.921691  0
C  C92  1  0.63565072  0.45791882  0.34184258  1  -0.028314  0  -0.02303  -0.031583  0  3.990541  0
C  C93  1  0.36434986  0.54207749  0.65815423  1  -0.028457  0  -0.023062  -0.031763  0  3.990676  0
C  C94  1  0.51379822  0.40230931  0.35679038  1  -0.023352  0  -0.075675  -0.105612  0  3.927234  0
C  C95  1  0.48620544  0.59768795  0.64320786  1  -0.023377  0  -0.075605  -0.105503  0  3.92725  0
C  C96  1  0.40260848  0.45882433  0.34703848  1  -0.040357  0  -0.01819  -0.02634  0  3.977223  0
C  C97  1  0.59738888  0.54116920  0.65296038  1  -0.040018  0  -0.018299  -0.026407  0  3.977145  0
C  C98  1  0.41454941  0.57318751  0.32296099  1  -0.095245  0  -0.085137  -0.144708  0  3.920602  0
C  C99  1  0.58544465  0.42680322  0.67703767  1  -0.094717  0  -0.085161  -0.144781  0  3.920473  0
C  C100  1  0.75276153  0.39225290  0.35039010  1  1.536044  0  0.193681  0.55686  0  4.226577  0
C  C101  1  0.24723384  0.60774062  0.64960694  1  1.536773  0  0.193576  0.556784  0  4.226556  0
C  C102  1  0.27188959  0.39523357  0.36188178  1  1.553822  0  0.197739  0.557337  0  4.224644  0
C  C103  1  0.72810698  0.60476750  0.63811795  1  1.553539  0  0.197714  0.557328  0  4.224559  0
C  C104  1  0.01545667  0.23897637  0.22543187  1  0.895159  0  0.229762  0.285277  0  4.081259  0
C  C105  1  0.98454304  0.76101998  0.77456717  1  0.895315  0  0.229704  0.285207  0  4.081333  0
C  C106  1  0.95527752  0.03131264  0.21801222  1  0.299542  0  0.096784  0.156901  0  4.016036  0
C  C107  1  0.04471725  0.96868280  0.78198717  1  0.299549  0  0.09683  0.15699  0  4.015941  0
C  C108  1  0.92435979  0.90263905  0.20012387  1  0.067281  0  -0.094617  -0.159504  0  3.96367  0
C  C109  1  0.07563589  0.09735548  0.79987772  1  0.067232  0  -0.0947  -0.159672  0  3.963638  0
C  C110  1  0.89006340  0.82869723  0.24557987  1  0.05896  0  -0.098775  -0.09504  0  4.036986  0
C  C111  1  0.10993593  0.17130201  0.75442382  1  0.0586  0  -0.098718  -0.094964  0  4.036899  0
C  C112  1  0.88569515  0.88249260  0.30615917  1  -0.066826  0  -0.107225  -0.109268  0  4.072011  0
C  C113  1  0.11430842  0.11750943  0.69384383  1  -0.06666  0  -0.1072  -0.109141  0  4.072037  0
C  C114  1  0.91642011  0.01164663  0.32365526  1  -0.122346  0  -0.095395  -0.158644  0  3.989545  0
C  C115  1  0.08357975  0.98835725  0.67634422  1  -0.122497  0  -0.095448  -0.158701  0  3.989518  0
C  C116  1  0.95274542  0.08641204  0.27864936  1  0.399336  0  0.087708  0.154091  0  4.037913  0
C  C117  1  0.04725376  0.91358714  0.72135029  1  0.399382  0  0.087718  0.154111  0  4.037594  0
C  C118  1  0.05105451  0.35763757  0.12328988  1  -0.178837  0  -0.138978  -0.225665  0  3.898219  0
C  C119  1  0.94894482  0.64235686  0.87670681  1  -0.179277  0  -0.138963  -0.225627  0  3.898206  0
C  C120  1  0.06471079  0.48327117  0.10004513  1  -0.092204  0  -0.019763  0.115113  0  4.002983  0
C  C121  1  0.93528898  0.51672609  0.89995217  1  -0.092187  0  -0.019811  0.114952  0  4.003165  0
C  C122  1  0.95533213  0.54168739  0.08899606  1  0.073877  0  -0.079601  -0.139037  0  3.91254  0
C  C123  1  0.04466822  0.45830706  0.91100198  1  0.074226  0  -0.07959  -0.138991  0  3.912341  0
C  C124  1  0.96850823  0.65882469  0.06759807  1  -0.090751  0  -0.021216  -0.026846  0  3.980133  0
C  C125  1  0.03149035  0.34117072  0.93240046  1  -0.090951  0  -0.021167  -0.026774  0  3.98001  0
C  C126  1  0.09229902  0.71782316  0.05711012  1  -0.018577  0  -0.076964  -0.108093  0  3.924884  0
C  C127  1  0.90770086  0.28217414  0.94288988  1  -0.018201  0  -0.076988  -0.108176  0  3.924975  0
C  C128  1  0.20250021  0.66057882  0.06826380  1  0.003745  0  -0.023466  -0.034596  0  3.98881  0
C  C129  1  0.79750217  0.33942224  0.93173688  1  0.003698  0  -0.023483  -0.034586  0  3.988817  0
C  C130  1  0.18770290  0.54386829  0.09003817  1  -0.037348  0  -0.084204  -0.141045  0  3.933588  0
C  C131  1  0.81229786  0.45612897  0.90995959  1  -0.037367  0  -0.084197  -0.141056  0  3.933682  0
C  C132  1  0.85079581  0.72369120  0.05825576  1  1.558869  0  0.186281  0.55275  0  4.246937  0
C  C133  1  0.14920336  0.27630709  0.94174742  1  1.558865  0  0.186219  0.552611  0  4.246946  0
C  C134  1  0.33611297  0.72416101  0.05820046  1  1.553007  0  0.201383  0.562405  0  4.214439  0
C  C135  1  0.66388649  0.27584005  0.94179930  1  1.553563  0  0.201449  0.562462  0  4.214326  0
C  C136  1  0.91115631  0.24631131  0.47223336  1  0.982599  0  0.144014  0.090581  0  3.896946  0
C  C137  1  0.08884379  0.75368786  0.52776540  1  0.982315  0  0.143992  0.090591  0  3.896937  0
C  C138  1  0.09154135  0.37782402  0.48632803  1  0.486225  0  0.004512  -0.012708  0  3.992582  0
C  C139  1  0.90845241  0.62218457  0.51367030  1  0.486951  0  0.004474  -0.012866  0  3.992577  0
C  C140  1  0.06044149  0.34615119  0.54198524  1  0.21207  0  -0.000871  -0.10339  0  3.893383  0
C  C141  1  0.93955439  0.65385835  0.45801452  1  0.211594  0  -0.000752  -0.103275  0  3.893284  0
C  C142  1  0.88327842  0.20128551  0.57881219  1  0.263877  0  0.087589  0.154625  0  4.03301  0
C  C143  1  0.11672240  0.79871836  0.42118730  1  0.263997  0  0.087586  0.154743  0  4.033059  0
C  C144  1  0.83677586  0.07268829  0.56949264  1  -0.054364  0  -0.095904  -0.17166  0  4.014253  0
C  C145  1  0.16322720  0.92731089  0.43050795  1  -0.053991  0  -0.095944  -0.171733  0  4.014338  0
C  C146  1  0.78335254  0.01415274  0.61681717  1  -0.020999  0  -0.082712  -0.10846  0  3.936299  0
C  C147  1  0.21665178  0.98584832  0.38318398  1  -0.021272  0  -0.082645  -0.108426  0  3.936332  0
C  C148  1  0.77535188  0.08218261  0.67443888  1  0.04901  0  -0.01078  0.054775  0  3.996382  0
C  C149  1  0.22465832  0.91781934  0.32556150  1  0.048356  0  -0.010854  0.054648  0  3.99657  0
C  C150  1  0.82095345  0.21169161  0.68188512  1  -0.104216  0  -0.086865  -0.110301  0  3.98333  0
C  C151  1  0.17905332  0.78831318  0.31811538  1  -0.103346  0  -0.086793  -0.110183  0  3.983053  0
C  C152  1  0.87439617  0.27111752  0.63500488  1  -0.028855  0  -0.089748  -0.160008  0  3.971571  0
C  C153  1  0.12561090  0.72888258  0.36499625  1  -0.028776  0  -0.089761  -0.160093  0  3.971528  0
C  C154  1  0.72880171  0.01820411  0.72608060  1  0.046549  0  -0.014829  0.04649  0  4.006326  0
C  C155  1  0.27120723  0.98179597  0.27391920  1  0.046669  0  -0.01486  0.046487  0  4.00648  0
C  C156  1  0.67070272  0.89189438  0.71692659  1  -0.125206  0  -0.094767  -0.118916  0  3.962185  0
C  C157  1  0.32930557  0.10810759  0.28307422  1  -0.125244  0  -0.094814  -0.11904  0  3.962357  0
C  C158  1  0.63770723  0.82586498  0.76498028  1  0.014384  0  -0.097852  -0.167603  0  4.009175  0
C  C159  1  0.36229510  0.17413606  0.23501906  1  0.01438  0  -0.097841  -0.167462  0  4.009213  0
C  C160  1  0.66040178  0.88542807  0.82435271  1  0.196918  0  0.090675  0.165101  0  4.02229  0
C  C161  1  0.33959962  0.11457299  0.17564751  1  0.196901  0  0.090708  0.165066  0  4.02235  0
C  C162  1  0.71371132  0.01238831  0.83480661  1  0.06673  0  -0.100445  -0.17239  0  3.968964  0
C  C163  1  0.28629187  0.98761179  0.16519358  1  0.066711  0  -0.100473  -0.172402  0  3.969038  0
C  C164  1  0.74700362  0.07726583  0.78628457  1  -0.157992  0  -0.089434  -0.113059  0  3.995391  0
C  C165  1  0.25299955  0.92273427  0.21371518  1  -0.157453  0  -0.089373  -0.112946  0  3.995366  0
C  C166  1  0.62833290  0.86657812  0.93295374  1  0.94677  0  0.156451  0.115919  0  3.840364  0
C  C167  1  0.37166619  0.13342672  0.06704712  1  0.946639  0  0.15644  0.115914  0  3.840756  0
C  C168  1  0.57835171  0.66256998  0.92827973  1  0.396322  0  0.01006  -0.017057  0  3.953518  0
C  C169  1  0.42165196  0.33743297  0.07172243  1  0.39651  0  0.010113  -0.016891  0  3.95336  0
C  C170  1  0.59792830  0.68731973  0.87038786  1  0.274004  0  0.001118  -0.105575  0  3.928956  0
C  C171  1  0.40207465  0.31268510  0.12961350  1  0.274267  0  0.001155  -0.105524  0  3.928969  0
S  S172  1  0.53922184  0.72728861  0.20252395  1  0.161054  0  0.0598  0.040832  0  2.667776  0
S  S173  1  0.46077761  0.27271245  0.79747581  1  0.16096  0  0.059803  0.040837  0  2.667727  0
S  S174  1  0.06718919  0.38716020  0.20635971  1  0.205959  0  0.055333  0.031093  0  2.655764  0
S  S175  1  0.93281032  0.61283518  0.79363793  1  0.2058  0  0.055379  0.031125  0  2.655783  0
N  N176  1  0.61676702  0.90088115  0.12870123  1  -1.224168  0  -0.352634  -0.384444  0  3.500479  0
N  N177  1  0.38323088  0.09912183  0.87130087  1  -1.224178  0  -0.35262  -0.384457  0  3.500596  0
N  N178  1  0.61182256  0.98449805  0.22482114  1  -1.256343  0  -0.375653  -0.30685  0  3.614132  0
N  N179  1  0.38817711  0.01550398  0.77518047  1  -1.256282  0  -0.375613  -0.306864  0  3.61398  0
N  N180  1  0.99057684  0.21549396  0.28187633  1  -1.211199  0  -0.352469  -0.385634  0  3.487347  0
N  N181  1  0.00942092  0.78450239  0.71812224  1  -1.211306  0  -0.352514  -0.385684  0  3.487178  0
N  N182  1  0.99537507  0.13027841  0.18595434  1  -1.241988  0  -0.374367  -0.306948  0  3.594846  0
N  N183  1  0.00462325  0.86971512  0.81404453  1  -1.242187  0  -0.374414  -0.307045  0  3.594951  0
N  N184  1  0.99817729  0.31533268  0.44334093  1  -1.249424  0  -0.355084  -0.285051  0  3.633152  0
N  N185  1  0.00181853  0.68467025  0.55665710  1  -1.249376  0  -0.355134  -0.285093  0  3.63308  0
N  N186  1  0.94633757  0.26180356  0.53247710  1  -1.281181  0  -0.221076  0.016514  0  3.799503  0
N  N187  1  0.05366185  0.73819748  0.46752176  1  -1.280744  0  -0.221087  0.016511  0  3.799596  0
N  N188  1  0.62990757  0.81701856  0.87359842  1  -1.239202  0  -0.220513  0.00894  0  3.786603  0
N  N189  1  0.37009220  0.18298440  0.12640235  1  -1.239451  0  -0.220534  0.008887  0  3.786831  0
N  N190  1  0.59820927  0.77494830  0.96657629  1  -1.212545  0  -0.352001  -0.271566  0  3.608687  0
N  N191  1  0.40179093  0.22505748  0.03342509  1  -1.212532  0  -0.351959  -0.271647  0  3.60889  0
O  O192  1  0.86462325  0.45556140  0.34216925  1  -1.171277  0  -0.338325  -0.567654  0  2.296831  0
O  O193  1  0.13537075  0.54443589  0.65782799  1  -1.171392  0  -0.338298  -0.567619  0  2.296799  0
O  O194  1  0.73843944  0.28179861  0.36347100  1  -1.184081  0  -0.334984  -0.568328  0  2.113945  0
O  O195  1  0.26155920  0.71819682  0.63652888  1  -1.184654  0  -0.334932  -0.568284  0  2.114045  0
O  O196  1  0.26512527  0.29735609  0.38681230  1  -1.179274  0  -0.320512  -0.551036  0  2.183301  0
O  O197  1  0.73487310  0.70264404  0.61318785  1  -1.179293  0  -0.32042  -0.550922  0  2.183256  0
O  O198  1  0.17201192  0.44831338  0.34684698  1  -1.172043  0  -0.33649  -0.56806  0  2.337168  0
O  O199  1  0.82798404  0.55168391  0.65315118  1  -1.172007  0  -0.336488  -0.568112  0  2.337162  0
O  O200  1  0.73994403  0.66022607  0.06769000  1  -1.168525  0  -0.344972  -0.56205  0  2.256006  0
O  O201  1  0.26005527  0.33977315  0.93231280  1  -1.168408  0  -0.344981  -0.562019  0  2.255953  0
O  O202  1  0.86485355  0.83341034  0.04426360  1  -1.178105  0  -0.348555  -0.57471  0  2.080247  0
O  O203  1  0.13514484  0.16658892  0.95574053  1  -1.178224  0  -0.348513  -0.574658  0  2.080325  0
O  O204  1  0.35002577  0.83412657  0.04428895  1  -1.191857  0  -0.321106  -0.568499  0  2.223667  0
O  O205  1  0.64997097  0.16587546  0.95571173  1  -1.192352  0  -0.321128  -0.568522  0  2.22361  0
O  O206  1  0.43145990  0.66027965  0.06563902  1  -1.173685  0  -0.335163  -0.558681  0  2.290202  0
O  O207  1  0.56854002  0.33972426  0.93436225  1  -1.173758  0  -0.335187  -0.558703  0  2.290252  0
