# generated using pymatgen
data_CuH16C13(NO2)2
_symmetry_space_group_name_H-M   'P 1'
_cell_length_a   8.11296254
_cell_length_b   11.45304861
_cell_length_c   14.83810000
_cell_angle_alpha   108.30552816
_cell_angle_beta   90.00000000
_cell_angle_gamma   90.00000000
_symmetry_Int_Tables_number   1
_chemical_formula_structural   CuH16C13(NO2)2
_chemical_formula_sum   'Cu4 H64 C52 N8 O16'
_cell_volume   1308.95853705
_cell_formula_units_Z   4
loop_
 _symmetry_equiv_pos_site_id
 _symmetry_equiv_pos_as_xyz
  1  'x, y, z'
loop_
 _atom_site_type_symbol
 _atom_site_label
 _atom_site_symmetry_multiplicity
 _atom_site_fract_x
 _atom_site_fract_y
 _atom_site_fract_z
 _atom_site_occupancy
 _atom_site_hle17_ddec_charge
 _atom_site_hle17_ddec_spin_density
 _atom_site_hle17_ddec_sum_bond_order
 _atom_site_hle17_magmom
 _atom_site_hse06_10hf_ddec_charge
 _atom_site_hse06_10hf_ddec_spin_density
 _atom_site_hse06_10hf_ddec_sum_bond_order
 _atom_site_hse06_10hf_magmom
 _atom_site_hse06_ddec_charge
 _atom_site_hse06_ddec_spin_density
 _atom_site_hse06_ddec_sum_bond_order
 _atom_site_hse06_magmom
 _atom_site_pbe_bader_charge
 _atom_site_pbe_bader_spin_density
 _atom_site_pbe_cm5_charge
 _atom_site_pbe_ddec_charge
 _atom_site_pbe_ddec_spin_density
 _atom_site_pbe_ddec_sum_bond_order
 _atom_site_pbe_magmom
Cu  Cu0  1  0.93189386  0.05818474  0.94710868  1  0.822933  -0.663102  1.909423  -0.479  0.809557  -0.796927  2.322154  -0.632  0.915819  -0.889176  2.236887  -0.735  1.055989  -0.538017  0.671118  0.741813  -0.691379  2.382357  -0.536
Cu  Cu1  1  0.43189032  0.44181392  0.55288897  1  0.822943  0.663078  1.909172  0.479  0.809579  0.796906  2.3218  0.632  0.915807  0.889175  2.236659  0.735  1.05609  0.538725  0.671027  0.74173  0.691878  2.381932  0.536
Cu  Cu2  1  0.06810582  0.94180890  0.05288236  1  0.822894  0.663067  1.909043  0.479  0.809529  0.796892  2.32165  0.632  0.915763  0.889161  2.236533  0.735  1.056136  0.538551  0.670926  0.741716  0.691802  2.381767  0.536
Cu  Cu3  1  0.56810074  0.55819260  0.44711261  1  0.82285  -0.663048  1.909201  -0.478  0.809478  -0.796884  2.321749  -0.632  0.915762  -0.88916  2.236586  -0.735  1.056033  -0.538553  0.671025  0.741678  -0.691975  2.38185  -0.536
H  H4  1  0.84606948  0.31665331  0.94068861  1  0.07565  5.8e-05  0.971121  0.0  0.081239  5.8e-05  1.044183  0.0  0.084684  6e-05  1.040455  0.0  0.085536  3.1e-05  0.113207  0.078654  3e-05  1.046988  0.0
H  H5  1  0.34606224  0.18334811  0.55931174  1  0.075633  -5.5e-05  0.971225  0.0  0.081195  -5.8e-05  1.044285  0.0  0.084645  -6e-05  1.040564  0.0  0.085569  -2.3e-05  0.113193  0.078605  -2.5e-05  1.04711  0.0
H  H6  1  0.15393390  0.68334585  0.05931456  1  0.075589  -5.7e-05  0.971254  0.0  0.081183  -5.8e-05  1.044313  0.0  0.084632  -6e-05  1.040593  0.0  0.085558  -9.7e-05  0.113195  0.078594  -6.7e-05  1.047125  0.0
H  H7  1  0.65393498  0.81666209  0.44068332  1  0.075619  5.6e-05  0.9712  0.0  0.081163  5.8e-05  1.044319  0.0  0.084601  6e-05  1.0406  0.0  0.085052  9e-05  0.113173  0.078568  6.3e-05  1.047145  0.0
H  H8  1  0.74497078  0.41934271  0.82595871  1  0.096148  -2.6e-05  0.969642  0.0  0.105297  -4e-05  1.03502  0.0  0.109415  -2.8e-05  1.032592  0.0  0.086601  -5.4e-05  0.103506  0.102308  -5.1e-05  1.036972  0.0
H  H9  1  0.24497217  0.08065595  0.67404164  1  0.096142  2.4e-05  0.969642  0.0  0.105265  4e-05  1.035055  0.0  0.109383  2.8e-05  1.032628  0.0  0.086576  5.9e-05  0.103493  0.102284  5.4e-05  1.036978  0.0
H  H10  1  0.25502645  0.58065737  0.17404670  1  0.096117  2.4e-05  0.969729  0.0  0.105253  4e-05  1.03513  0.0  0.109372  2.8e-05  1.032702  0.0  0.086594  2.1e-05  0.103504  0.102267  3.3e-05  1.037072  0.0
H  H11  1  0.75503122  0.91934965  0.32595298  1  0.096045  -2.4e-05  0.96976  0.0  0.105216  -4e-05  1.035132  0.0  0.109331  -2.8e-05  1.032709  0.0  0.086435  -1.7e-05  0.103514  0.102231  -3.1e-05  1.037064  0.0
H  H12  1  0.66857452  0.29020269  0.66159973  1  0.110847  1.7e-05  0.964906  0.0  0.119799  1.5e-05  1.028664  0.0  0.123436  -1.3e-05  1.025862  0.0  0.124463  5.5e-05  0.106202  0.117079  5.2e-05  1.030931  0.0
H  H13  1  0.16857221  0.20979873  0.83840196  1  0.110901  -1.6e-05  0.964812  0.0  0.119791  -1.5e-05  1.028646  0.0  0.123427  1.3e-05  1.025844  0.0  0.124466  -6.4e-05  0.1062  0.117092  -5.6e-05  1.030862  0.0
H  H14  1  0.33142147  0.70979831  0.33840725  1  0.110792  -1.6e-05  0.964969  0.0  0.119678  -1.5e-05  1.028816  0.0  0.123313  1.3e-05  1.026017  0.0  0.12439  -3.5e-05  0.106175  0.116969  -4.2e-05  1.031058  0.0
H  H15  1  0.83142378  0.79020779  0.16159018  1  0.11073  1.6e-05  0.964837  0.0  0.119622  1.5e-05  1.028682  0.0  0.123257  -1.3e-05  1.025884  0.0  0.124265  2.2e-05  0.10617  0.116913  3.5e-05  1.030908  0.0
H  H16  1  0.78894238  0.97159976  0.74608798  1  0.078465  2.6e-05  0.958671  0.0  0.086526  2.8e-05  1.026997  0.0  0.090371  4.2e-05  1.023244  0.0  0.056322  2.1e-05  0.112497  0.083582  -1e-06  1.030006  0.0
H  H17  1  0.28894254  0.52839898  0.75391036  1  0.0785  -2.9e-05  0.958648  0.0  0.086568  -2.8e-05  1.026978  0.0  0.090412  -4.2e-05  1.023227  0.0  0.056361  -2.7e-05  0.112531  0.083652  -3e-06  1.029971  0.0
H  H18  1  0.21106470  0.02839940  0.25391518  1  0.07856  -2.8e-05  0.958558  0.0  0.086606  -2.8e-05  1.026914  0.0  0.090451  -4.2e-05  1.023162  0.0  0.056363  -4.3e-05  0.112511  0.08366  -1.1e-05  1.029922  0.0
H  H19  1  0.71105961  0.47161122  0.24609009  1  0.078439  2.6e-05  0.958678  0.0  0.086487  2.8e-05  1.027032  0.0  0.090327  4.2e-05  1.023287  0.0  0.056539  4e-05  0.112538  0.083569  9e-06  1.030012  0.0
H  H20  1  0.63129344  0.94899244  0.59167175  1  0.072651  -6.7e-05  0.938376  0.0  0.088197  -7e-05  1.005984  0.0  0.089827  -3.6e-05  1.004133  0.0  0.037616  -8.7e-05  0.104014  0.086903  -0.000104  1.007514  0.0
H  H21  1  0.13130222  0.55100998  0.90833086  1  0.072591  6.5e-05  0.938491  0.0  0.08812  7e-05  1.006146  0.0  0.089751  3.6e-05  1.004296  0.0  0.037636  6.7e-05  0.103983  0.086813  9.4e-05  1.007686  0.0
H  H22  1  0.36869762  0.05100948  0.40833546  1  0.072612  6.7e-05  0.938496  0.0  0.08813  7e-05  1.006153  0.0  0.08976  3.6e-05  1.004298  0.0  0.037724  8.7e-05  0.103982  0.086825  0.000104  1.007683  0.0
H  H23  1  0.86869747  0.44899378  0.09167207  1  0.072607  -6.6e-05  0.938487  0.0  0.088158  -7e-05  1.006127  0.0  0.089765  -3.6e-05  1.004297  0.0  0.037658  -9.1e-05  0.103975  0.08685  -0.000105  1.007661  0.0
H  H24  1  0.59769658  0.08205109  0.55627242  1  0.072794  2.3e-05  0.935665  0.0  0.087873  3.1e-05  1.003693  0.0  0.088868  1.6e-05  1.002726  0.0  0.055213  5.2e-05  0.104476  0.087089  4.9e-05  1.004458  0.0
H  H25  1  0.09770044  0.41795217  0.94372635  1  0.072816  -2.5e-05  0.935632  0.0  0.087883  -3.1e-05  1.00368  0.0  0.08888  -1.6e-05  1.002711  0.0  0.055273  -5.5e-05  0.104468  0.087108  -5e-05  1.00443  0.0
H  H26  1  0.40229694  0.91795359  0.44373141  1  0.072765  -2.3e-05  0.93566  0.0  0.087843  -3.1e-05  1.00371  0.0  0.088839  -1.6e-05  1.00274  0.0  0.055235  -4.5e-05  0.104439  0.087048  -4.5e-05  1.00447  0.0
H  H27  1  0.90229802  0.58204515  0.05626963  1  0.072762  2.2e-05  0.935673  0.0  0.087868  3.1e-05  1.003683  0.0  0.088863  1.6e-05  1.002711  0.0  0.055257  3.4e-05  0.104447  0.087076  4e-05  1.004443  0.0
H  H28  1  0.96870902  0.17326669  0.58521700  1  0.044214  -2e-06  0.948954  0.0  0.058412  -5e-06  1.017829  0.0  0.058416  -3e-06  1.019001  0.0  0.029739  -4.7e-05  0.088047  0.058445  -2.2e-05  1.01705  0.0
H  H29  1  0.46870671  0.32672737  0.91478493  1  0.044256  5e-06  0.948925  0.0  0.058413  5e-06  1.017828  0.0  0.058416  3e-06  1.019  0.0  0.029818  2.8e-05  0.088048  0.058427  1.4e-05  1.017034  0.0
H  H30  1  0.03128697  0.82673063  0.41478504  1  0.044234  6e-06  0.948877  0.0  0.058403  5e-06  1.017789  0.0  0.058409  3e-06  1.018961  0.0  0.029803  -5.1e-05  0.088029  0.058414  -1.8e-05  1.017011  0.0
H  H31  1  0.53129174  0.67326443  0.08520904  1  0.044242  -2e-06  0.949043  0.0  0.058403  -5e-06  1.017929  0.0  0.058409  -3e-06  1.019104  0.0  0.029405  1.9e-05  0.088047  0.058407  3e-06  1.017142  0.0
H  H32  1  0.82274754  0.16929923  0.49470394  1  0.066476  -3.1e-05  0.923882  0.0  0.089339  -1.3e-05  0.977632  0.0  0.089239  -1.9e-05  0.978331  0.0  0.037786  1.4e-05  0.104023  0.089376  1.1e-05  0.977251  0.0
H  H33  1  0.32274277  0.33069667  0.00529776  1  0.066409  3.3e-05  0.923969  0.0  0.089263  1.3e-05  0.977703  0.0  0.089166  1.9e-05  0.978403  0.0  0.037758  -2.3e-05  0.103941  0.089267  -1.5e-05  0.977297  0.0
H  H34  1  0.17724721  0.83069625  0.50529900  1  0.066402  3.7e-05  0.923952  0.0  0.089275  1.3e-05  0.977686  0.0  0.08918  1.9e-05  0.978387  0.0  0.03781  1.7e-05  0.103968  0.089301  5e-06  0.977301  0.0
H  H35  1  0.67725199  0.66929330  0.99469846  1  0.066475  -3.2e-05  0.92398  0.0  0.089281  -1.3e-05  0.977751  0.0  0.089183  -1.9e-05  0.978453  0.0  0.037819  -3.9e-05  0.103976  0.089282  -1.6e-05  0.977342  0.0
H  H36  1  0.88225355  0.84299499  0.55963152  1  0.068134  -9e-06  0.920608  0.0  0.088022  -1.4e-05  0.979615  0.0  0.088519  -1e-06  0.979311  0.0  0.057317  -3.6e-05  0.104799  0.087649  -2.7e-05  0.979934  0.0
H  H37  1  0.38225864  0.65699731  0.94036527  1  0.068098  5e-06  0.920764  0.0  0.088004  1.4e-05  0.979706  0.0  0.088498  0.0  0.979407  0.0  0.057456  1.1e-05  0.104774  0.087595  1.4e-05  0.980016  0.0
H  H38  1  0.11773997  0.15699957  0.44037053  1  0.068121  9e-06  0.920814  0.0  0.088016  1.4e-05  0.979766  0.0  0.088508  1e-06  0.979471  0.0  0.057443  7.4e-05  0.104817  0.087635  4.7e-05  0.98008  0.0
H  H39  1  0.61773612  0.34299449  0.05963140  1  0.068155  -8e-06  0.920651  0.0  0.088014  -1.4e-05  0.979666  0.0  0.088505  -1e-06  0.979372  0.0  0.057342  -7.6e-05  0.104783  0.087612  -4.8e-05  0.979965  0.0
H  H40  1  0.00457663  0.97022394  0.62683153  1  0.036842  -3e-06  0.948943  0.0  0.05039  -3e-06  1.023384  0.0  0.051045  -2e-06  1.022836  0.0  0.006125  -7.5e-05  0.08735  0.049918  -3.8e-05  1.023855  0.0
H  H41  1  0.50458017  0.52976469  0.87316706  1  0.036781  2e-06  0.948979  0.0  0.050283  3e-06  1.023456  0.0  0.050936  2e-06  1.022909  0.0  0.006032  4.8e-05  0.087296  0.04979  2.7e-05  1.023934  0.0
H  H42  1  0.99541936  0.02976879  0.37317142  1  0.03681  2e-06  0.948995  0.0  0.050341  3e-06  1.023439  0.0  0.050995  2e-06  1.022889  0.0  0.006145  -5.8e-05  0.087332  0.049863  -2e-05  1.023894  0.0
H  H43  1  0.49541459  0.47022527  0.12682916  1  0.036824  -3e-06  0.948931  0.0  0.050345  -3e-06  1.0234  0.0  0.051001  -2e-06  1.022849  0.0  0.00607  3.1e-05  0.087305  0.049835  9e-06  1.023895  0.0
H  H44  1  0.56393580  0.95220209  0.17889422  1  0.101163  -0.001379  0.933897  -0.002  0.113137  -0.000978  0.995637  -0.001  0.113553  -0.00066  0.997456  -0.001  0.050114  -0.002325  0.09665  0.112616  -0.00112  0.994527  -0.001
H  H45  1  0.06394088  0.54779757  0.32110569  1  0.101181  0.001381  0.933876  0.002  0.11313  0.000978  0.995624  0.001  0.113546  0.00066  0.997444  0.001  0.050148  0.002334  0.096654  0.112658  0.001124  0.994471  0.001
H  H46  1  0.43606759  0.04781455  0.82111048  1  0.101126  0.001382  0.933729  0.002  0.113062  0.000978  0.995532  0.001  0.113477  0.00066  0.997355  0.001  0.049949  0.002326  0.096613  0.112553  0.00112  0.994413  0.001
H  H47  1  0.93606127  0.45218227  0.67888942  1  0.101056  -0.001383  0.933953  -0.002  0.113021  -0.000978  0.995719  -0.001  0.113436  -0.00066  0.99754  -0.001  0.049935  -0.00232  0.096607  0.112559  -0.001117  0.994575  -0.001
H  H48  1  0.46707845  0.00959032  0.09369181  1  0.127506  0.001161  0.937858  0.002  0.13762  0.000772  0.998867  0.001  0.139888  0.000478  0.998345  0.001  0.088842  0.001891  0.104466  0.135906  0.000921  0.999322  0.001
H  H49  1  0.96707213  0.49041754  0.40630875  1  0.127579  -0.001161  0.93789  -0.002  0.13769  -0.000773  0.998866  -0.001  0.139958  -0.000478  0.998341  -0.001  0.088733  -0.001887  0.104544  0.136013  -0.00092  0.999341  -0.001
H  H50  1  0.53292740  0.99041528  0.90630348  1  0.127529  -0.001161  0.937905  -0.002  0.137625  -0.000772  0.998919  -0.001  0.139894  -0.000478  0.998395  -0.001  0.089076  -0.001934  0.104466  0.135919  -0.000945  0.99938  -0.001
H  H51  1  0.03291892  0.50958162  0.59369375  1  0.127656  0.001158  0.937727  0.002  0.137673  0.000772  0.998856  0.001  0.13994  0.000478  0.998334  0.001  0.088797  0.001946  0.104522  0.136007  0.000951  0.999334  0.001
H  H52  1  0.56769645  0.22574672  0.19234475  1  0.071797  -0.000185  0.927491  0.0  0.090101  -0.000175  0.986591  0.0  0.090953  -9.8e-05  0.986619  0.0  0.037959  -0.000384  0.093642  0.089513  -0.000238  0.986643  0.0
H  H53  1  0.06768304  0.27425470  0.30765560  1  0.071797  0.000185  0.927636  0.0  0.090031  0.000175  0.986776  0.0  0.090879  9.8e-05  0.98681  0.0  0.03794  0.000385  0.093658  0.089448  0.000239  0.986849  0.0
H  H54  1  0.43231310  0.77425336  0.80764651  1  0.071647  0.000184  0.927667  0.0  0.089948  0.000175  0.986712  0.0  0.090794  9.8e-05  0.986749  0.0  0.038297  0.000362  0.0936  0.089361  0.000227  0.986777  0.0
H  H55  1  0.93231294  0.72574446  0.69235229  1  0.071635  -0.000181  0.927698  0.0  0.089931  -0.000175  0.986747  0.0  0.090778  -9.8e-05  0.986783  0.0  0.038251  -0.000369  0.093598  0.089355  -0.000231  0.986815  0.0
H  H56  1  0.40814067  0.15936128  0.24046257  1  0.07101  0.000373  0.941757  0.0  0.086981  0.000307  1.00548  0.0  0.087235  0.000169  1.006082  0.0  0.050567  0.000693  0.092365  0.08696  0.000409  1.005012  0.0
H  H57  1  0.90813066  0.34064565  0.25953777  1  0.071083  -0.000373  0.941696  0.0  0.086968  -0.000307  1.005477  0.0  0.087213  -0.000169  1.006084  0.0  0.05048  -0.000691  0.092374  0.086991  -0.000408  1.004964  0.0
H  H58  1  0.59187011  0.84064156  0.75954082  1  0.071053  -0.000373  0.941602  0.0  0.086903  -0.000307  1.005412  0.0  0.087148  -0.000169  1.006014  0.0  0.050467  -0.000691  0.092334  0.086895  -0.000406  1.004937  0.0
H  H59  1  0.09187026  0.65935351  0.74045866  1  0.071032  0.000376  0.941613  0.0  0.086889  0.000307  1.005413  0.0  0.087134  0.000169  1.006017  0.0  0.050432  0.000688  0.092352  0.086911  0.000405  1.004906  0.0
H  H60  1  0.61747974  0.09364721  0.34184158  1  0.096826  -0.001084  0.943021  -0.001  0.111198  -0.000756  1.004021  -0.001  0.112416  -0.000519  1.004122  -0.001  0.041907  -0.001843  0.097158  0.110124  -0.000852  1.004118  -0.001
H  H61  1  0.11746880  0.40635421  0.15815674  1  0.096798  0.001084  0.943007  0.001  0.111172  0.000756  1.003991  0.001  0.11241  0.000519  1.004063  0.001  0.041838  0.001854  0.097179  0.110104  0.000857  1.004103  0.001
H  H62  1  0.38253474  0.90636023  0.65815955  1  0.096801  0.001081  0.942987  0.001  0.111202  0.000756  1.003939  0.001  0.112437  0.000519  1.004015  0.001  0.041968  0.001856  0.097182  0.110131  0.000859  1.004033  0.001
H  H63  1  0.88253088  0.59364127  0.84183880  1  0.09683  -0.001085  0.943021  -0.001  0.111209  -0.000756  1.003993  -0.001  0.112441  -0.000519  1.004078  -0.001  0.041801  -0.001852  0.097188  0.110137  -0.000857  1.004112  -0.001
H  H64  1  0.77434106  0.16950064  0.29733666  1  0.10859  0.000825  0.92426  0.001  0.123768  0.000579  0.981829  0.001  0.125379  0.00036  0.981812  0.0  0.077207  0.001387  0.102638  0.122566  0.000698  0.98186  0.001
H  H65  1  0.27432889  0.33050630  0.20266570  1  0.108636  -0.000826  0.92416  -0.001  0.123725  -0.000579  0.981811  -0.001  0.125332  -0.00036  0.981799  0.0  0.077321  -0.001381  0.102644  0.122508  -0.000695  0.981877  -0.001
H  H66  1  0.22566602  0.83050772  0.70266132  1  0.108642  -0.000829  0.924104  -0.001  0.123764  -0.000579  0.981728  -0.001  0.125373  -0.00036  0.981711  0.0  0.077307  -0.00139  0.102648  0.122565  -0.0007  0.981762  -0.001
H  H67  1  0.72566340  0.66948919  0.79733725  1  0.108698  0.000824  0.924158  0.001  0.123806  0.000579  0.981777  0.001  0.125416  0.00036  0.981762  0.0  0.0772  0.001378  0.102665  0.122593  0.000694  0.981836  0.001
C  C68  1  0.81052266  0.26304485  0.86891450  1  0.115934  0.000399  3.722948  0.0  0.086772  0.000345  3.983116  0.0  0.094394  0.000322  4.000195  0.0  0.48151  0.000489  0.04202  0.081966  0.00034  3.971738  0.0
C  C69  1  0.31051542  0.23695474  0.63108742  1  0.115978  -0.000423  3.723099  0.0  0.086852  -0.000346  3.983253  0.0  0.094466  -0.000322  4.000339  0.0  0.481917  -0.000506  0.042035  0.082007  -0.000354  3.971943  0.0
C  C70  1  0.18948072  0.73695432  0.13109069  1  0.116057  -0.000395  3.72317  0.0  0.086896  -0.000345  3.983335  0.0  0.094511  -0.000323  4.000422  0.0  0.48195  -0.000512  0.042017  0.082078  -0.000355  3.971965  0.0
C  C71  1  0.68948796  0.76305730  0.36891010  1  0.116133  0.00041  3.72325  0.0  0.086976  0.000345  3.983419  0.0  0.094605  0.000323  4.000496  0.0  0.482451  0.000468  0.042077  0.082125  0.000323  3.972106  0.0
C  C72  1  0.75499794  0.31969006  0.80420239  1  -0.116516  -0.000193  3.763616  0.0  -0.129261  -0.000124  4.018593  0.0  -0.135072  -0.000128  4.036751  0.0  -0.083246  -0.000166  -0.087338  -0.12571  -0.000114  4.006656  0.0
C  C73  1  0.25499070  0.18030860  0.69579931  1  -0.116529  0.000207  3.763518  0.0  -0.12926  0.000124  4.018495  0.0  -0.135072  0.000128  4.036654  0.0  -0.083225  0.000153  -0.087365  -0.125684  0.000106  4.006496  0.0
C  C74  1  0.24500175  0.68030910  0.19580347  1  -0.11647  0.000185  3.763735  0.0  -0.129204  0.000123  4.01869  0.0  -0.135015  0.000129  4.036849  0.0  -0.083166  0.000161  -0.087319  -0.125645  0.000116  4.006728  0.0
C  C75  1  0.74500899  0.81969884  0.30419373  1  -0.116483  -0.000199  3.763705  0.0  -0.129285  -0.000124  4.018745  0.0  -0.135092  -0.000129  4.036897  0.0  -0.08329  -0.000172  -0.087403  -0.125718  -0.00012  4.006766  0.0
C  C76  1  0.71102880  0.24702236  0.71329576  1  -0.065116  0.000389  3.705038  0.0  -0.088496  0.000329  3.947538  0.0  -0.084833  0.00025  3.9642  0.0  0.02587  0.000613  -0.07171  -0.090707  0.000419  3.936451  0.0
C  C77  1  0.21102649  0.25297998  0.78670751  1  -0.065155  -0.000393  3.704989  0.0  -0.088519  -0.000329  3.947438  0.0  -0.084854  -0.00025  3.964098  0.0  0.025938  -0.0006  -0.071605  -0.090655  -0.00041  3.936216  0.0
C  C78  1  0.28896966  0.75297772  0.28671235  1  -0.065054  -0.000376  3.705075  0.0  -0.088462  -0.000328  3.947496  0.0  -0.084798  -0.000251  3.964157  0.0  0.02576  -0.000589  -0.071657  -0.090666  -0.000404  3.936371  0.0
C  C79  1  0.78897320  0.74702746  0.21328688  1  -0.064866  0.000392  3.704605  0.0  -0.088273  0.000329  3.947053  0.0  -0.08461  0.00025  3.963715  0.0  0.025734  0.000597  -0.071553  -0.090421  0.000411  3.935859  0.0
C  C80  1  0.72159091  0.11885167  0.68971470  1  0.011545  -9.9e-05  3.751641  0.0  0.038941  -3.2e-05  3.981691  0.0  0.034129  -6.2e-05  4.00625  0.0  -0.033978  -3.7e-05  -0.013797  0.041648  -1.6e-05  3.965341  0.0
C  C81  1  0.22158860  0.38115067  0.81028722  1  0.011501  9.7e-05  3.751792  0.0  0.039051  3.2e-05  3.981671  0.0  0.034242  6.2e-05  4.006228  0.0  -0.033963  3.4e-05  -0.013732  0.041816  1.7e-05  3.965291  0.0
C  C82  1  0.27841124  0.88114841  0.31029004  1  0.011455  8.3e-05  3.751644  0.0  0.039129  3.1e-05  3.981363  0.0  0.034318  6.3e-05  4.005917  0.0  -0.034014  4.7e-05  -0.013749  0.041843  2.4e-05  3.964993  0.0
C  C83  1  0.77840986  0.61885677  0.18971054  1  0.011377  -0.0001  3.751432  0.0  0.039087  -3.1e-05  3.981109  0.0  0.034275  -6.3e-05  4.005655  0.0  -0.03344  -3.6e-05  -0.013713  0.04185  -1.4e-05  3.964725  0.0
C  C84  1  0.77837288  0.07060488  0.75959397  1  0.072361  0.000437  3.6848  0.0  0.04431  0.000351  3.932791  0.0  0.051646  0.000311  3.949049  0.0  0.456948  0.000549  0.04193  0.03961  0.000381  3.922156  0.0
C  C85  1  0.27836934  0.42939470  0.74040660  1  0.072316  -0.000429  3.684642  0.0  0.044183  -0.000351  3.932676  0.0  0.051519  -0.000311  3.948931  0.0  0.457048  -0.000561  0.041917  0.039465  -0.00039  3.922082  0.0
C  C86  1  0.22163051  0.92939428  0.24040785  1  0.072235  -0.000415  3.68462  0.0  0.044073  -0.00035  3.932646  0.0  0.051409  -0.000313  3.948902  0.0  0.45711  -0.000518  0.041872  0.039355  -0.000358  3.922018  0.0
C  C87  1  0.72162542  0.57061458  0.25959228  1  0.072306  0.000436  3.684625  0.0  0.0441  0.00035  3.932608  0.0  0.051436  0.000312  3.948874  0.0  0.456117  0.000494  0.041778  0.039385  0.000341  3.921991  0.0
C  C88  1  0.68634731  0.03628097  0.59011940  1  -0.055394  -1.8e-05  3.721546  0.0  -0.122237  -1.9e-05  3.983716  0.0  -0.117698  -1e-06  3.994661  0.0  0.312051  0.000208  -0.066291  -0.125091  0.000152  3.976079  0.0
C  C89  1  0.18635239  0.46372045  0.90988297  1  -0.055212  2.5e-05  3.721538  0.0  -0.122139  1.9e-05  3.98376  0.0  -0.117604  1e-06  3.994714  0.0  0.311936  -0.000135  -0.066247  -0.125047  -0.000101  3.976124  0.0
C  C90  1  0.31364622  0.96371819  0.40988310  1  -0.055145  1.9e-05  3.721603  0.0  -0.122122  1.9e-05  3.983815  0.0  -0.117579  1e-06  3.994754  0.0  0.311835  0.000331  -0.066193  -0.124978  0.000228  3.976158  0.0
C  C91  1  0.81364606  0.53628055  0.09011795  1  -0.05521  -1.8e-05  3.721494  0.0  -0.122216  -1.9e-05  3.98368  0.0  -0.117654  -1e-06  3.994617  0.0  0.311889  -0.000243  -0.06622  -0.12511  -0.000166  3.976028  0.0
C  C92  1  0.91475709  0.11396455  0.51769873  1  -0.016849  -1.9e-05  3.6821  0.0  -0.072447  -3e-06  3.94197  0.0  -0.068598  -8e-06  3.953757  0.0  0.275497  0.000383  -0.070489  -0.075011  0.000276  3.933613  0.0
C  C93  1  0.41475355  0.38603135  0.98230230  1  -0.016894  8e-06  3.682282  0.0  -0.072407  3e-06  3.942056  0.0  -0.068562  8e-06  3.953849  0.0  0.275793  -0.000243  -0.070549  -0.074989  -0.000174  3.933653  0.0
C  C94  1  0.08524260  0.88603277  0.48230331  1  -0.016794  -5e-06  3.682081  0.0  -0.072367  4e-06  3.941932  0.0  -0.068533  8e-06  3.953743  0.0  0.275288  0.00038  -0.070497  -0.074912  0.000271  3.933555  0.0
C  C95  1  0.58524491  0.61396229  0.01769279  1  -0.017002  -1.8e-05  3.682446  0.0  -0.072483  -3e-06  3.942172  0.0  -0.068647  -8e-06  3.95398  0.0  0.275987  -0.000232  -0.070618  -0.07506  -0.000164  3.933765  0.0
C  C96  1  0.94886670  0.92526312  0.55603851  1  -0.022468  1.5e-05  3.697688  0.0  -0.081902  -7e-06  3.965127  0.0  -0.078321  -2e-06  3.977228  0.0  0.297944  0.000366  -0.068808  -0.084314  0.000254  3.956615  0.0
C  C97  1  0.44886932  0.57472918  0.94395962  1  -0.022384  -0.0  3.697927  0.0  -0.081761  7e-06  3.965248  0.0  -0.078176  2e-06  3.977346  0.0  0.297504  -0.000229  -0.068796  -0.084169  -0.000154  3.956683  0.0
C  C98  1  0.05112929  0.07473052  0.44396332  1  -0.022412  -1e-05  3.697976  0.0  -0.081803  7e-06  3.965366  0.0  -0.078219  2e-06  3.97746  0.0  0.297673  0.000392  -0.068812  -0.084189  0.000292  3.956805  0.0
C  C99  1  0.55112913  0.42526446  0.05603816  1  -0.022452  1.5e-05  3.697744  0.0  -0.081842  -7e-06  3.965163  0.0  -0.07826  -2e-06  3.977254  0.0  0.29763  -0.000239  -0.068832  -0.084266  -0.00018  3.956626  0.0
C  C100  1  0.72879543  0.01984647  0.09408362  1  0.692557  0.000141  3.798617  0.0  0.66336  6.8e-05  4.092444  0.0  0.704473  5.8e-05  4.085938  0.0  1.517044  -1.7e-05  0.214667  0.635381  3.3e-05  4.096451  0.0
C  C101  1  0.22878696  0.48014943  0.40591741  1  0.692664  -0.000137  3.7984  0.0  0.663401  -6.9e-05  4.092299  0.0  0.70452  -5.8e-05  4.085792  0.0  1.517278  -1.5e-05  0.214801  0.635471  -6.3e-05  4.096253  0.0
C  C102  1  0.27121412  0.98015269  0.90591551  1  0.692532  -0.000134  3.798705  0.0  0.663347  -7.1e-05  4.09251  0.0  0.704461  -5.9e-05  4.086006  0.0  1.517938  -7.8e-05  0.214688  0.635378  -0.000113  4.09649  0.0
C  C103  1  0.77120534  0.51984329  0.59408554  1  0.692711  0.000132  3.798522  0.0  0.663512  7e-05  4.09232  0.0  0.704629  5.8e-05  4.085814  0.0  1.517971  4.8e-05  0.214822  0.635596  8.4e-05  4.096279  0.0
C  C104  1  0.56664258  0.02605240  0.14633587  1  -0.257675  0.000736  3.625462  0.001  -0.293724  0.000497  3.870394  0.001  -0.302431  0.000268  3.879748  0.001  -0.015899  0.000981  -0.162994  -0.28647  0.000638  3.863207  0.001
C  C105  1  0.06663780  0.47394810  0.35366358  1  -0.25782  -0.000744  3.625655  -0.001  -0.293795  -0.000496  3.87048  -0.001  -0.302501  -0.000269  3.879824  -0.001  -0.015856  -0.000989  -0.16297  -0.286573  -0.000649  3.863362  -0.001
C  C106  1  0.43336327  0.97395136  0.85366100  1  -0.257679  -0.000747  3.625466  -0.001  -0.293711  -0.000495  3.870289  -0.001  -0.302419  -0.00027  3.879641  -0.001  -0.016191  -0.001093  -0.162973  -0.286486  -0.000728  3.863114  -0.001
C  C107  1  0.93335695  0.52604463  0.64634139  1  -0.257692  0.000763  3.62532  0.001  -0.29373  0.000497  3.870223  0.001  -0.302437  0.00027  3.879569  0.001  -0.0157  0.001055  -0.162906  -0.286553  0.000696  3.863161  0.001
C  C108  1  0.53988293  0.15130222  0.22216169  1  -0.052201  0.001101  3.651979  0.001  -0.09423  0.000656  3.914091  0.001  -0.092748  0.000406  3.927432  0.0  -0.006647  0.00117  -0.15689  -0.095304  0.000775  3.904571  0.001
C  C109  1  0.03987323  0.34870012  0.27783888  1  -0.052279  -0.001101  3.652202  -0.001  -0.094191  -0.000656  3.914202  -0.001  -0.092701  -0.000406  3.92753  0.0  -0.00651  -0.001184  -0.156901  -0.095269  -0.000786  3.904716  -0.001
C  C110  1  0.46012292  0.84870338  0.77783428  1  -0.05212  -0.001103  3.652012  -0.001  -0.093965  -0.000656  3.913909  -0.001  -0.092476  -0.000406  3.927241  0.0  -0.006772  -0.00122  -0.156826  -0.095047  -0.000811  3.904406  -0.001
C  C111  1  0.96012276  0.65129536  0.72216542  1  -0.052029  0.001085  3.651983  0.001  -0.093857  0.000657  3.913874  0.001  -0.092364  0.000405  3.927204  0.0  -0.006691  0.001187  -0.156798  -0.094924  0.000787  3.904382  0.001
C  C112  1  0.64176187  0.16899574  0.31272635  1  -0.257259  0.000635  3.649989  0.001  -0.298999  0.000403  3.904106  0.001  -0.306835  0.000212  3.912349  0.0  -0.052189  0.000754  -0.162762  -0.29248  0.000497  3.89786  0.001
C  C113  1  0.14175093  0.33100660  0.18727422  1  -0.257275  -0.000627  3.649927  -0.001  -0.298891  -0.000401  3.903921  -0.001  -0.306729  -0.000212  3.912141  0.0  -0.052137  -0.000766  -0.162824  -0.292381  -0.000511  3.897702  -0.001
C  C114  1  0.35824645  0.83100894  0.68727007  1  -0.257283  -0.000613  3.649958  -0.001  -0.298988  -0.000401  3.903975  -0.001  -0.306824  -0.000211  3.912195  0.0  -0.052401  -0.000738  -0.16278  -0.292469  -0.000484  3.897725  -0.001
C  C115  1  0.85824259  0.66898981  0.81272626  1  -0.257452  0.000637  3.650261  0.001  -0.299158  0.000402  3.904251  0.001  -0.307  0.000212  3.912479  0.0  -0.051953  0.000721  -0.162831  -0.292623  0.000467  3.898016  0.001
C  C116  1  0.59580578  0.28993507  0.38681436  1  0.687691  -0.000883  3.816098  -0.001  0.655076  -0.000548  4.116665  -0.001  0.696217  -0.00054  4.109608  -0.001  1.534933  -0.000601  0.213991  0.627058  -0.000482  4.121014  -0.001
C  C117  1  0.09580224  0.21006451  0.11318621  1  0.687715  0.000878  3.815795  0.001  0.655025  0.000546  4.116436  0.001  0.69616  0.000538  4.109389  0.001  1.534688  0.000551  0.213875  0.626984  0.000435  4.120802  0.001
C  C118  1  0.40419514  0.71006961  0.61318475  1  0.687837  0.00088  3.815931  0.001  0.655169  0.000548  4.116527  0.001  0.696302  0.000539  4.109476  0.001  1.535194  0.000627  0.21404  0.627157  0.000498  4.120879  0.001
C  C119  1  0.90419251  0.78992913  0.88681293  1  0.687847  -0.000885  3.81604  -0.001  0.655285  -0.000548  4.116462  -0.001  0.696423  -0.00054  4.109406  -0.001  1.534684  -0.000676  0.213991  0.627236  -0.000543  4.120836  -0.001
N  N120  1  0.82275740  0.14050622  0.84720765  1  -0.307545  0.001309  3.259042  0.001  -0.256875  0.000776  3.542932  0.0  -0.278815  0.000781  3.559648  0.0  -1.220168  0.001437  -0.342236  -0.242852  0.00063  3.532882  0.0
N  N121  1  0.32275263  0.35949061  0.65279293  1  -0.307608  -0.001302  3.259013  -0.001  -0.256932  -0.000776  3.542913  0.0  -0.278867  -0.000781  3.559645  0.0  -1.220681  -0.001516  -0.342307  -0.242947  -0.00068  3.532945  0.0
N  N122  1  0.17724968  0.85949203  0.15279530  1  -0.307599  -0.001321  3.259064  -0.001  -0.256932  -0.000776  3.542981  0.0  -0.27887  -0.00078  3.55972  0.0  -1.220564  -0.001656  -0.342212  -0.242872  -0.000759  3.532898  0.0
N  N123  1  0.67724336  0.64051959  0.34720550  1  -0.307675  0.001307  3.259194  0.001  -0.256874  0.000776  3.542956  0.0  -0.278821  0.00078  3.559695  0.0  -1.219904  0.001613  -0.342254  -0.242888  0.000736  3.532965  0.0
N  N124  1  0.83245670  0.00571023  0.52885686  1  -0.226951  -0.000132  3.232314  0.0  -0.14634  -3e-05  3.48979  0.0  -0.163676  -1.6e-05  3.512061  0.0  -1.001341  -0.001125  -0.338837  -0.133591  -0.000856  3.473497  0.0
N  N125  1  0.33246302  0.49428751  0.97114529  1  -0.226886  0.00013  3.232319  0.0  -0.146277  3e-05  3.489759  0.0  -0.163617  1.6e-05  3.51204  0.0  -1.001714  0.000755  -0.338713  -0.13346  0.000567  3.473394  0.0
N  N126  1  0.16753929  0.99428709  0.47114384  1  -0.226993  0.000134  3.232409  0.0  -0.146345  2.9e-05  3.489837  0.0  -0.163684  1.6e-05  3.512119  0.0  -1.001443  -0.000929  -0.338799  -0.133604  -0.000732  3.473512  0.0
N  N127  1  0.66753790  0.50570797  0.02885564  1  -0.226809  -0.000132  3.232126  0.0  -0.146211  -3e-05  3.489578  0.0  -0.163544  -1.6e-05  3.511842  0.0  -1.001419  0.000536  -0.338772  -0.133453  0.000426  3.47324  0.0
O  O128  1  0.73210618  0.07096907  0.02916825  1  -0.577527  -0.076572  2.061471  -0.101  -0.555885  -0.052107  2.332629  -0.075  -0.600545  -0.041015  2.324958  -0.063  -1.117306  -0.083309  -0.315969  -0.527172  -0.054272  2.338735  -0.075
O  O129  1  0.23209154  0.42902867  0.47083188  1  -0.577508  0.076568  2.06142  0.101  -0.555839  0.052109  2.33257  0.075  -0.600496  0.041016  2.324918  0.063  -1.117228  0.083217  -0.315843  -0.52697  0.054206  2.338523  0.075
O  O130  1  0.26791816  0.92902365  0.97082729  1  -0.577397  0.076584  2.06133  0.101  -0.555792  0.052118  2.332473  0.075  -0.600445  0.041022  2.324827  0.063  -1.117932  0.08298  -0.315825  -0.526991  0.054054  2.338454  0.075
O  O131  1  0.76790691  0.57097509  0.52917577  1  -0.577548  -0.076566  2.061281  -0.101  -0.555908  -0.052107  2.33241  -0.075  -0.600573  -0.041014  2.324762  -0.063  -1.11781  -0.083125  -0.315902  -0.527081  -0.054171  2.338384  -0.075
O  O132  1  0.84878859  0.96493216  0.11908757  1  -0.581804  0.074636  2.072875  0.098  -0.55864  0.051422  2.345983  0.075  -0.604152  0.040209  2.339331  0.062  -1.112836  0.082519  -0.314739  -0.529027  0.05384  2.351209  0.075
O  O133  1  0.34878504  0.53506475  0.38091303  1  -0.581866  -0.074639  2.072603  -0.098  -0.558689  -0.051423  2.345755  -0.075  -0.604215  -0.04021  2.3391  -0.062  -1.112805  -0.082663  -0.314805  -0.528994  -0.053956  2.350905  -0.075
O  O134  1  0.15120987  0.03506609  0.88091942  1  -0.581831  -0.074627  2.072856  -0.098  -0.558664  -0.051416  2.345986  -0.075  -0.604185  -0.040204  2.339312  -0.062  -1.11302  -0.082769  -0.314892  -0.52914  -0.054008  2.351305  -0.075
O  O135  1  0.65120725  0.46492706  0.61908229  1  -0.58191  0.074637  2.072947  0.098  -0.558743  0.051424  2.346073  0.075  -0.604261  0.04021  2.339414  0.062  -1.112951  0.082729  -0.314747  -0.529008  0.053979  2.3512  0.075
O  O136  1  0.51631941  0.28432600  0.45950851  1  -0.579988  0.076044  2.051814  0.101  -0.55918  0.053277  2.332138  0.077  -0.603531  0.041877  2.323832  0.065  -1.117902  0.085116  -0.315151  -0.530255  0.055555  2.338432  0.077
O  O137  1  0.01632326  0.21566714  0.04048511  1  -0.57993  -0.076047  2.051689  -0.101  -0.559097  -0.053277  2.332084  -0.077  -0.603459  -0.041878  2.323767  -0.065  -1.117898  -0.085143  -0.315165  -0.530347  -0.055575  2.338542  -0.077
O  O138  1  0.48367658  0.71568328  0.54048768  1  -0.579911  -0.076047  2.05151  -0.101  -0.559092  -0.053278  2.331858  -0.077  -0.603456  -0.041878  2.323568  -0.065  -1.118087  -0.08505  -0.315112  -0.530195  -0.055532  2.338171  -0.077
O  O139  1  0.98367766  0.78432006  0.95950774  1  -0.579994  0.07604  2.05173  0.101  -0.559185  0.053273  2.332004  0.077  -0.603537  0.041875  2.323706  0.065  -1.118017  0.084863  -0.315174  -0.530341  0.055393  2.338354  0.077
O  O140  1  0.63611042  0.38740810  0.36829123  1  -0.584828  -0.068706  2.088976  -0.09  -0.557675  -0.048659  2.36614  -0.07  -0.602624  -0.038596  2.359352  -0.059  -1.119474  -0.077282  -0.310677  -0.528134  -0.050662  2.371291  -0.07
O  O141  1  0.13611058  0.11259516  0.13171158  1  -0.58493  0.068711  2.088828  0.09  -0.557739  0.048659  2.366008  0.07  -0.602678  0.038597  2.359224  0.059  -1.119508  0.077114  -0.310726  -0.528231  0.05053  2.371159  0.07
O  O142  1  0.36390283  0.61260210  0.63170989  1  -0.585063  0.068689  2.089036  0.09  -0.557877  0.048649  2.366222  0.07  -0.602807  0.03859  2.359416  0.059  -1.11963  0.077323  -0.310786  -0.528315  0.05067  2.371374  0.07
O  O143  1  0.86390267  0.88740400  0.86828822  1  -0.585025  -0.068705  2.088882  -0.09  -0.557893  -0.048656  2.366042  -0.07  -0.602833  -0.038595  2.359219  -0.059  -1.119562  -0.077411  -0.3109  -0.528505  -0.050731  2.371352  -0.07
