# generated using pymatgen
data_ZnH10C8(NO2)2
_symmetry_space_group_name_H-M   'P 1'
_cell_length_a   5.25630832
_cell_length_b   5.75750606
_cell_length_c   15.99296848
_cell_angle_alpha   90.00065322
_cell_angle_beta   90.00024042
_cell_angle_gamma   110.37440079
_symmetry_Int_Tables_number   1
_chemical_formula_structural   ZnH10C8(NO2)2
_chemical_formula_sum   'Zn2 H20 C16 N4 O8'
_cell_volume   453.71872385
_cell_formula_units_Z   2
loop_
 _symmetry_equiv_pos_site_id
 _symmetry_equiv_pos_as_xyz
  1  'x, y, z'
loop_
 _atom_site_type_symbol
 _atom_site_label
 _atom_site_symmetry_multiplicity
 _atom_site_fract_x
 _atom_site_fract_y
 _atom_site_fract_z
 _atom_site_occupancy
 _atom_site_hle17_bader_spin_density
 _atom_site_hle17_ddec_charge
 _atom_site_hle17_ddec_spin_density
 _atom_site_hle17_ddec_sum_bond_order
 _atom_site_hle17_magmom
 _atom_site_hse06_10hf_bader_spin_density
 _atom_site_hse06_10hf_ddec_charge
 _atom_site_hse06_10hf_ddec_spin_density
 _atom_site_hse06_10hf_ddec_sum_bond_order
 _atom_site_hse06_10hf_magmom
 _atom_site_hse06_bader_spin_density
 _atom_site_hse06_ddec_charge
 _atom_site_hse06_ddec_spin_density
 _atom_site_hse06_ddec_sum_bond_order
 _atom_site_hse06_magmom
 _atom_site_pbe_bader_spin_density
 _atom_site_pbe_cm5_charge
 _atom_site_pbe_ddec_charge
 _atom_site_pbe_ddec_spin_density
 _atom_site_pbe_ddec_sum_bond_order
 _atom_site_pbe_magmom
Zn  Zn0  1  0.22741491  0.95726509  0.25000501  1  0  1.07727  0  1.760467  0  0  0.903494  0  2.232648  0  0  0.9473  0  2.178427  0  0  0.67354  0.872902  0  2.269891  0
Zn  Zn1  1  0.77258135  0.04273173  0.75001007  1  0  1.077103  0  1.760491  0  0  0.903228  0  2.232655  0  0  0.947051  0  2.17844  0  0  0.673458  0.872621  0  2.269894  0
H  H2  1  0.16584143  0.51955832  0.19857997  1  0  0.354257  0  0.874012  0  0  0.340507  0  0.932208  0  0  0.346984  0  0.926969  0  0  0.300239  0.33591  0  0.935961  0
H  H3  1  0.83421813  0.48043233  0.69857428  1  0  0.354151  0  0.874097  0  0  0.340406  0  0.932253  0  0  0.346884  0  0.927014  0  0  0.300186  0.335806  0  0.936013  0
H  H4  1  0.83413172  0.48046672  0.80142323  1  0  0.35416  0  0.874153  0  0  0.340399  0  0.93236  0  0  0.346883  0  0.927114  0  0  0.300195  0.3358  0  0.936118  0
H  H5  1  0.16584526  0.51955620  0.30142079  1  0  0.354242  0  0.874006  0  0  0.340516  0  0.932148  0  0  0.346993  0  0.92691  0  0  0.300252  0.335919  0  0.935901  0
H  H6  1  0.45788258  0.62182489  0.24999922  1  0  0.348249  0  0.901004  0  0  0.332891  0  0.960416  0  0  0.338678  0  0.957385  0  0  0.292969  0.328753  0  0.96267  0
H  H7  1  0.54210701  0.37818878  0.74997772  1  0  0.348328  0  0.900913  0  0  0.332942  0  0.960305  0  0  0.338725  0  0.957287  0  0  0.292977  0.328804  0  0.96256  0
H  H8  1  0.63750707  0.33369281  0.19896799  1  0  0.358151  0  0.901573  0  0  0.344722  0  0.958126  0  0  0.351559  0  0.952721  0  0  0.291293  0.339852  0  0.962034  0
H  H9  1  0.36250650  0.66631147  0.69896223  1  0  0.358131  0  0.901489  0  0  0.344707  0  0.958046  0  0  0.351543  0  0.952647  0  0  0.291317  0.339832  0  0.961962  0
H  H10  1  0.36248846  0.66630216  0.80103334  1  0  0.358189  0  0.90148  0  0  0.344749  0  0.958062  0  0  0.351588  0  0.952647  0  0  0.291322  0.339878  0  0.961973  0
H  H11  1  0.63750770  0.33370188  0.30103534  1  0  0.358175  0  0.901549  0  0  0.344739  0  0.958129  0  0  0.351578  0  0.952717  0  0  0.291283  0.33987  0  0.962038  0
H  H12  1  0.75610227  0.14601147  0.25000122  1  0  0.330519  0  0.927546  0  0  0.315663  0  0.989991  0  0  0.321331  0  0.986821  0  0  0.284252  0.311619  0  0.992297  0
H  H13  1  0.24388409  0.85398920  0.74999698  1  0  0.330451  0  0.927586  0  0  0.315591  0  0.990038  0  0  0.321261  0  0.986864  0  0  0.284224  0.311543  0  0.992351  0
H  H14  1  0.92164364  0.32670672  0.04968187  1  0  0.097785  0  0.962011  0  0  0.106324  0  1.028606  0  0  0.109527  0  1.026636  0  0  0.102218  0.104096  0  1.030032  0
H  H15  1  0.07835092  0.67333771  0.54968964  1  0  0.097846  0  0.962283  0  0  0.10629  0  1.028963  0  0  0.109486  0  1.027001  0  0  0.102216  0.104077  0  1.030354  0
H  H16  1  0.07840430  0.67327642  0.95031008  1  0  0.097777  0  0.962433  0  0  0.106336  0  1.028963  0  0  0.109529  0  1.027013  0  0  0.102198  0.104108  0  1.03039  0
H  H17  1  0.92163754  0.32670204  0.45031856  1  0  0.097681  0  0.96226  0  0  0.106276  0  1.028791  0  0  0.109473  0  1.02683  0  0  0.102175  0.104052  0  1.030217  0
H  H18  1  0.62308957  0.42829785  0.94476912  1  0  0.096968  0  0.961617  0  0  0.105633  0  1.026766  0  0  0.109278  0  1.024318  0  0  0.102698  0.102717  0  1.029281  0
H  H19  1  0.37688675  0.57169801  0.44478778  1  0  0.097014  0  0.961966  0  0  0.105755  0  1.026985  0  0  0.109404  0  1.024529  0  0  0.102746  0.102838  0  1.029507  0
H  H20  1  0.37694814  0.57165935  0.05521408  1  0  0.097121  0  0.961975  0  0  0.10579  0  1.027047  0  0  0.109431  0  1.024607  0  0  0.102779  0.102875  0  1.029564  0
H  H21  1  0.62310128  0.42834546  0.55522167  1  0  0.097075  0  0.961696  0  0  0.105727  0  1.026803  0  0  0.109372  0  1.024357  0  0  0.102733  0.102808  0  1.029323  0
C  C22  1  0.83748665  0.87630938  0.12330439  1  0  0.631279  0  3.934822  0  0  0.584103  0  4.222923  0  0  0.616951  0  4.216986  0  0  0.201689  0.561906  0  4.225981  0
C  C23  1  0.16250801  0.12372251  0.62330933  1  0  0.631324  0  3.93519  0  0  0.584176  0  4.223288  0  0  0.61702  0  4.217356  0  0  0.201789  0.561981  0  4.22635  0
C  C24  1  0.16250579  0.12366329  0.87668693  1  0  0.631183  0  3.935314  0  0  0.583945  0  4.223485  0  0  0.616793  0  4.217546  0  0  0.2015  0.561745  0  4.22655  0
C  C25  1  0.83745627  0.87631381  0.37669763  1  0  0.631132  0  3.935212  0  0  0.583922  0  4.22335  0  0  0.616781  0  4.217425  0  0  0.201625  0.561726  0  4.226402  0
C  C26  1  0.66656093  0.94246324  0.05894371  1  0  -0.06444  0  3.74577  0  0  -0.040435  0  3.974564  0  0  -0.047418  0  3.997898  0  0  -0.018188  -0.035812  0  3.958661  0
C  C27  1  0.33348283  0.05757527  0.55895470  1  0  -0.064417  0  3.746048  0  0  -0.040474  0  3.9749  0  0  -0.047452  0  3.998233  0  0  -0.018193  -0.035854  0  3.958994  0
C  C28  1  0.33349501  0.05751607  0.94103573  1  0  -0.064377  0  3.745762  0  0  -0.04029  0  3.974499  0  0  -0.047275  0  3.997843  0  0  -0.018159  -0.035665  0  3.95859  0
C  C29  1  0.66652121  0.94246055  0.44105913  1  0  -0.064631  0  3.745908  0  0  -0.040478  0  3.974602  0  0  -0.047526  0  3.998029  0  0  -0.01827  -0.035855  0  3.958699  0
C  C30  1  0.73739723  0.18411496  0.02759607  1  0  -0.056756  0  3.714578  0  0  -0.081709  0  3.965585  0  0  -0.081946  0  3.985299  0  0  -0.083049  -0.081389  0  3.952064  0
C  C31  1  0.26256446  0.81590496  0.52762103  1  0  -0.056902  0  3.714215  0  0  -0.081814  0  3.965331  0  0  -0.082049  0  3.985038  0  0  -0.083176  -0.081493  0  3.951821  0
C  C32  1  0.26259168  0.81583913  0.97238087  1  0  -0.056869  0  3.714011  0  0  -0.081898  0  3.965076  0  0  -0.082136  0  3.984794  0  0  -0.083086  -0.081574  0  3.951552  0
C  C33  1  0.73740317  0.18413504  0.47239280  1  0  -0.056631  0  3.714444  0  0  -0.081717  0  3.965456  0  0  -0.081935  0  3.985192  0  0  -0.082986  -0.0814  0  3.951938  0
C  C34  1  0.57213512  0.24084302  0.96915869  1  0  -0.073004  0  3.723056  0  0  -0.095165  0  3.972794  0  0  -0.096194  0  3.992403  0  0  -0.084176  -0.094458  0  3.960118  0
C  C35  1  0.42783546  0.75912763  0.46917215  1  0  -0.072798  0  3.722176  0  0  -0.094995  0  3.971798  0  0  -0.096009  0  3.991415  0  0  -0.084013  -0.094303  0  3.959159  0
C  C36  1  0.42788641  0.75910694  0.03083451  1  0  -0.073038  0  3.722266  0  0  -0.095129  0  3.97193  0  0  -0.096173  0  3.991559  0  0  -0.084144  -0.09442  0  3.959247  0
C  C37  1  0.57214143  0.24087316  0.53084106  1  0  -0.073044  0  3.722754  0  0  -0.095104  0  3.972487  0  0  -0.096138  0  3.99209  0  0  -0.084141  -0.094404  0  3.959834  0
N  N38  1  0.26119118  0.61730898  0.25000100  1  0  -0.895319  0  2.915786  0  0  -0.845556  0  3.156248  0  0  -0.865707  0  3.136969  0  0  -0.771682  -0.831655  0  3.169736  0
N  N39  1  0.73881126  0.38273245  0.74999532  1  0  -0.895233  0  2.915989  0  0  -0.845278  0  3.156284  0  0  -0.865431  0  3.137011  0  0  -0.771571  -0.831364  0  3.169727  0
N  N40  1  0.60327226  0.21793543  0.25000134  1  0  -0.914297  0  2.90617  0  0  -0.861811  0  3.136532  0  0  -0.883582  0  3.11908  0  0  -0.789469  -0.846634  0  3.148652  0
N  N41  1  0.39671526  0.78206337  0.75000123  1  0  -0.914203  0  2.906035  0  0  -0.861715  0  3.136423  0  0  -0.883481  0  3.118968  0  0  -0.789495  -0.846552  0  3.148566  0
O  O42  1  0.03781861  0.05786663  0.15489762  1  0  -0.674291  0  2.03397  0  0  -0.597478  0  2.299104  0  0  -0.625691  0  2.285836  0  0  -0.336046  -0.577804  0  2.307571  0
O  O43  1  0.96218862  0.94217169  0.65489887  1  0  -0.674236  0  2.034472  0  0  -0.59741  0  2.299622  0  0  -0.625623  0  2.286357  0  0  -0.335979  -0.577685  0  2.307963  0
O  O44  1  0.96214367  0.94209711  0.84512059  1  0  -0.674099  0  2.034106  0  0  -0.597238  0  2.299249  0  0  -0.625456  0  2.285984  0  0  -0.335831  -0.577559  0  2.307698  0
O  O45  1  0.03783926  0.05783776  0.34511684  1  0  -0.67413  0  2.034341  0  0  -0.597306  0  2.299474  0  0  -0.625503  0  2.286187  0  0  -0.335946  -0.577632  0  2.307937  0
O  O46  1  0.77751376  0.65455030  0.14571925  1  0  -0.643273  0  1.984125  0  0  -0.588995  0  2.214142  0  0  -0.612192  0  2.20661  0  0  -0.321571  -0.572664  0  2.21883  0
O  O47  1  0.22247643  0.34546932  0.64571604  1  0  -0.64323  0  1.984386  0  0  -0.588998  0  2.21443  0  0  -0.612208  0  2.206941  0  0  -0.32165  -0.572681  0  2.219119  0
O  O48  1  0.22248956  0.34540175  0.85427707  1  0  -0.643159  0  1.984325  0  0  -0.588895  0  2.214355  0  0  -0.612117  0  2.206884  0  0  -0.321484  -0.572571  0  2.219047  0
O  O49  1  0.77748287  0.65454472  0.35429091  1  0  -0.643188  0  1.984088  0  0  -0.588946  0  2.214152  0  0  -0.612162  0  2.206656  0  0  -0.321568  -0.572611  0  2.218839  0
