# generated using pymatgen
data_TiZnP2H7C6NO11
_symmetry_space_group_name_H-M   'P 1'
_cell_length_a   5.09060043
_cell_length_b   8.47397329
_cell_length_c   14.92701937
_cell_angle_alpha   83.74626562
_cell_angle_beta   83.07901219
_cell_angle_gamma   89.94004535
_symmetry_Int_Tables_number   1
_chemical_formula_structural   TiZnP2H7C6NO11
_chemical_formula_sum   'Ti2 Zn2 P4 H14 C12 N2 O22'
_cell_volume   635.37244870
_cell_formula_units_Z   2
loop_
 _symmetry_equiv_pos_site_id
 _symmetry_equiv_pos_as_xyz
  1  'x, y, z'
loop_
 _atom_site_type_symbol
 _atom_site_label
 _atom_site_symmetry_multiplicity
 _atom_site_fract_x
 _atom_site_fract_y
 _atom_site_fract_z
 _atom_site_occupancy
 _atom_site_hle17_bader_spin_density
 _atom_site_hle17_ddec_charge
 _atom_site_hle17_ddec_spin_density
 _atom_site_hle17_ddec_sum_bond_order
 _atom_site_hle17_magmom
 _atom_site_hse06_10hf_bader_spin_density
 _atom_site_hse06_10hf_ddec_charge
 _atom_site_hse06_10hf_ddec_spin_density
 _atom_site_hse06_10hf_ddec_sum_bond_order
 _atom_site_hse06_10hf_magmom
 _atom_site_hse06_bader_spin_density
 _atom_site_hse06_ddec_charge
 _atom_site_hse06_ddec_spin_density
 _atom_site_hse06_ddec_sum_bond_order
 _atom_site_hse06_magmom
 _atom_site_pbe_bader_spin_density
 _atom_site_pbe_cm5_charge
 _atom_site_pbe_ddec_charge
 _atom_site_pbe_ddec_spin_density
 _atom_site_pbe_ddec_sum_bond_order
 _atom_site_pbe_magmom
Ti  Ti0  1  0.25771923  0.74312306  0.02677484  1  0  2.356866  0  2.010766  0  0  2.377662  0  2.319644  0  0  2.486171  0  2.271115  0  0  1.603017  2.302896  0  2.351174  0
Ti  Ti1  1  0.74228164  0.25687741  0.97322453  1  0  2.356826  0  2.01083  0  0  2.377625  0  2.319715  0  0  2.486134  0  2.271185  0  0  1.602973  2.302858  0  2.351246  0
Zn  Zn2  1  0.12202752  0.75309595  0.74120103  1  0  1.255892  0  1.701177  0  0  1.083766  0  2.183912  0  0  1.130661  0  2.116784  0  0  0.714522  1.050548  0  2.230445  0
Zn  Zn3  1  0.87797334  0.24690452  0.25879835  1  0  1.255913  0  1.701122  0  0  1.083781  0  2.183857  0  0  1.130681  0  2.116724  0  0  0.714543  1.050568  0  2.230393  0
P  P4  1  0.27973708  0.46081454  0.88004556  1  0  1.901465  0  4.767512  0  0  1.737677  0  5.281528  0  0  1.808682  0  5.209498  0  0  0.442801  1.687828  0  5.331058  0
P  P5  1  0.72026178  0.53918474  0.11995464  1  0  1.901404  0  4.767629  0  0  1.737597  0  5.281669  0  0  1.8086  0  5.209643  0  0  0.442771  1.687753  0  5.331193  0
P  P6  1  0.81356458  0.90371432  0.90314376  1  0  1.902264  0  4.773869  0  0  1.74177  0  5.281598  0  0  1.812567  0  5.210603  0  0  0.446447  1.692067  0  5.330579  0
P  P7  1  0.18643628  0.09628615  0.09685628  1  0  1.902253  0  4.773852  0  0  1.741739  0  5.281616  0  0  1.812523  0  5.210662  0  0  0.446447  1.692038  0  5.330571  0
H  H8  1  0.74887132  0.88965696  0.39582004  1  0  0.134395  0  0.947094  0  0  0.140341  0  1.008669  0  0  0.144475  0  1.006739  0  0  0.118739  0.137316  0  1.010292  0
H  H9  1  0.25112755  0.11034232  0.60417882  1  0  0.134381  0  0.947103  0  0  0.140327  0  1.008664  0  0  0.144462  0  1.006731  0  0  0.118733  0.137284  0  1.010305  0
H  H10  1  0.34599779  0.58801322  0.50027875  1  0  0.114683  0  0.956275  0  0  0.122994  0  1.018869  0  0  0.126366  0  1.017912  0  0  0.113065  0.12059  0  1.019695  0
H  H11  1  0.65400110  0.41198724  0.49972205  1  0  0.1147  0  0.956273  0  0  0.12301  0  1.018867  0  0  0.126383  0  1.01791  0  0  0.113079  0.120607  0  1.019696  0
H  H12  1  0.56075529  0.89152398  0.75643931  1  0  0.441574  0  0.857223  0  0  0.410987  0  0.918618  0  0  0.421845  0  0.902984  0  0  0.294845  0.403328  0  0.929631  0
H  H13  1  0.43924557  0.10847648  0.24356006  1  0  0.44159  0  0.857197  0  0  0.411006  0  0.918588  0  0  0.421865  0  0.902952  0  0  0.294848  0.403346  0  0.929602  0
H  H14  1  0.28786657  0.65226706  0.21952966  1  0  0.331233  0  0.903312  0  0  0.304693  0  0.970798  0  0  0.314878  0  0.962422  0  0  0.32171  0.297522  0  0.976718  0
H  H15  1  0.71213621  0.34772985  0.78047053  1  0  0.331387  0  0.903154  0  0  0.304851  0  0.970659  0  0  0.315036  0  0.962277  0  0  0.321758  0.297678  0  0.976578  0
H  H16  1  0.92562405  0.82420175  0.23737759  1  0  0.1251  0  0.919196  0  0  0.132931  0  0.976287  0  0  0.136242  0  0.973018  0  0  0.143909  0.13045  0  0.978753  0
H  H17  1  0.07437677  0.17579635  0.76262126  1  0  0.12508  0  0.919201  0  0  0.132902  0  0.976293  0  0  0.136219  0  0.973008  0  0  0.143908  0.130422  0  0.978757  0
H  H18  1  0.54272909  0.88894559  0.65300424  1  0  0.424887  0  0.88321  0  0  0.392462  0  0.949435  0  0  0.404532  0  0.932073  0  0  0.287288  0.383969  0  0.961617  0
H  H19  1  0.45726978  0.11105369  0.34699462  1  0  0.424889  0  0.883208  0  0  0.392468  0  0.949427  0  0  0.404537  0  0.932066  0  0  0.287291  0.383975  0  0.961609  0
H  H20  1  0.49831785  0.53099893  0.33582099  1  0  0.113901  0  0.94383  0  0  0.121819  0  1.004132  0  0  0.125097  0  1.001347  0  0  0.132782  0.119377  0  1.006175  0
H  H21  1  0.50168099  0.46899916  0.66418063  1  0  0.113909  0  0.943834  0  0  0.121826  0  1.004135  0  0  0.1251  0  1.001354  0  0  0.132783  0.11938  0  1.006176  0
C  C22  1  0.93773986  0.77717259  0.55442856  1  0  0.653032  0  3.914165  0  0  0.602023  0  4.209909  0  0  0.635573  0  4.20194  0  0  0.217942  0.579296  0  4.214447  0
C  C23  1  0.06225309  0.22282787  0.44557114  1  0  0.652942  0  3.914302  0  0  0.601934  0  4.210032  0  0  0.635485  0  4.202061  0  0  0.217891  0.579213  0  4.214567  0
C  C24  1  0.33484628  0.60840673  0.35536417  1  0  0.139871  0  3.600659  0  0  0.100205  0  3.852578  0  0  0.107673  0  3.868518  0  0  0.071312  0.095461  0  3.841747  0
C  C25  1  0.66515256  0.39159136  0.64463678  1  0  0.139866  0  3.600624  0  0  0.100231  0  3.852556  0  0  0.107699  0  3.868497  0  0  0.071306  0.09549  0  3.841722  0
C  C26  1  0.24978661  0.64005259  0.44315714  1  0  -0.11775  0  3.703804  0  0  -0.142358  0  3.95849  0  0  -0.149075  0  3.979276  0  0  -0.069386  -0.138196  0  3.944687  0
C  C27  1  0.75021223  0.35994550  0.55684314  1  0  -0.117771  0  3.70376  0  0  -0.142381  0  3.958431  0  0  -0.149098  0  3.979216  0  0  -0.069392  -0.138224  0  3.944635  0
C  C28  1  0.03645681  0.74150887  0.45886505  1  0  0.01759  0  3.678998  0  0  0.034171  0  3.911362  0  0  0.034416  0  3.930032  0  0  0.018818  0.034175  0  3.898748  0
C  C29  1  0.96354009  0.25849159  0.54113449  1  0  0.017667  0  3.678995  0  0  0.034262  0  3.911334  0  0  0.034506  0  3.930006  0  0  0.018828  0.034262  0  3.898719  0
C  C30  1  0.91397457  0.80963681  0.38531084  1  0  -0.118082  0  3.675092  0  0  -0.142125  0  3.931015  0  0  -0.149224  0  3.95131  0  0  -0.063582  -0.137664  0  3.917583  0
C  C31  1  0.08602233  0.19036366  0.61468869  1  0  -0.1181  0  3.675046  0  0  -0.142149  0  3.930935  0  0  -0.149245  0  3.951228  0  0  -0.063565  -0.137673  0  3.917508  0
C  C32  1  0.00704059  0.77557564  0.29845853  1  0  0.171442  0  3.559741  0  0  0.128156  0  3.816639  0  0  0.137207  0  3.830091  0  0  0.08525  0.122221  0  3.807679  0
C  C33  1  0.99296023  0.22442245  0.70154233  1  0  0.171492  0  3.559663  0  0  0.128271  0  3.816521  0  0  0.13732  0  3.829976  0  0  0.08527  0.122336  0  3.807554  0
N  N34  1  0.21234547  0.67682249  0.28623991  1  0  -0.189995  0  3.410154  0  0  -0.114156  0  3.628515  0  0  -0.129017  0  3.643483  0  0  -0.321852  -0.104366  0  3.618484  0
N  N35  1  0.78765732  0.32317560  0.71376154  1  0  -0.190134  0  3.410051  0  0  -0.114396  0  3.628504  0  0  -0.129255  0  3.64347  0  0  -0.321918  -0.104606  0  3.618475  0
O  O36  1  0.25751779  0.55031822  0.78616732  1  0  -0.93389  0  1.945272  0  0  -0.843508  0  2.24406  0  0  -0.87391  0  2.208758  0  0  -0.385558  -0.821757  0  2.267838  0
O  O37  1  0.74248508  0.44968344  0.21383257  1  0  -0.933851  0  1.945268  0  0  -0.843463  0  2.244059  0  0  -0.873864  0  2.208754  0  0  -0.385545  -0.821709  0  2.267835  0
O  O38  1  0.06999719  0.32561481  0.89931278  1  0  -0.939629  0  1.945481  0  0  -0.903328  0  2.228334  0  0  -0.941768  0  2.207387  0  0  -0.438761  -0.876548  0  2.242134  0
O  O39  1  0.93000169  0.67438566  0.10068802  1  0  -0.939635  0  1.945491  0  0  -0.903305  0  2.228331  0  0  -0.941744  0  2.207386  0  0  -0.438745  -0.876529  0  2.242133  0
O  O40  1  0.24467610  0.56857770  0.95685182  1  0  -0.955504  0  2.025958  0  0  -0.9188  0  2.314914  0  0  -0.958994  0  2.294845  0  0  -0.436613  -0.891013  0  2.327991  0
O  O41  1  0.75532674  0.43142277  0.04314815  1  0  -0.955527  0  2.025958  0  0  -0.91882  0  2.314903  0  0  -0.959015  0  2.294838  0  0  -0.436623  -0.891035  0  2.327979  0
O  O42  1  0.56026364  0.38617915  0.87646158  1  0  -0.941077  0  1.959455  0  0  -0.890158  0  2.223054  0  0  -0.925188  0  2.200342  0  0  -0.421887  -0.865589  0  2.2381  0
O  O43  1  0.43973720  0.61382013  0.12353854  1  0  -0.94098  0  1.959482  0  0  -0.890071  0  2.223099  0  0  -0.9251  0  2.200388  0  0  -0.42186  -0.865507  0  2.238148  0
O  O44  1  0.59974016  0.80364643  0.96545141  1  0  -0.944625  0  1.993425  0  0  -0.905127  0  2.276379  0  0  -0.944747  0  2.255324  0  0  -0.43607  -0.877579  0  2.290231  0
O  O45  1  0.40026070  0.19635404  0.03454796  1  0  -0.944628  0  1.993423  0  0  -0.905127  0  2.276383  0  0  -0.944746  0  2.255332  0  0  -0.436067  -0.877581  0  2.290232  0
O  O46  1  0.74153831  0.08062899  0.89792940  1  0  -0.935898  0  1.914871  0  0  -0.899245  0  2.191115  0  0  -0.936043  0  2.169087  0  0  -0.436197  -0.873587  0  2.205587  0
O  O47  1  0.25846450  0.91937029  0.10207332  1  0  -0.935908  0  1.914855  0  0  -0.899242  0  2.191105  0  0  -0.936038  0  2.169082  0  0  -0.436231  -0.873583  0  2.205571  0
O  O48  1  0.08659367  0.87609865  0.93683579  1  0  -0.959064  0  1.942935  0  0  -0.91788  0  2.217262  0  0  -0.955105  0  2.194715  0  0  -0.433444  -0.891909  0  2.232102  0
O  O49  1  0.91340717  0.12390064  0.06316433  1  0  -0.959059  0  1.942967  0  0  -0.917863  0  2.217292  0  0  -0.955086  0  2.194748  0  0  -0.433428  -0.891893  0  2.232129  0
O  O50  1  0.82552624  0.85367722  0.80552414  1  0  -0.930949  0  1.989488  0  0  -0.829419  0  2.27367  0  0  -0.860619  0  2.238471  0  0  -0.370864  -0.807433  0  2.297677  0
O  O51  1  0.17447465  0.14632444  0.19447583  1  0  -0.93095  0  1.989468  0  0  -0.829417  0  2.273664  0  0  -0.860617  0  2.238465  0  0  -0.370862  -0.807434  0  2.297671  0
O  O52  1  0.06796833  0.71007446  0.61616774  1  0  -0.669009  0  2.056044  0  0  -0.601111  0  2.33676  0  0  -0.629823  0  2.320019  0  0  -0.324352  -0.580965  0  2.34757  0
O  O53  1  0.93203061  0.28992957  0.38383216  1  0  -0.668985  0  2.056145  0  0  -0.601075  0  2.336841  0  0  -0.629791  0  2.320104  0  0  -0.324332  -0.580931  0  2.347654  0
O  O54  1  0.74038667  0.86532300  0.56356702  1  0  -0.591475  0  1.961146  0  0  -0.539573  0  2.173903  0  0  -0.56329  0  2.164698  0  0  -0.300149  -0.52312  0  2.179781  0
O  O55  1  0.25960826  0.13467747  0.43643059  1  0  -0.591466  0  1.961091  0  0  -0.539583  0  2.173871  0  0  -0.563299  0  2.164661  0  0  -0.300157  -0.523127  0  2.179745  0
O  O56  1  0.42832790  0.90727688  0.71122230  1  0  -0.85727  0  1.873253  0  0  -0.784889  0  2.087072  0  0  -0.809604  0  2.049234  0  0  -0.573711  -0.767336  0  2.113169  0
O  O57  1  0.57167295  0.09272240  0.28877782  1  0  -0.857286  0  1.873202  0  0  -0.784916  0  2.087027  0  0  -0.809632  0  2.049189  0  0  -0.573718  -0.76736  0  2.113125  0
