# generated using pymatgen
data_Zr3H5C24S6O16F3
_symmetry_space_group_name_H-M   'P 1'
_cell_length_a   16.48474050
_cell_length_b   16.48472874
_cell_length_c   16.48425876
_cell_angle_alpha   60.00088000
_cell_angle_beta   59.99776812
_cell_angle_gamma   59.99920178
_symmetry_Int_Tables_number   1
_chemical_formula_structural   Zr3H5C24S6O16F3
_chemical_formula_sum   'Zr6 H10 C48 S12 O32 F6'
_cell_volume   3167.46108252
_cell_formula_units_Z   2
loop_
 _symmetry_equiv_pos_site_id
 _symmetry_equiv_pos_as_xyz
  1  'x, y, z'
loop_
 _atom_site_type_symbol
 _atom_site_label
 _atom_site_symmetry_multiplicity
 _atom_site_fract_x
 _atom_site_fract_y
 _atom_site_fract_z
 _atom_site_occupancy
 _atom_site_pbe_bader_charge
 _atom_site_pbe_bader_spin_density
 _atom_site_pbe_cm5_charge
 _atom_site_pbe_ddec_charge
 _atom_site_pbe_ddec_spin_density
 _atom_site_pbe_ddec_sum_bond_order
 _atom_site_pbe_magmom
Zr  Zr0  1  0.89240463  0.89254631  0.60746402  1  2.636617  0  1.620698  2.375685  0  2.747454  0
Zr  Zr1  1  0.10724095  0.10735313  0.39263148  1  2.639647  0  1.626227  2.379411  0  2.741436  0
Zr  Zr2  1  0.10750007  0.89251983  0.60740419  1  2.640006  0  1.627098  2.379161  0  2.74532  0
Zr  Zr3  1  0.89261351  0.10739871  0.39268268  1  2.635028  0  1.619704  2.375534  0  2.74368  0
Zr  Zr4  1  0.10716931  0.89207822  0.39307879  1  2.640606  0  1.623656  2.377781  0  2.744537  0
Zr  Zr5  1  0.89230223  0.10687196  0.60796914  1  2.639105  0  1.623692  2.377836  0  2.744674  0
H  H6  1  0.08407856  0.74641851  0.58467869  1  0.613943  0  0.331179  0.42308  0  0.857894  0
H  H7  1  0.08406937  0.08423406  0.24686542  1  0.602896  0  0.331139  0.423211  0  0.858104  0
H  H8  1  0.08408086  0.08431979  0.58454507  1  0.620253  0  0.331434  0.423498  0  0.857147  0
H  H9  1  0.74623627  0.08435208  0.58459045  1  0.63506  0  0.330502  0.422045  0  0.858948  0
H  H10  1  0.12709444  0.60980618  0.37162114  1  0.097679  0  0.123382  0.149634  0  0.96682  0
H  H11  1  0.60974832  0.12715209  0.89143169  1  0.126717  0  0.123559  0.149924  0  0.96646  0
H  H12  1  0.87134023  0.12744411  0.10997844  1  0.089913  0  0.122086  0.148371  0  0.96891  0
H  H13  1  0.60997429  0.39121908  0.37135935  1  0.11416  0  0.122095  0.148337  0  0.968979  0
H  H14  1  0.87120388  0.60995138  0.89123328  1  0.113238  0  0.121829  0.148046  0  0.969478  0
H  H15  1  0.60981639  0.87152152  0.62724400  1  0.094081  0  0.122796  0.148804  0  0.967684  0
C  C16  1  0.99767031  0.72930056  0.49799237  1  1.579782  0  0.225768  0.641487  0  4.157794  0
C  C17  1  0.27395976  0.99600708  0.23025923  1  1.571999  0  0.223802  0.665398  0  4.150576  0
C  C18  1  0.99591658  0.27405854  0.49967400  1  1.583363  0  0.223541  0.665577  0  4.151298  0
C  C19  1  0.72919773  0.99779406  0.77492321  1  1.556024  0  0.226088  0.642462  0  4.15665  0
C  C20  1  0.99724756  0.72947572  0.77471443  1  1.571513  0  0.226165  0.642702  0  4.156343  0
C  C21  1  0.72938496  0.99774493  0.49801716  1  1.582033  0  0.225769  0.642669  0  4.156517  0
C  C22  1  0.99895991  0.27424886  0.23005606  1  1.569984  0  0.223068  0.66391  0  4.154506  0
C  C23  1  0.27412802  0.99949893  0.49622856  1  1.586137  0  0.223702  0.664354  0  4.152881  0
C  C24  1  0.27404574  0.72970444  0.49950085  1  1.568789  0  0.222976  0.662947  0  4.155444  0
C  C25  1  0.99903944  0.99615241  0.77454581  1  1.587885  0  0.223621  0.664309  0  4.154442  0
C  C26  1  0.72926771  0.27440751  0.49785548  1  1.568023  0  0.225694  0.642537  0  4.157415  0
C  C27  1  0.99722869  0.99802114  0.22982301  1  1.578847  0  0.225377  0.642393  0  4.158041  0
C  C28  1  0.93204449  0.41411779  0.56701349  1  0.575012  0  0.100136  0.251521  0  4.082917  0
C  C29  1  0.06515184  0.58725248  0.43375289  1  0.057038  0  -0.085967  -0.130129  0  3.954854  0
C  C30  1  0.99682751  0.36176731  0.50091235  1  -0.079254  0  -0.036141  -0.25169  0  3.972354  0
C  C31  1  0.99812830  0.63918762  0.49954193  1  -0.173952  0  -0.021622  -0.1173  0  3.964301  0
C  C32  1  0.04086213  0.50477602  0.45896420  1  -0.136095  0  -0.019926  0.004011  0  4.084965  0
C  C33  1  0.95578045  0.49594234  0.54413196  1  -0.154883  0  -0.03352  -0.139022  0  4.112481  0
C  C34  1  0.41414679  0.93202148  0.08684094  1  0.536708  0  0.100267  0.251805  0  4.083393  0
C  C35  1  0.58724069  0.06516967  0.91383459  1  0.034769  0  -0.085971  -0.130228  0  3.955096  0
C  C36  1  0.36174184  0.99684410  0.14047149  1  -0.086766  0  -0.036045  -0.251656  0  3.972948  0
C  C37  1  0.63915545  0.99818125  0.86310126  1  -0.153827  0  -0.021812  -0.118134  0  3.965562  0
C  C38  1  0.50477990  0.04085443  0.99540624  1  -0.170568  0  -0.019822  0.004289  0  4.084532  0
C  C39  1  0.49597331  0.95576062  0.00415865  1  -0.098607  0  -0.033524  -0.13927  0  4.112846  0
C  C40  1  0.06673434  0.93237631  0.91430807  1  0.577028  0  0.10227  0.25377  0  4.080172  0
C  C41  1  0.93348191  0.06552420  0.08742373  1  0.05739  0  -0.087373  -0.133119  0  3.960734  0
C  C42  1  0.00056693  0.99719465  0.86199924  1  -0.083423  0  -0.036987  -0.251573  0  3.973092  0
C  C43  1  0.99915197  0.99846966  0.13948286  1  -0.152718  0  -0.021407  -0.11874  0  3.965033  0
C  C44  1  0.95873414  0.04117574  0.00500031  1  -0.141792  0  -0.020037  0.006284  0  4.086545  0
C  C45  1  0.04386718  0.95607547  0.99619556  1  -0.149885  0  -0.033798  -0.14064  0  4.108863  0
C  C46  1  0.41434836  0.58662343  0.56668779  1  0.606919  0  0.102239  0.253711  0  4.080085  0
C  C47  1  0.58746157  0.41359258  0.43345876  1  0.03817  0  -0.087455  -0.133336  0  3.960915  0
C  C48  1  0.36194290  0.64014442  0.50062698  1  -0.091476  0  -0.036792  -0.250756  0  3.972349  0
C  C49  1  0.63937693  0.36281724  0.49926261  1  -0.167267  0  -0.021253  -0.118509  0  3.965226  0
C  C50  1  0.50508307  0.49514831  0.45866755  1  -0.141438  0  -0.020093  0.006493  0  4.086861  0
C  C51  1  0.49626101  0.50393466  0.54380233  1  -0.185885  0  -0.033653  -0.140359  0  4.108851  0
C  C52  1  0.06650356  0.41426910  0.08667821  1  0.574453  0  0.102787  0.255143  0  4.079506  0
C  C53  1  0.93328888  0.58738115  0.91364226  1  0.037337  0  -0.08832  -0.134663  0  3.963763  0
C  C54  1  0.00038561  0.36189860  0.14026537  1  -0.092616  0  -0.037221  -0.251052  0  3.973517  0
C  C55  1  0.99903469  0.63934688  0.86291977  1  -0.16733  0  -0.020886  -0.118892  0  3.965787  0
C  C56  1  0.95857018  0.50503085  0.99513306  1  -0.145451  0  -0.020382  0.007756  0  4.087018  0
C  C57  1  0.04369686  0.49620638  0.00392967  1  -0.139313  0  -0.033162  -0.141852  0  4.105995  0
C  C58  1  0.41420584  0.06688901  0.43216458  1  0.576371  0  0.100821  0.252041  0  4.082568  0
C  C59  1  0.58730004  0.93363552  0.56530059  1  0.054395  0  -0.086639  -0.130932  0  3.957084  0
C  C60  1  0.36187094  0.00076235  0.49701708  1  -0.08026  0  -0.035743  -0.25113  0  3.971739  0
C  C61  1  0.63929625  0.99936273  0.49833473  1  -0.172812  0  -0.021907  -0.118259  0  3.966137  0
C  C62  1  0.50486134  0.95884197  0.54097510  1  -0.133987  0  -0.019509  0.004962  0  4.084428  0
C  C63  1  0.49605642  0.04398682  0.45589507  1  -0.156537  0  -0.033703  -0.138966  0  4.111669  0
S  S64  1  0.08944501  0.41302376  0.40906622  1  0.286001  0  0.094187  0.15421  0  2.735679  0
S  S65  1  0.90563726  0.58852313  0.59289913  1  0.27942  0  0.091042  0.154021  0  2.744515  0
S  S66  1  0.41296244  0.08948320  0.08842656  1  0.288483  0  0.093977  0.154169  0  2.735775  0
S  S67  1  0.58852381  0.90567383  0.91289829  1  0.285228  0  0.091163  0.154402  0  2.744881  0
S  S68  1  0.90887736  0.08988706  0.91320564  1  0.275346  0  0.087521  0.144589  0  2.740397  0
S  S69  1  0.09261852  0.90601244  0.08880844  1  0.275643  0  0.09739  0.163621  0  2.739576  0
S  S70  1  0.41336886  0.58814061  0.40872756  1  0.258493  0  0.087522  0.144244  0  2.740795  0
S  S71  1  0.58888439  0.41267771  0.59253763  1  0.312172  0  0.097536  0.163753  0  2.740072  0
S  S72  1  0.90864602  0.41329839  0.08805748  1  0.250184  0  0.082022  0.13628  0  2.743975  0
S  S73  1  0.09241587  0.58886061  0.91260890  1  0.315758  0  0.102832  0.171809  0  2.736085  0
S  S74  1  0.41310592  0.90895223  0.58964128  1  0.284909  0  0.093979  0.154164  0  2.736197  0
S  S75  1  0.58865594  0.09272600  0.40582205  1  0.280614  0  0.090783  0.153667  0  2.744719  0
O  O76  1  0.92811490  0.76450114  0.56725762  1  -1.177172  0  -0.359042  -0.620271  0  2.280512  0
O  O77  1  0.23959785  0.06579558  0.26453382  1  -1.171939  0  -0.356486  -0.614519  0  2.261246  0
O  O78  1  0.06553589  0.23985681  0.42980870  1  -1.178878  0  -0.356319  -0.614498  0  2.261499  0
O  O79  1  0.76421729  0.92840984  0.73984699  1  -1.173539  0  -0.359328  -0.620763  0  2.279857  0
O  O80  1  0.06645753  0.76462870  0.73962440  1  -1.17084  0  -0.354997  -0.61181  0  2.277647  0
O  O81  1  0.76452447  0.06708200  0.42859911  1  -1.177612  0  -0.359084  -0.62042  0  2.280009  0
O  O82  1  0.92897943  0.24002223  0.26446559  1  -1.169033  0  -0.360433  -0.622734  0  2.262675  0
O  O83  1  0.23987519  0.92968266  0.56592888  1  -1.180381  0  -0.356473  -0.614641  0  2.26057  0
O  O84  1  0.23939658  0.76364233  0.43001756  1  -1.167846  0  -0.358558  -0.618055  0  2.262408  0
O  O85  1  0.92875448  0.06547572  0.74066335  1  -1.186412  0  -0.359149  -0.619381  0  2.262326  0
O  O86  1  0.76396355  0.23903977  0.56753395  1  -1.171915  0  -0.356446  -0.615734  0  2.279413  0
O  O87  1  0.06606263  0.92822819  0.26540342  1  -1.178479  0  -0.356878  -0.616273  0  2.279045  0
O  O88  1  0.06791726  0.92748219  0.73874751  1  -1.17316  0  -0.357902  -0.609795  0  2.278035  0
O  O89  1  0.76428636  0.23979155  0.42839114  1  -1.174663  0  -0.355408  -0.609255  0  2.257591  0
O  O90  1  0.92818595  0.06753558  0.26435222  1  -1.175978  0  -0.354772  -0.608745  0  2.258069  0
O  O91  1  0.23863761  0.76579687  0.56791163  1  -1.169065  0  -0.358139  -0.609967  0  2.278894  0
O  O92  1  0.92789486  0.76418859  0.74002982  1  -1.177769  0  -0.356001  -0.610027  0  2.257081  0
O  O93  1  0.23849066  0.06820000  0.42734364  1  -1.176374  0  -0.358905  -0.611858  0  2.277126  0
O  O94  1  0.06756568  0.23857391  0.26593841  1  -1.17078  0  -0.357372  -0.60929  0  2.278784  0
O  O95  1  0.76416929  0.92849804  0.56724994  1  -1.173762  0  -0.3547  -0.607881  0  2.258378  0
O  O96  1  0.76410245  0.06691011  0.74016654  1  -1.171837  0  -0.353887  -0.606501  0  2.25807  0
O  O97  1  0.06691499  0.76407777  0.42884911  1  -1.175631  0  -0.354054  -0.606559  0  2.25781  0
O  O98  1  0.23843433  0.92700099  0.26610943  1  -1.168235  0  -0.359645  -0.613188  0  2.275804  0
O  O99  1  0.92702221  0.23842398  0.56846825  1  -1.178411  0  -0.359482  -0.613223  0  2.275686  0
O  O100  1  0.81827130  0.06025834  0.56063669  1  -1.266526  0  -0.693468  -1.068443  0  2.360713  0
O  O101  1  0.06002200  0.06026462  0.56062393  1  -1.249127  0  -0.69407  -1.070275  0  2.363953  0
O  O102  1  0.05998820  0.06012716  0.31890222  1  -1.233723  0  -0.693637  -1.069658  0  2.363086  0
O  O103  1  0.05988970  0.81845086  0.56073621  1  -1.244749  0  -0.694239  -1.070646  0  2.363538  0
O  O104  1  0.13308934  0.95534415  0.45557452  1  -1.203313  0  -0.789104  -1.150749  0  2.122469  0
O  O105  1  0.95491425  0.95529269  0.45554277  1  -1.202948  0  -0.788176  -1.148619  0  2.115169  0
O  O106  1  0.95493365  0.13337390  0.45587247  1  -1.200955  0  -0.788406  -1.149527  0  2.119382  0
O  O107  1  0.95506075  0.95503999  0.63394376  1  -1.197443  0  -0.788973  -1.150402  0  2.119333  0
F  F108  1  0.85390835  0.39096046  0.64534250  1  -0.621988  0  -0.088203  -0.108037  0  1.355112  0
F  F109  1  0.39100074  0.85387823  0.10981984  1  -0.619062  0  -0.088212  -0.108036  0  1.355226  0
F  F110  1  0.14491302  0.85425225  0.89112684  1  -0.6198  0  -0.085978  -0.105138  0  1.356202  0
F  F111  1  0.39109228  0.60967992  0.64493660  1  -0.617823  0  -0.085882  -0.105209  0  1.356217  0
F  F112  1  0.14469423  0.39104099  0.10979116  1  -0.618069  0  -0.08559  -0.104827  0  1.355846  0
F  F113  1  0.39104535  0.14517752  0.35404795  1  -0.619793  0  -0.087054  -0.106652  0  1.355765  0
