# generated using pymatgen
data_FeH10Au2(C7N3)2
_symmetry_space_group_name_H-M   'P 1'
_cell_length_a   6.95841438
_cell_length_b   8.33694683
_cell_length_c   13.89891945
_cell_angle_alpha   89.99355366
_cell_angle_beta   90.00535284
_cell_angle_gamma   97.20767119
_symmetry_Int_Tables_number   1
_chemical_formula_structural   FeH10Au2(C7N3)2
_chemical_formula_sum   'Fe2 H20 Au4 C28 N12'
_cell_volume   799.93166520
_cell_formula_units_Z   2
loop_
 _symmetry_equiv_pos_site_id
 _symmetry_equiv_pos_as_xyz
  1  'x, y, z'
loop_
 _atom_site_type_symbol
 _atom_site_label
 _atom_site_symmetry_multiplicity
 _atom_site_fract_x
 _atom_site_fract_y
 _atom_site_fract_z
 _atom_site_occupancy
 _atom_site_hle17_bader_spin_density
 _atom_site_hle17_ddec_charge
 _atom_site_hle17_ddec_spin_density
 _atom_site_hle17_ddec_sum_bond_order
 _atom_site_hle17_magmom
 _atom_site_hse06_10hf_bader_spin_density
 _atom_site_hse06_10hf_ddec_charge
 _atom_site_hse06_10hf_ddec_spin_density
 _atom_site_hse06_10hf_ddec_sum_bond_order
 _atom_site_hse06_10hf_magmom
 _atom_site_hse06_bader_spin_density
 _atom_site_hse06_ddec_charge
 _atom_site_hse06_ddec_spin_density
 _atom_site_hse06_ddec_sum_bond_order
 _atom_site_hse06_magmom
 _atom_site_pbe_bader_spin_density
 _atom_site_pbe_cm5_charge
 _atom_site_pbe_ddec_charge
 _atom_site_pbe_ddec_spin_density
 _atom_site_pbe_ddec_sum_bond_order
 _atom_site_pbe_magmom
Fe  Fe0  1  0.98955751  0.99605044  0.98579814  1  0  0.617122  0  3.086662  0  0  0.584977  0  3.570759  0  0  0.630576  0  3.510908  0  0  0.792134  0.561735  0  3.604255  0
Fe  Fe1  1  0.98947787  0.49616172  0.51421805  1  0  0.616959  0  3.086617  0  0  0.584868  0  3.570652  0  0  0.630418  0  3.510843  0  0  0.792162  0.561644  0  3.604142  0
H  H2  1  0.18026719  0.47919821  0.83216641  1  0  0.095725  0  0.971804  0  0  0.102606  0  1.037809  0  0  0.104229  0  1.038205  0  0  0.096757  0.101481  0  1.037646  0
H  H3  1  0.82036725  0.99751002  0.33784438  1  0  0.095605  0  0.966804  0  0  0.10219  0  1.03304  0  0  0.10463  0  1.031952  0  0  0.09629  0.100457  0  1.033975  0
H  H4  1  0.82019761  0.49735387  0.16211679  1  0  0.095648  0  0.96678  0  0  0.102317  0  1.032944  0  0  0.104709  0  1.031909  0  0  0.096414  0.100617  0  1.033853  0
H  H5  1  0.18011373  0.97919622  0.66785029  1  0  0.095762  0  0.971821  0  0  0.102562  0  1.037933  0  0  0.104206  0  1.038309  0  0  0.096679  0.101439  0  1.037769  0
H  H6  1  0.05771132  0.74780918  0.83735579  1  0  0.082727  0  0.941738  0  0  0.090991  0  1.003946  0  0  0.091528  0  1.003501  0  0  0.116374  0.090602  0  1.004479  0
H  H7  1  0.93300993  0.72613868  0.35631137  1  0  0.08446  0  0.947795  0  0  0.090338  0  1.013036  0  0  0.091653  0  1.011647  0  0  0.116291  0.089369  0  1.014181  0
H  H8  1  0.93291662  0.22601746  0.14368812  1  0  0.084477  0  0.947676  0  0  0.090312  0  1.01296  0  0  0.091626  0  1.011571  0  0  0.116282  0.08935  0  1.014114  0
H  H9  1  0.05755211  0.24779796  0.66265850  1  0  0.082896  0  0.941575  0  0  0.091138  0  1.003825  0  0  0.091686  0  1.003367  0  0  0.116354  0.090743  0  1.004353  0
H  H10  1  0.30972941  0.36845806  0.98391402  1  0  0.104358  0  0.949465  0  0  0.1135  0  1.009659  0  0  0.115061  0  1.009958  0  0  0.107157  0.11231  0  1.009668  0
H  H11  1  0.68766945  0.12763059  0.48243220  1  0  0.101079  0  0.954646  0  0  0.111494  0  1.014264  0  0  0.112744  0  1.01466  0  0  0.106304  0.110535  0  1.014176  0
H  H12  1  0.68758309  0.62752183  0.01750063  1  0  0.101281  0  0.954092  0  0  0.111578  0  1.013913  0  0  0.112826  0  1.014318  0  0  0.106174  0.110652  0  1.013749  0
H  H13  1  0.30976859  0.86861008  0.51611891  1  0  0.104569  0  0.948909  0  0  0.113739  0  1.009141  0  0  0.115308  0  1.00942  0  0  0.107071  0.112545  0  1.009163  0
H  H14  1  0.18554101  0.80292064  0.12736142  1  0  0.080308  0  0.96157  0  0  0.082786  0  1.03421  0  0  0.084678  0  1.031996  0  0  0.110779  0.081434  0  1.035907  0
H  H15  1  0.80692653  0.71349965  0.64751777  1  0  0.074428  0  0.964923  0  0  0.078352  0  1.038355  0  0  0.079462  0  1.036544  0  0  0.107617  0.077631  0  1.039675  0
H  H16  1  0.80709562  0.21349483  0.85244784  1  0  0.074585  0  0.965147  0  0  0.078499  0  1.038492  0  0  0.079617  0  1.03667  0  0  0.107759  0.077767  0  1.039828  0
H  H17  1  0.18563316  0.30314995  0.37269390  1  0  0.080181  0  0.961467  0  0  0.082778  0  1.033913  0  0  0.084667  0  1.031705  0  0  0.110872  0.081428  0  1.035615  0
H  H18  1  0.31482531  0.53726171  0.13403273  1  0  0.088027  0  0.986888  0  0  0.091401  0  1.062513  0  0  0.09419  0  1.061018  0  0  0.089121  0.089442  0  1.063713  0
H  H19  1  0.68006415  0.98011118  0.64013132  1  0  0.083226  0  0.995923  0  0  0.085267  0  1.076595  0  0  0.087643  0  1.075033  0  0  0.086346  0.083581  0  1.077862  0
H  H20  1  0.68019809  0.48008197  0.85979131  1  0  0.083535  0  0.995981  0  0  0.08556  0  1.076575  0  0  0.087923  0  1.075042  0  0  0.086481  0.083902  0  1.077818  0
H  H21  1  0.31500394  0.03754221  0.36603612  1  0  0.087772  0  0.986948  0  0  0.09126  0  1.062461  0  0  0.094029  0  1.06098  0  0  0.089002  0.08931  0  1.063654  0
Au  Au22  1  0.53687063  0.26194916  0.25251027  1  0  0.100716  0  2.427351  0  0  0.044395  0  2.908859  0  0  0.05273  0  2.875522  0  0  0.305306  0.038798  0  2.93266  0
Au  Au23  1  0.47701423  0.24979619  0.74128827  1  0  0.105782  0  2.426415  0  0  0.04325  0  2.918754  0  0  0.053798  0  2.878652  0  0  0.309831  0.035699  0  2.948279  0
Au  Au24  1  0.47700616  0.74989394  0.75870210  1  0  0.10579  0  2.426471  0  0  0.043229  0  2.918817  0  0  0.05378  0  2.878711  0  0  0.309735  0.035673  0  2.948347  0
Au  Au25  1  0.53687805  0.76191599  0.24748639  1  0  0.100742  0  2.426791  0  0  0.044475  0  2.908152  0  0  0.052794  0  2.874838  0  0  0.305247  0.038881  0  2.931935  0
C  C26  1  0.34661356  0.16183950  0.15773138  1  0  0.01851  0  3.604571  0  0  0.033155  0  3.947384  0  0  0.036806  0  3.95848  0  0  -0.005849  0.030927  0  3.939762  0
C  C27  1  0.67861096  0.35394864  0.65312284  1  0  0.028784  0  3.51122  0  0  0.034196  0  3.860024  0  0  0.047184  0  3.861203  0  0  -0.005281  0.025082  0  3.860211  0
C  C28  1  0.67868002  0.85395045  0.84685974  1  0  0.028571  0  3.511397  0  0  0.033978  0  3.860244  0  0  0.046965  0  3.861435  0  0  -0.005324  0.024858  0  3.860428  0
C  C29  1  0.34654489  0.66195104  0.34227835  1  0  0.018735  0  3.605466  0  0  0.033423  0  3.94817  0  0  0.037069  0  3.959266  0  0  -0.005768  0.031203  0  3.940552  0
C  C30  1  0.72271956  0.85897841  0.14966182  1  0  0.032516  0  3.537155  0  0  0.037842  0  3.887659  0  0  0.049017  0  3.891859  0  0  -0.002154  0.0303  0  3.885258  0
C  C31  1  0.28023967  0.64619358  0.66687522  1  0  0.03188  0  3.527443  0  0  0.040601  0  3.880168  0  0  0.050674  0  3.883085  0  0  0.001487  0.033931  0  3.878927  0
C  C32  1  0.28031188  0.14607650  0.83313609  1  0  0.031799  0  3.527102  0  0  0.040498  0  3.879876  0  0  0.050565  0  3.882799  0  0  0.001412  0.033824  0  3.878619  0
C  C33  1  0.72271706  0.35909476  0.35030593  1  0  0.032764  0  3.536433  0  0  0.03809  0  3.886989  0  0  0.049263  0  3.891178  0  0  -0.002171  0.030555  0  3.884597  0
C  C34  1  0.18689613  0.54757247  0.89899812  1  0  -0.13409  0  3.78662  0  0  -0.139842  0  4.03143  0  0  -0.148953  0  4.055254  0  0  -0.094977  -0.133674  0  4.015439  0
C  C35  1  0.81039765  0.93731646  0.40748550  1  0  -0.129707  0  3.779541  0  0  -0.136196  0  4.027716  0  0  -0.144327  0  4.049298  0  0  -0.093073  -0.130873  0  4.013533  0
C  C36  1  0.81033561  0.43718686  0.09247515  1  0  -0.129812  0  3.779165  0  0  -0.136334  0  4.027396  0  0  -0.144429  0  4.049001  0  0  -0.09327  -0.131048  0  4.013198  0
C  C37  1  0.18678605  0.04761146  0.60102649  1  0  -0.134383  0  3.786253  0  0  -0.139957  0  4.0311  0  0  -0.149083  0  4.054919  0  0  -0.095121  -0.133789  0  4.0151  0
C  C38  1  0.11787309  0.69731949  0.90115031  1  0  0.113631  0  3.692302  0  0  0.085705  0  3.943117  0  0  0.094029  0  3.962177  0  0  0.040892  0.079976  0  3.930343  0
C  C39  1  0.87506013  0.78680449  0.41702910  1  0  0.118377  0  3.674899  0  0  0.086103  0  3.929778  0  0  0.095423  0  3.94697  0  0  0.042683  0.079575  0  3.918573  0
C  C40  1  0.87502163  0.28669109  0.08295324  1  0  0.118095  0  3.673854  0  0  0.085856  0  3.928888  0  0  0.095169  0  3.946064  0  0  0.042538  0.079318  0  3.917715  0
C  C41  1  0.11777545  0.19735771  0.59887332  1  0  0.113235  0  3.692529  0  0  0.085369  0  3.943336  0  0  0.093664  0  3.962427  0  0  0.040918  0.079665  0  3.930536  0
C  C42  1  0.25892912  0.48662346  0.98291141  1  0  0.001341  0  3.705565  0  0  -0.017892  0  3.94667  0  0  -0.013315  0  3.967312  0  0  -0.070509  -0.021105  0  3.93306  0
C  C43  1  0.73753031  0.00948624  0.48762072  1  0  0.004666  0  3.70653  0  0  -0.015082  0  3.94627  0  0  -0.010313  0  3.967013  0  0  -0.069732  -0.018386  0  3.93253  0
C  C44  1  0.73750432  0.50939444  0.01232720  1  0  0.004892  0  3.70551  0  0  -0.014767  0  3.945285  0  0  -0.009995  0  3.966019  0  0  -0.06957  -0.018071  0  3.931563  0
C  C45  1  0.25893485  0.98675093  0.51713085  1  0  0.001687  0  3.704028  0  0  -0.017825  0  3.945562  0  0  -0.013231  0  3.966158  0  0  -0.070216  -0.02104  0  3.931973  0
C  C46  1  0.18876350  0.72754603  0.06363260  1  0  0.118432  0  3.668763  0  0  0.087185  0  3.921338  0  0  0.095816  0  3.939742  0  0  0.042992  0.081082  0  3.909359  0
C  C47  1  0.80404464  0.77946972  0.58008710  1  0  0.117233  0  3.677241  0  0  0.088277  0  3.923445  0  0  0.096174  0  3.944044  0  0  0.042094  0.082795  0  3.909708  0
C  C48  1  0.80414557  0.27943536  0.91987657  1  0  0.116992  0  3.678124  0  0  0.088151  0  3.924206  0  0  0.09604  0  3.944824  0  0  0.041937  0.082679  0  3.910456  0
C  C49  1  0.18882337  0.22775027  0.43642103  1  0  0.118399  0  3.668887  0  0  0.087248  0  3.921377  0  0  0.095856  0  3.939798  0  0  0.04311  0.081153  0  3.909391  0
C  C50  1  0.26080618  0.57974807  0.06624768  1  0  -0.123884  0  3.763034  0  0  -0.129423  0  4.00657  0  0  -0.138373  0  4.029831  0  0  -0.089174  -0.123549  0  3.991309  0
C  C51  1  0.73397324  0.92798062  0.57511214  1  0  -0.125742  0  3.772395  0  0  -0.130139  0  4.013834  0  0  -0.139883  0  4.039019  0  0  -0.0903  -0.123563  0  3.997012  0
C  C52  1  0.73401688  0.42792089  0.92483188  1  0  -0.126425  0  3.773203  0  0  -0.130876  0  4.014765  0  0  -0.140585  0  4.039892  0  0  -0.090465  -0.124344  0  3.997965  0
C  C53  1  0.26089628  0.07996622  0.43381053  1  0  -0.123649  0  3.762428  0  0  -0.129216  0  4.00603  0  0  -0.138145  0  4.029294  0  0  -0.089069  -0.123344  0  3.990774  0
N  N54  1  0.23292394  0.10313246  0.10185013  1  0  -0.35548  0  2.929425  0  0  -0.316911  0  3.182163  0  0  -0.335173  0  3.19998  0  0  -0.315841  -0.304501  0  3.169664  0
N  N55  1  0.80089737  0.41294755  0.60110597  1  0  -0.319276  0  3.362239  0  0  -0.285759  0  3.66554  0  0  -0.305686  0  3.675479  0  0  -0.386263  -0.27386  0  3.65779  0
N  N56  1  0.80098662  0.91290360  0.89888765  1  0  -0.319088  0  3.362364  0  0  -0.285571  0  3.665741  0  0  -0.305504  0  3.675685  0  0  -0.386278  -0.273675  0  3.657979  0
N  N57  1  0.23292251  0.60330300  0.39818421  1  0  -0.355715  0  2.930472  0  0  -0.317179  0  3.183136  0  0  -0.335436  0  3.200949  0  0  -0.315971  -0.304764  0  3.170643  0
N  N58  1  0.82997084  0.91257218  0.08923549  1  0  -0.332933  0  3.319256  0  0  -0.300038  0  3.62061  0  0  -0.31901  0  3.631766  0  0  -0.379826  -0.288751  0  3.612033  0
N  N59  1  0.16374713  0.58691058  0.61207530  1  0  -0.335207  0  3.277626  0  0  -0.306568  0  3.580548  0  0  -0.323539  0  3.59012  0  0  -0.377337  -0.296682  0  3.573101  0
N  N60  1  0.16384330  0.08680166  0.88794614  1  0  -0.335147  0  3.277134  0  0  -0.306503  0  3.580087  0  0  -0.323483  0  3.589661  0  0  -0.377353  -0.296613  0  3.572626  0
N  N61  1  0.82991779  0.41270131  0.41075806  1  0  -0.333025  0  3.318185  0  0  -0.300149  0  3.619577  0  0  -0.319102  0  3.630718  0  0  -0.379798  -0.28887  0  3.611012  0
N  N62  1  0.11610026  0.78532444  0.98227648  1  0  -0.223377  0  3.305571  0  0  -0.171543  0  3.575528  0  0  -0.197945  0  3.596874  0  0  -0.314465  -0.153979  0  3.560148  0
N  N63  1  0.87432746  0.70950545  0.50231903  1  0  -0.21938  0  3.306837  0  0  -0.165369  0  3.574877  0  0  -0.191664  0  3.595923  0  0  -0.315526  -0.147985  0  3.559824  0
N  N64  1  0.87435693  0.20942534  0.99766016  1  0  -0.218918  0  3.305553  0  0  -0.16496  0  3.573567  0  0  -0.191243  0  3.594606  0  0  -0.315274  -0.147599  0  3.558519  0
N  N65  1  0.11607170  0.28543671  0.51775593  1  0  -0.223062  0  3.305997  0  0  -0.171438  0  3.576191  0  0  -0.197809  0  3.597554  0  0  -0.314647  -0.153886  0  3.5608  0
