# generated using pymatgen
data_GdH15C22S2N2O7
_symmetry_space_group_name_H-M   'P 1'
_cell_length_a   8.92167693
_cell_length_b   11.31389771
_cell_length_c   12.14403513
_cell_angle_alpha   117.06129078
_cell_angle_beta   92.10115489
_cell_angle_gamma   101.70151938
_symmetry_Int_Tables_number   1
_chemical_formula_structural   GdH15C22S2N2O7
_chemical_formula_sum   'Gd2 H30 C44 S4 N4 O14'
_cell_volume   1057.17028297
_cell_formula_units_Z   2
loop_
 _symmetry_equiv_pos_site_id
 _symmetry_equiv_pos_as_xyz
  1  'x, y, z'
loop_
 _atom_site_type_symbol
 _atom_site_label
 _atom_site_symmetry_multiplicity
 _atom_site_fract_x
 _atom_site_fract_y
 _atom_site_fract_z
 _atom_site_occupancy
 _atom_site_hle17_bader_spin_density
 _atom_site_hle17_ddec_charge
 _atom_site_hle17_ddec_spin_density
 _atom_site_hle17_ddec_sum_bond_order
 _atom_site_hle17_magmom
 _atom_site_hse06_10hf_bader_spin_density
 _atom_site_hse06_10hf_ddec_charge
 _atom_site_hse06_10hf_ddec_spin_density
 _atom_site_hse06_10hf_ddec_sum_bond_order
 _atom_site_hse06_10hf_magmom
 _atom_site_hse06_bader_spin_density
 _atom_site_hse06_ddec_charge
 _atom_site_hse06_ddec_spin_density
 _atom_site_hse06_ddec_sum_bond_order
 _atom_site_hse06_magmom
 _atom_site_pbe_bader_spin_density
 _atom_site_pbe_cm5_charge
 _atom_site_pbe_ddec_charge
 _atom_site_pbe_ddec_spin_density
 _atom_site_pbe_ddec_sum_bond_order
 _atom_site_pbe_magmom
Gd  Gd0  1  0.14204150  0.40566934  0.49620433  1  0  2.219273  0  1.82107  0  0  2.11239  0  2.205446  0  0  2.167643  0  2.1444  0  0  1.463515  2.070773  0  2.251923  0
Gd  Gd1  1  0.85795973  0.59433066  0.50379576  1  0  2.21925  0  1.821071  0  0  2.112381  0  2.205431  0  0  2.167644  0  2.144364  0  0  1.463502  2.07076  0  2.251939  0
H  H2  1  0.80391661  0.35832305  0.53399446  1  0  0.435382  0  0.861908  0  0  0.409004  0  0.919781  0  0  0.418638  0  0.905656  0  0  0.289151  0.402388  0  0.929367  0
H  H3  1  0.19608462  0.64167696  0.46600645  1  0  0.435376  0  0.861916  0  0  0.409  0  0.919786  0  0  0.418633  0  0.90566  0  0  0.289149  0.402385  0  0.929369  0
H  H4  1  0.28063341  0.17370925  0.25294822  1  0  0.078663  0  0.957936  0  0  0.085265  0  1.026151  0  0  0.087524  0  1.023859  0  0  0.118544  0.083489  0  1.027971  0
H  H5  1  0.71936416  0.82628973  0.74705133  1  0  0.078668  0  0.957922  0  0  0.085279  0  1.026135  0  0  0.087536  0  1.023846  0  0  0.118545  0.083506  0  1.027954  0
H  H6  1  0.39278089  0.96947455  0.18502558  1  0  0.097707  0  0.975103  0  0  0.108644  0  1.031829  0  0  0.110204  0  1.034201  0  0  0.103365  0.107522  0  1.03033  0
H  H7  1  0.60721640  0.03052341  0.81497271  1  0  0.097701  0  0.975071  0  0  0.108632  0  1.031808  0  0  0.11019  0  1.03418  0  0  0.103378  0.107509  0  1.030308  0
H  H8  1  0.39303266  0.85709122  0.32216039  1  0  0.104  0  0.932709  0  0  0.116147  0  0.989928  0  0  0.118659  0  0.988844  0  0  0.110996  0.1142  0  0.990953  0
H  H9  1  0.60696463  0.14290674  0.67783790  1  0  0.103996  0  0.932723  0  0  0.116132  0  0.98996  0  0  0.118645  0  0.988874  0  0  0.110992  0.114186  0  0.990983  0
H  H10  1  0.19886551  0.94001621  0.70656651  1  0  0.103334  0  0.964795  0  0  0.113567  0  1.027007  0  0  0.115715  0  1.027286  0  0  0.105444  0.111999  0  1.026816  0
H  H11  1  0.80113263  0.05998483  0.29343310  1  0  0.103329  0  0.964779  0  0  0.113556  0  1.027009  0  0  0.115712  0  1.027264  0  0  0.10544  0.111989  0  1.026812  0
H  H12  1  0.32531760  0.85135708  0.51638891  1  0  0.119983  0  0.977377  0  0  0.13166  0  1.034875  0  0  0.134824  0  1.033186  0  0  0.110276  0.129316  0  1.03614  0
H  H13  1  0.67468166  0.14864395  0.48361156  1  0  0.119952  0  0.977406  0  0  0.131627  0  1.034908  0  0  0.134791  0  1.03322  0  0  0.110265  0.129284  0  1.036163  0
H  H14  1  0.98917248  0.42191333  0.75399988  1  0  0.078715  0  0.98094  0  0  0.084587  0  1.049014  0  0  0.08753  0  1.045609  0  0  0.119829  0.082364  0  1.051523  0
H  H15  1  0.01082791  0.57808770  0.24599980  1  0  0.0787  0  0.980924  0  0  0.084555  0  1.049017  0  0  0.087497  0  1.045614  0  0  0.119826  0.082334  0  1.051523  0
H  H16  1  0.96186431  0.31799492  0.89940247  1  0  0.111588  0  0.954929  0  0  0.122523  0  1.012767  0  0  0.12555  0  1.012016  0  0  0.108709  0.120329  0  1.013518  0
H  H17  1  0.03813608  0.68200611  0.10059802  1  0  0.111605  0  0.954949  0  0  0.122539  0  1.012783  0  0  0.125565  0  1.012034  0  0  0.10871  0.120342  0  1.013535  0
H  H18  1  0.06507326  0.11399873  0.85022285  1  0  0.097168  0  0.944066  0  0  0.110869  0  1.001463  0  0  0.11306  0  1.000137  0  0  0.109666  0.109248  0  1.00246  0
H  H19  1  0.93492741  0.88600333  0.14977809  1  0  0.097194  0  0.94405  0  0  0.110865  0  1.001481  0  0  0.113056  0  1.000156  0  0  0.109656  0.109242  0  1.002478  0
H  H20  1  0.58882066  0.27995980  0.16607766  1  0  0.11921  0  0.962031  0  0  0.127063  0  1.026679  0  0  0.130268  0  1.025058  0  0  0.112175  0.124757  0  1.027871  0
H  H21  1  0.41117944  0.72004021  0.83392157  1  0  0.119207  0  0.962039  0  0  0.127063  0  1.026684  0  0  0.130266  0  1.025067  0  0  0.112178  0.124757  0  1.027878  0
H  H22  1  0.90526950  0.01931962  0.06221185  1  0  0.098131  0  0.952095  0  0  0.10942  0  1.013395  0  0  0.112718  0  1.010987  0  0  0.107027  0.10702  0  1.015264  0
H  H23  1  0.09473201  0.98068141  0.93778950  1  0  0.098153  0  0.952078  0  0  0.109441  0  1.013377  0  0  0.112741  0  1.01097  0  0  0.107048  0.10704  0  1.015244  0
H  H24  1  0.68845075  0.81552649  0.93176846  1  0  0.115027  0  0.927001  0  0  0.127745  0  0.980607  0  0  0.130967  0  0.979315  0  0  0.112962  0.12537  0  0.981695  0
H  H25  1  0.31154935  0.18447352  0.06823160  1  0  0.115027  0  0.927001  0  0  0.127744  0  0.980611  0  0  0.130966  0  0.979318  0  0  0.112966  0.125367  0  0.981694  0
H  H26  1  0.32784482  0.50989197  0.80894522  1  0  0.120289  0  0.977789  0  0  0.125571  0  1.047239  0  0  0.12914  0  1.04507  0  0  0.110935  0.12298  0  1.048906  0
H  H27  1  0.67215641  0.49010804  0.19105486  1  0  0.120279  0  0.977817  0  0  0.125557  0  1.047279  0  0  0.129123  0  1.045113  0  0  0.110928  0.122966  0  1.048948  0
H  H28  1  0.78229364  0.43458583  0.78897352  1  0  0.097775  0  0.976487  0  0  0.106718  0  1.042038  0  0  0.109859  0  1.039872  0  0  0.106142  0.104377  0  1.04381  0
H  H29  1  0.21770674  0.56541519  0.21102780  1  0  0.09779  0  0.976407  0  0  0.106695  0  1.042002  0  0  0.10984  0  1.039832  0  0  0.106124  0.104356  0  1.043773  0
H  H30  1  0.79242324  0.44864707  0.00009040  1  0  0.098776  0  0.951616  0  0  0.110474  0  1.011268  0  0  0.113492  0  1.009927  0  0  0.104124  0.108285  0  1.012395  0
H  H31  1  0.20757993  0.55135191  0.99991013  1  0  0.098657  0  0.951738  0  0  0.11042  0  1.011326  0  0  0.113444  0  1.009983  0  0  0.104108  0.108235  0  1.01245  0
C  C32  1  0.28088541  0.12139459  0.30923767  1  0  0.170307  0  3.687925  0  0  0.138629  0  3.950252  0  0  0.147214  0  3.965962  0  0  0.065022  0.133218  0  3.939466  0
C  C33  1  0.71911329  0.87860439  0.69076191  1  0  0.170306  0  3.687912  0  0  0.138618  0  3.950251  0  0  0.147203  0  3.965959  0  0  0.065022  0.133204  0  3.939472  0
C  C34  1  0.34445415  0.00733599  0.27207508  1  0  -0.117418  0  3.731902  0  0  -0.127696  0  3.978823  0  0  -0.135355  0  4.001509  0  0  -0.082909  -0.122873  0  3.963519  0
C  C35  1  0.65554426  0.99266197  0.72792324  1  0  -0.117411  0  3.731784  0  0  -0.127678  0  3.97872  0  0  -0.135334  0  4.001402  0  0  -0.082913  -0.122853  0  3.963416  0
C  C36  1  0.34456530  0.94564580  0.34740925  1  0  -0.038214  0  3.687035  0  0  -0.0623  0  3.933003  0  0  -0.059391  0  3.950938  0  0  -0.058164  -0.063882  0  3.920818  0
C  C37  1  0.65543369  0.05435421  0.65258995  1  0  -0.038195  0  3.686914  0  0  -0.062283  0  3.932899  0  0  -0.059375  0  3.950833  0  0  -0.058161  -0.063861  0  3.920713  0
C  C38  1  0.27932206  0.99762947  0.45902180  1  0  0.030603  0  3.77195  0  0  0.047293  0  4.00254  0  0  0.044626  0  4.026333  0  0  0.001316  0.048946  0  3.98657  0
C  C39  1  0.72067805  0.00237054  0.54097744  1  0  0.030597  0  3.771891  0  0  0.047292  0  4.002481  0  0  0.044626  0  4.026273  0  0  0.001307  0.048938  0  3.986518  0
C  C40  1  0.21686007  0.11279501  0.48856771  1  0  0.142613  0  3.751717  0  0  0.136962  0  3.995071  0  0  0.141661  0  4.015875  0  0  0.122606  0.133793  0  3.980969  0
C  C41  1  0.78314032  0.88720602  0.51143197  1  0  0.142582  0  3.751799  0  0  0.136935  0  3.995162  0  0  0.141633  0  4.015966  0  0  0.12262  0.133767  0  3.981057  0
C  C42  1  0.14838640  0.16766672  0.60146232  1  0  0.137428  0  3.752038  0  0  0.133063  0  3.994244  0  0  0.136903  0  4.015906  0  0  0.121652  0.130427  0  3.979572  0
C  C43  1  0.85161399  0.83233431  0.39853736  1  0  0.137445  0  3.751945  0  0  0.133072  0  3.994176  0  0  0.136913  0  4.015837  0  0  0.121655  0.130445  0  3.979496  0
C  C44  1  0.14190233  0.10378989  0.67937478  1  0  0.029073  0  3.780405  0  0  0.044802  0  4.010928  0  0  0.042612  0  4.035287  0  0  0.000814  0.046095  0  3.994504  0
C  C45  1  0.85809722  0.89621216  0.32062531  1  0  0.029077  0  3.780317  0  0  0.0448  0  4.010858  0  0  0.04261  0  4.035217  0  0  0.000823  0.046083  0  3.994443  0
C  C46  1  0.20587048  0.98792227  0.64619699  1  0  -0.095283  0  3.7253  0  0  -0.117769  0  3.97946  0  0  -0.121309  0  4.001993  0  0  -0.081534  -0.115252  0  3.964017  0
C  C47  1  0.79412738  0.01207774  0.35380218  1  0  -0.095288  0  3.725241  0  0  -0.117778  0  3.979421  0  0  -0.121314  0  4.001957  0  0  -0.081537  -0.115261  0  3.963972  0
C  C48  1  0.27353257  0.93773354  0.54070075  1  0  -0.099102  0  3.72502  0  0  -0.123378  0  3.979065  0  0  -0.125743  0  4.00059  0  0  -0.082481  -0.121635  0  3.964322  0
C  C49  1  0.72646669  0.06226749  0.45929889  1  0  -0.099052  0  3.724966  0  0  -0.123322  0  3.979009  0  0  -0.125689  0  4.000536  0  0  -0.08246  -0.121576  0  3.964255  0
C  C50  1  0.02779145  0.32979318  0.73357746  1  0  0.151374  0  3.699915  0  0  0.12122  0  3.962697  0  0  0.128568  0  3.978868  0  0  0.058473  0.116544  0  3.951591  0
C  C51  1  0.97220782  0.67020785  0.26642219  1  0  0.1514  0  3.699918  0  0  0.121262  0  3.962692  0  0  0.128609  0  3.978863  0  0  0.058489  0.116586  0  3.951585  0
C  C52  1  0.01445447  0.27274963  0.81516127  1  0  -0.118685  0  3.734023  0  0  -0.131305  0  3.987396  0  0  -0.138444  0  4.009515  0  0  -0.082004  -0.12672  0  3.972525  0
C  C53  1  0.98554452  0.72725038  0.18483711  1  0  -0.118724  0  3.733997  0  0  -0.131335  0  3.987354  0  0  -0.138473  0  4.009471  0  0  -0.082008  -0.12675  0  3.972479  0
C  C54  1  0.07233140  0.15988107  0.78822422  1  0  -0.032233  0  3.677033  0  0  -0.057239  0  3.921744  0  0  -0.054719  0  3.940429  0  0  -0.058923  -0.058501  0  3.908803  0
C  C55  1  0.92766927  0.84012099  0.21177672  1  0  -0.032211  0  3.676967  0  0  -0.05719  0  3.921695  0  0  -0.054672  0  3.940382  0  0  -0.058899  -0.058448  0  3.908754  0
C  C56  1  0.60981147  0.17911643  0.11135917  1  0  -0.095199  0  3.691308  0  0  -0.128314  0  3.935467  0  0  -0.127275  0  3.952754  0  0  -0.076186  -0.128881  0  3.923863  0
C  C57  1  0.39018863  0.82088357  0.88864007  1  0  -0.095204  0  3.69129  0  0  -0.128321  0  3.935441  0  0  -0.127283  0  3.952725  0  0  -0.076202  -0.128892  0  3.923849  0
C  C58  1  0.78722201  0.02966378  0.05336817  1  0  -0.072013  0  3.769892  0  0  -0.100427  0  4.02829  0  0  -0.100585  0  4.047394  0  0  -0.084843  -0.100361  0  4.01572  0
C  C59  1  0.21277922  0.97033623  0.94663191  1  0  -0.072069  0  3.769872  0  0  -0.100484  0  4.028274  0  0  -0.100648  0  4.04738  0  0  -0.084876  -0.100421  0  4.015701  0
C  C60  1  0.48539552  0.06673614  0.03305067  1  0  0.051865  0  3.789787  0  0  0.068098  0  4.020346  0  0  0.068327  0  4.042157  0  0  -0.004579  0.06795  0  4.005557  0
C  C61  1  0.51460542  0.93326284  0.96694815  1  0  0.051893  0  3.789773  0  0  0.068136  0  4.020315  0  0  0.068368  0  4.042127  0  0  -0.004574  0.067986  0  4.005534  0
C  C62  1  0.75706990  0.16059715  0.11927407  1  0  -0.108903  0  3.749232  0  0  -0.081558  0  3.994594  0  0  -0.087073  0  4.014671  0  0  -0.014765  -0.078253  0  3.981644  0
C  C63  1  0.24293020  0.83940285  0.88072681  1  0  -0.108902  0  3.749206  0  0  -0.081548  0  3.994556  0  0  -0.08706  0  4.014624  0  0  -0.014756  -0.078243  0  3.981605  0
C  C64  1  0.66729952  0.91752245  0.98057021  1  0  -0.103557  0  3.714936  0  0  -0.12304  0  3.966895  0  0  -0.124823  0  3.98542  0  0  -0.079447  -0.121837  0  3.954445  0
C  C65  1  0.33270170  0.08247756  0.01942987  1  0  -0.103523  0  3.714901  0  0  -0.123006  0  3.96687  0  0  -0.124787  0  3.985393  0  0  -0.079456  -0.121799  0  3.954411  0
C  C66  1  0.55391427  0.47188615  0.78874139  1  0  -0.120017  0  3.754964  0  0  -0.09484  0  4.004821  0  0  -0.100675  0  4.02487  0  0  -0.019377  -0.091076  0  3.99143  0
C  C67  1  0.44608301  0.52811181  0.21125936  1  0  -0.120023  0  3.754915  0  0  -0.094935  0  4.004883  0  0  -0.10077  0  4.02493  0  0  -0.019366  -0.091159  0  3.991477  0
C  C68  1  0.42926806  0.49797356  0.85180379  1  0  -0.112395  0  3.712901  0  0  -0.145861  0  3.962198  0  0  -0.145339  0  3.980738  0  0  -0.083072  -0.14607  0  3.949575  0
C  C69  1  0.57073484  0.50202439  0.14819629  1  0  -0.112416  0  3.712891  0  0  -0.145865  0  3.96223  0  0  -0.14534  0  3.980767  0  0  -0.08307  -0.146079  0  3.949601  0
C  C70  1  0.68597312  0.45356509  0.84119771  1  0  -0.05532  0  3.760958  0  0  -0.083072  0  4.015533  0  0  -0.082799  0  4.034749  0  0  -0.086044  -0.083187  0  4.002654  0
C  C71  1  0.31402811  0.54643492  0.15880238  1  0  -0.055266  0  3.760924  0  0  -0.082961  0  4.015538  0  0  -0.082688  0  4.034752  0  0  -0.086024  -0.083078  0  4.002658  0
C  C72  1  0.43331285  0.50912260  0.97293573  1  0  0.06252  0  3.781551  0  0  0.081356  0  4.002845  0  0  0.080736  0  4.027061  0  0  -0.004979  0.081817  0  3.986234  0
C  C73  1  0.56668892  0.49087536  0.02706433  1  0  0.062609  0  3.7817  0  0  0.08146  0  4.002962  0  0  0.080843  0  4.027174  0  0  -0.004831  0.081924  0  3.986343  0
C  C74  1  0.69158024  0.46238968  0.95808115  1  0  -0.103049  0  3.722018  0  0  -0.121448  0  3.968294  0  0  -0.124113  0  3.989026  0  0  -0.084081  -0.119593  0  3.954178  0
C  C75  1  0.30842069  0.53760930  0.04192096  1  0  -0.102979  0  3.722005  0  0  -0.121425  0  3.968245  0  0  -0.124093  0  3.988984  0  0  -0.084065  -0.119575  0  3.954136  0
S  S76  1  0.55068012  0.45690201  0.63662970  1  0  1.375068  0  5.582254  0  0  1.278651  0  6.099045  0  0  1.327667  0  6.073069  0  0  0.543581  1.244642  0  6.115982  0
S  S77  1  0.44932054  0.54309595  0.36336950  1  0  1.375094  0  5.582227  0  0  1.278697  0  6.099036  0  0  1.32771  0  6.073064  0  0  0.543586  1.244681  0  6.115971  0
S  S78  1  0.91388981  0.30541471  0.20800275  1  0  1.350308  0  5.606172  0  0  1.255058  0  6.12451  0  0  1.3044  0  6.098615  0  0  0.534176  1.22089  0  6.141371  0
S  S79  1  0.08611029  0.69458530  0.79199731  1  0  1.350341  0  5.606178  0  0  1.255091  0  6.124513  0  0  1.304432  0  6.098618  0  0  0.534184  1.220919  0  6.141389  0
N  N80  1  0.09254366  0.27974693  0.62984680  1  0  -0.432799  0  3.24776  0  0  -0.38984  0  3.519245  0  0  -0.405559  0  3.538113  0  0  -0.370147  -0.378906  0  3.506298  0
N  N81  1  0.90745645  0.72025308  0.37015243  1  0  -0.432837  0  3.247752  0  0  -0.389881  0  3.519244  0  0  -0.405602  0  3.538112  0  0  -0.370184  -0.378949  0  3.506299  0
N  N82  1  0.21880231  0.17339803  0.41403956  1  0  -0.428864  0  3.226655  0  0  -0.38843  0  3.501961  0  0  -0.404187  0  3.519266  0  0  -0.368148  -0.377677  0  3.490051  0
N  N83  1  0.78119555  0.82660198  0.58595961  1  0  -0.428861  0  3.226679  0  0  -0.388421  0  3.501979  0  0  -0.404181  0  3.519286  0  0  -0.368161  -0.377668  0  3.490072  0
O  O84  1  0.00588401  0.26497846  0.28347029  1  0  -0.749058  0  2.033441  0  0  -0.703166  0  2.305281  0  0  -0.725523  0  2.289959  0  0  -0.389205  -0.686919  0  2.315236  0
O  O85  1  0.99411609  0.73502155  0.71652894  1  0  -0.74905  0  2.033376  0  0  -0.703178  0  2.305245  0  0  -0.725536  0  2.289925  0  0  -0.389202  -0.68693  0  2.315208  0
O  O86  1  0.83961632  0.41527753  0.28440557  1  0  -0.744534  0  2.123138  0  0  -0.694016  0  2.396177  0  0  -0.716303  0  2.381109  0  0  -0.373568  -0.678029  0  2.406153  0
O  O87  1  0.16038294  0.58472350  0.71559407  1  0  -0.744565  0  2.123192  0  0  -0.694063  0  2.396281  0  0  -0.716349  0  2.381213  0  0  -0.373582  -0.678065  0  2.406239  0
O  O88  1  0.99763240  0.33092027  0.11696197  1  0  -0.640636  0  1.878383  0  0  -0.596065  0  2.114794  0  0  -0.617802  0  2.102698  0  0  -0.335514  -0.580574  0  2.122631  0
O  O89  1  0.00236771  0.66907974  0.88303726  1  0  -0.640627  0  1.878405  0  0  -0.596058  0  2.114823  0  0  -0.617795  0  2.102725  0  0  -0.335505  -0.580562  0  2.122663  0
O  O90  1  0.39487386  0.46742910  0.60456463  1  0  -0.761301  0  2.114128  0  0  -0.714419  0  2.397904  0  0  -0.737043  0  2.381397  0  0  -0.404336  -0.698025  0  2.40889  0
O  O91  1  0.60512736  0.53257091  0.39543628  1  0  -0.761284  0  2.114088  0  0  -0.714399  0  2.397866  0  0  -0.737026  0  2.381364  0  0  -0.404297  -0.698002  0  2.40885  0
O  O92  1  0.67185496  0.57380219  0.64810287  1  0  -0.735811  0  2.021057  0  0  -0.688799  0  2.288159  0  0  -0.71166  0  2.273359  0  0  -0.37327  -0.672235  0  2.297976  0
O  O93  1  0.32814597  0.42619679  0.35189677  1  0  -0.735856  0  2.021094  0  0  -0.688828  0  2.288177  0  0  -0.71169  0  2.273384  0  0  -0.373301  -0.672265  0  2.297992  0
O  O94  1  0.58177193  0.32424693  0.55610489  1  0  -0.655878  0  1.93642  0  0  -0.604082  0  2.174354  0  0  -0.624563  0  2.161208  0  0  -0.321493  -0.589517  0  2.183013  0
O  O95  1  0.41822789  0.67575205  0.44389472  1  0  -0.655883  0  1.936321  0  0  -0.604094  0  2.174263  0  0  -0.624578  0  2.161127  0  0  -0.321519  -0.589532  0  2.182923  0
O  O96  1  0.89625976  0.41268891  0.52321221  1  0  -1.175961  0  1.798211  0  0  -1.129758  0  2.030459  0  0  -1.158271  0  2.003922  0  0  -0.821494  -1.108782  0  2.048332  0
O  O97  1  0.10374063  0.58731212  0.47678829  1  0  -1.175955  0  1.798229  0  0  -1.129751  0  2.030478  0  0  -1.158263  0  2.003938  0  0  -0.821489  -1.108777  0  2.048354  0
