# generated using pymatgen
data_MnH3C2N9O
_symmetry_space_group_name_H-M   'P 1'
_cell_length_a   6.41183725
_cell_length_b   9.70884534
_cell_length_c   10.46269216
_cell_angle_alpha   89.99984059
_cell_angle_beta   95.71355674
_cell_angle_gamma   89.99913682
_symmetry_Int_Tables_number   1
_chemical_formula_structural   MnH3C2N9O
_chemical_formula_sum   'Mn4 H12 C8 N36 O4'
_cell_volume   648.08293554
_cell_formula_units_Z   4
loop_
 _symmetry_equiv_pos_site_id
 _symmetry_equiv_pos_as_xyz
  1  'x, y, z'
loop_
 _atom_site_type_symbol
 _atom_site_label
 _atom_site_symmetry_multiplicity
 _atom_site_fract_x
 _atom_site_fract_y
 _atom_site_fract_z
 _atom_site_occupancy
 _atom_site_hle17_ddec_charge
 _atom_site_hle17_ddec_spin_density
 _atom_site_hle17_ddec_sum_bond_order
 _atom_site_hle17_magmom
 _atom_site_hse06_10hf_ddec_charge
 _atom_site_hse06_10hf_ddec_spin_density
 _atom_site_hse06_10hf_ddec_sum_bond_order
 _atom_site_hse06_10hf_magmom
 _atom_site_hse06_ddec_charge
 _atom_site_hse06_ddec_spin_density
 _atom_site_hse06_ddec_sum_bond_order
 _atom_site_hse06_magmom
 _atom_site_pbe_cm5_charge
 _atom_site_pbe_ddec_charge
 _atom_site_pbe_ddec_spin_density
 _atom_site_pbe_ddec_sum_bond_order
 _atom_site_pbe_magmom
Mn  Mn0  1  0.53170032  0.16402967  0.37025023  1  0.978498  4.808917  1.873465  4.672  0.772226  4.738694  2.389929  4.524  0.830124  4.778471  2.328092  4.585  0.62555  0.726922  4.699494  2.435412  4.466
Mn  Mn1  1  0.96830133  0.66403066  0.12974892  1  0.978503  4.808925  1.873456  4.672  0.772203  4.738705  2.389936  4.524  0.830103  4.778482  2.328099  4.585  0.625548  0.726907  4.699511  2.435424  4.466
Mn  Mn2  1  0.46829903  0.83597047  0.62975005  1  0.97849  4.808918  1.873483  4.672  0.772213  4.738692  2.389958  4.524  0.830117  4.778471  2.328116  4.585  0.625537  0.726909  4.699495  2.435439  4.466
Mn  Mn3  1  0.03169802  0.33596949  0.87025136  1  0.978493  4.808926  1.873432  4.672  0.772211  4.738706  2.389892  4.524  0.830104  4.778479  2.32806  4.585  0.625536  0.726904  4.699509  2.435379  4.466
H  H4  1  0.24092156  0.47948329  0.62860695  1  0.296312  0.000197  0.948991  0.0  0.259647  0.000588  1.044177  0.0  0.268434  0.000438  1.037032  0.0  0.312578  0.25329  0.000759  1.049435  0.0
H  H5  1  0.25907999  0.97948050  0.87139529  1  0.296393  0.000198  0.949045  0.0  0.259741  0.000589  1.044215  0.0  0.268522  0.000438  1.037067  0.0  0.312613  0.253385  0.000759  1.049472  0.0
H  H6  1  0.75907778  0.52051685  0.37139237  1  0.29629  0.000198  0.949041  0.0  0.259635  0.000589  1.044216  0.0  0.268419  0.000438  1.037071  0.0  0.312571  0.253278  0.000759  1.049478  0.0
H  H7  1  0.74091777  0.02051964  0.12860299  1  0.296408  0.000198  0.949035  0.0  0.259754  0.000588  1.044209  0.0  0.268536  0.000438  1.03706  0.0  0.312615  0.253398  0.000759  1.049467  0.0
H  H8  1  0.82038074  0.13237636  0.57842514  1  0.381126  -7e-05  0.930084  0.001  0.339543  0.000724  1.02019  0.002  0.349839  0.000436  1.005633  0.002  0.289031  0.33228  0.001016  1.030391  0.002
H  H9  1  0.67962289  0.63237731  0.92157413  1  0.381137  -7e-05  0.930077  0.001  0.339542  0.000724  1.020193  0.002  0.349839  0.000437  1.005634  0.002  0.289032  0.33228  0.001016  1.030394  0.002
H  H10  1  0.17962171  0.86762481  0.42157245  1  0.381095  -7e-05  0.930144  0.001  0.33951  0.000724  1.020244  0.002  0.349807  0.000436  1.005686  0.002  0.289005  0.332247  0.001016  1.030446  0.002
H  H11  1  0.32037646  0.36762387  0.07842615  1  0.381133  -7e-05  0.930093  0.001  0.33954  0.000724  1.020198  0.002  0.349837  0.000437  1.005642  0.002  0.289035  0.332278  0.001016  1.0304  0.002
H  H12  1  0.82422800  0.28715176  0.53610019  1  0.38056  0.000357  0.939819  0.001  0.340732  0.001357  1.023118  0.002  0.351567  0.000983  1.007846  0.002  0.282181  0.333118  0.001759  1.033829  0.002
H  H13  1  0.67577203  0.78715365  0.96389847  1  0.380549  0.000356  0.939834  0.001  0.340716  0.001358  1.02314  0.002  0.351552  0.000983  1.007869  0.002  0.282165  0.333101  0.001759  1.033852  0.002
H  H14  1  0.17577134  0.71285044  0.46390009  1  0.380605  0.000357  0.939723  0.001  0.340781  0.001357  1.023041  0.002  0.351616  0.000983  1.007769  0.002  0.282198  0.333167  0.001759  1.033753  0.002
H  H15  1  0.32422731  0.21284752  0.03610086  1  0.380559  0.000357  0.939828  0.001  0.340718  0.001358  1.023141  0.002  0.351553  0.000983  1.00787  0.002  0.28218  0.333104  0.001759  1.033852  0.002
C  C16  1  0.28950927  0.27150366  0.60973023  1  0.513589  0.005018  3.80318  0.006  0.464082  0.008833  4.083416  0.01  0.485302  0.007149  4.094626  0.008  0.346472  0.449697  0.010495  4.075655  0.011
C  C17  1  0.21049549  0.77149821  0.89026606  1  0.513565  0.005015  3.803386  0.006  0.464058  0.008833  4.083592  0.01  0.485273  0.007148  4.094801  0.008  0.346512  0.449675  0.010494  4.075832  0.011
C  C18  1  0.71049164  0.72849648  0.39027013  1  0.51353  0.005015  3.803153  0.006  0.463999  0.008834  4.083427  0.01  0.485217  0.00715  4.094638  0.008  0.346428  0.449614  0.010495  4.075674  0.011
C  C19  1  0.78950542  0.22850090  0.10973336  1  0.513559  0.005013  3.803396  0.006  0.464054  0.008835  4.0836  0.01  0.485271  0.007143  4.094811  0.008  0.346501  0.449671  0.010494  4.075841  0.011
C  C20  1  0.27363773  0.43786981  0.43770244  1  0.50222  0.002575  3.81998  0.003  0.450962  0.005204  4.107632  0.006  0.470945  0.003904  4.118887  0.004  0.334848  0.437551  0.006772  4.099921  0.007
C  C21  1  0.22636356  0.93786828  0.06230093  1  0.502022  0.002569  3.819961  0.003  0.450749  0.005203  4.107654  0.006  0.470726  0.003901  4.118914  0.004  0.334743  0.437339  0.00677  4.099938  0.007
C  C22  1  0.72636477  0.56212827  0.56229993  1  0.502123  0.002574  3.82008  0.003  0.450907  0.005205  4.107666  0.006  0.470893  0.003902  4.118923  0.004  0.334829  0.437493  0.006772  4.099956  0.007
C  C23  1  0.77363421  0.06213186  0.93769831  1  0.50208  0.002569  3.81977  0.003  0.450806  0.005204  4.107462  0.006  0.470782  0.0039  4.118722  0.004  0.334761  0.437394  0.00677  4.099746  0.007
N  N24  1  0.36424931  0.16151501  0.55019143  1  -0.363942  0.028422  3.039018  0.019  -0.310936  0.035453  3.330148  0.021  -0.330204  0.030623  3.340499  0.017  -0.223438  -0.296957  0.039675  3.322613  0.025
N  N25  1  0.13575803  0.66151528  0.94980721  1  -0.363863  0.028418  3.039117  0.019  -0.310821  0.035448  3.330163  0.021  -0.330089  0.030625  3.340517  0.017  -0.223427  -0.296839  0.039671  3.322632  0.025
N  N26  1  0.63575317  0.83848513  0.44980903  1  -0.363917  0.028418  3.039056  0.019  -0.310907  0.035452  3.330177  0.021  -0.330173  0.030624  3.340526  0.017  -0.223421  -0.296921  0.039674  3.322636  0.025
N  N27  1  0.86424131  0.33848486  0.05019211  1  -0.363871  0.028422  3.039144  0.019  -0.310829  0.03545  3.330185  0.021  -0.330097  0.030623  3.34054  0.017  -0.223433  -0.296842  0.03967  3.322649  0.025
N  N28  1  0.35345843  0.05718533  0.63514052  1  -0.07979  0.026771  3.150711  0.018  -0.037083  0.034618  3.448242  0.021  -0.044043  0.03007  3.461441  0.018  -0.087934  -0.031212  0.038426  3.438327  0.024
N  N29  1  0.14654191  0.55718884  0.86485609  1  -0.079857  0.026767  3.150773  0.018  -0.037117  0.034618  3.448237  0.021  -0.044074  0.030065  3.461436  0.018  -0.087933  -0.031245  0.038424  3.438325  0.024
N  N30  1  0.64654091  0.94281378  0.36485976  1  -0.079776  0.026774  3.150781  0.018  -0.037041  0.034615  3.448284  0.021  -0.044001  0.03007  3.461482  0.018  -0.087917  -0.031166  0.038424  3.438363  0.024
N  N31  1  0.85345743  0.44281130  0.13514323  1  -0.079861  0.02677  3.150774  0.018  -0.037116  0.034618  3.448235  0.021  -0.044075  0.030065  3.461435  0.018  -0.087926  -0.031245  0.038424  3.438328  0.024
N  N32  1  0.27804218  0.10168415  0.73889584  1  -0.052688  0.004875  3.037194  0.006  -0.038815  0.010988  3.319026  0.012  -0.036504  0.008831  3.331978  0.01  -0.070505  -0.040184  0.013659  3.309916  0.014
N  N33  1  0.22195557  0.60168618  0.76110242  1  -0.052663  0.004876  3.037116  0.006  -0.038815  0.010983  3.31895  0.012  -0.036506  0.008833  3.331905  0.01  -0.070488  -0.040181  0.013656  3.309841  0.014
N  N34  1  0.72195717  0.89831599  0.26110540  1  -0.052709  0.00487  3.037195  0.006  -0.038859  0.010989  3.319042  0.012  -0.036549  0.008831  3.331994  0.01  -0.070501  -0.040227  0.013659  3.309934  0.014
N  N35  1  0.77804221  0.39831396  0.23889777  1  -0.052664  0.004872  3.037079  0.006  -0.038822  0.010984  3.318911  0.012  -0.03651  0.008833  3.331862  0.01  -0.070498  -0.040187  0.013656  3.309808  0.014
N  N36  1  0.23190074  0.23659231  0.72602758  1  -0.356873  0.025798  3.030496  0.015  -0.301542  0.032693  3.326378  0.017  -0.321212  0.028323  3.335163  0.014  -0.22107  -0.287667  0.037237  3.320296  0.021
N  N37  1  0.26810642  0.73659178  0.77397181  1  -0.356841  0.025802  3.03056  0.015  -0.301501  0.032696  3.326431  0.017  -0.321172  0.028319  3.335216  0.014  -0.221103  -0.287621  0.037236  3.320346  0.021
N  N38  1  0.76810017  0.76340680  0.27397279  1  -0.356834  0.025805  3.030486  0.015  -0.301494  0.032694  3.326376  0.017  -0.321166  0.028321  3.335164  0.014  -0.221071  -0.28762  0.037237  3.320302  0.021
N  N39  1  0.73189291  0.26340836  0.22602751  1  -0.356814  0.025804  3.030522  0.015  -0.301479  0.032692  3.3264  0.017  -0.321151  0.028325  3.335186  0.014  -0.221072  -0.2876  0.037236  3.320319  0.021
N  N40  1  0.27392328  0.40275731  0.56395541  1  -0.491787  0.001454  3.390518  0.002  -0.435492  0.003094  3.647123  0.003  -0.456981  0.002148  3.652264  0.002  -0.389859  -0.420512  0.004326  3.643445  0.004
N  N41  1  0.22608780  0.90275775  0.93603803  1  -0.491817  0.001452  3.390218  0.002  -0.435508  0.003093  3.646762  0.003  -0.456976  0.002148  3.651877  0.002  -0.389789  -0.420532  0.004325  3.643091  0.004
N  N42  1  0.72607920  0.59724077  0.43604505  1  -0.491685  0.001452  3.390387  0.002  -0.435398  0.003092  3.646951  0.003  -0.45688  0.002147  3.652093  0.002  -0.389785  -0.420414  0.004325  3.643277  0.004
N  N43  1  0.77391154  0.09724239  0.06396129  1  -0.491872  0.001454  3.390058  0.002  -0.435551  0.003095  3.646586  0.003  -0.457021  0.002146  3.651706  0.002  -0.389813  -0.420576  0.004325  3.642919  0.004
N  N44  1  0.34730051  0.36100565  0.34459551  1  -0.381836  0.030949  3.073992  0.02  -0.329611  0.03746  3.379812  0.022  -0.3497  0.032818  3.390027  0.018  -0.230192  -0.314879  0.042051  3.372862  0.026
N  N45  1  0.15270408  0.86100767  0.15540251  1  -0.381821  0.030952  3.074086  0.02  -0.329635  0.03746  3.379991  0.022  -0.349726  0.032822  3.390213  0.018  -0.230226  -0.314907  0.042052  3.373046  0.026
N  N46  1  0.65270042  0.63899346  0.65540581  1  -0.381853  0.030952  3.074079  0.02  -0.329646  0.037462  3.379904  0.022  -0.349745  0.032819  3.390127  0.018  -0.230191  -0.314916  0.042052  3.372957  0.026
N  N47  1  0.84729525  0.13899144  0.84459585  1  -0.381753  0.030949  3.074015  0.02  -0.329599  0.037459  3.379965  0.022  -0.349684  0.03282  3.390184  0.018  -0.230211  -0.31487  0.042052  3.373015  0.026
N  N48  1  0.31199688  0.43776280  0.23662767  1  -0.053599  0.004833  3.036332  0.007  -0.036054  0.009202  3.322539  0.012  -0.034392  0.00725  3.334849  0.01  -0.069804  -0.037516  0.011635  3.314287  0.014
N  N49  1  0.18799966  0.93776105  0.26337065  1  -0.053516  0.004833  3.036227  0.007  -0.035964  0.009199  3.322427  0.012  -0.034301  0.007246  3.334736  0.01  -0.069767  -0.037428  0.011632  3.314173  0.014
N  N50  1  0.68800091  0.56223837  0.76337348  1  -0.053552  0.004838  3.036313  0.007  -0.036006  0.0092  3.322508  0.012  -0.034338  0.007253  3.334818  0.01  -0.069826  -0.037472  0.011635  3.314254  0.014
N  N51  1  0.81199967  0.06224012  0.73662772  1  -0.053558  0.004842  3.036266  0.007  -0.035997  0.009196  3.322461  0.012  -0.034334  0.007253  3.334769  0.01  -0.069786  -0.037462  0.011632  3.314203  0.014
N  N52  1  0.22531627  0.55464115  0.26480388  1  -0.10563  0.023048  3.15445  0.013  -0.075632  0.032337  3.469982  0.018  -0.081774  0.027384  3.48102  0.015  -0.098014  -0.070441  0.037307  3.462645  0.022
N  N53  1  0.27467822  0.05463813  0.23519630  1  -0.105654  0.023046  3.154286  0.013  -0.07567  0.032338  3.469824  0.018  -0.081811  0.027381  3.480859  0.015  -0.097989  -0.070481  0.037306  3.462479  0.022
N  N54  1  0.77468152  0.44535899  0.73519727  1  -0.105665  0.023043  3.154305  0.013  -0.075679  0.032339  3.46985  0.018  -0.081821  0.027379  3.480885  0.015  -0.098027  -0.070488  0.037307  3.462505  0.022
N  N55  1  0.72532268  0.94536201  0.76480216  1  -0.105667  0.023034  3.15427  0.013  -0.075692  0.03234  3.469805  0.018  -0.081836  0.027382  3.480843  0.015  -0.098016  -0.070506  0.037307  3.462463  0.022
N  N56  1  0.19828126  0.55868380  0.39099133  1  -0.362012  0.002244  3.00637  0.003  -0.319745  0.005654  3.282133  0.006  -0.333712  0.003905  3.293754  0.004  -0.218669  -0.310809  0.007141  3.274914  0.007
N  N57  1  0.30171467  0.05867986  0.10900605  1  -0.361948  0.002244  3.006516  0.003  -0.319662  0.005654  3.282264  0.006  -0.333629  0.003904  3.29389  0.004  -0.218715  -0.310733  0.00714  3.275061  0.007
N  N58  1  0.80171964  0.44131531  0.60900713  1  -0.361967  0.002241  3.006334  0.003  -0.319706  0.005653  3.282063  0.006  -0.333671  0.003906  3.293682  0.004  -0.218666  -0.310779  0.007141  3.274867  0.007
N  N59  1  0.69828310  0.94132028  0.89099318  1  -0.361976  0.002247  3.006484  0.003  -0.319673  0.005655  3.282202  0.006  -0.333639  0.003902  3.293829  0.004  -0.218699  -0.310747  0.007141  3.275003  0.007
O  O60  1  0.81539983  0.19105495  0.49969845  1  -0.80417  0.034613  1.988621  0.027  -0.742309  0.043099  2.226086  0.033  -0.76772  0.037268  2.194393  0.027  -0.581184  -0.72271  0.048248  2.247388  0.037
O  O61  1  0.68460120  0.69105711  0.00030154  1  -0.80419  0.034614  1.988617  0.027  -0.742315  0.043097  2.226126  0.033  -0.76773  0.037267  2.194433  0.027  -0.581162  -0.722708  0.048246  2.247422  0.037
O  O62  1  0.18460107  0.80894725  0.50030000  1  -0.804166  0.034613  1.988584  0.027  -0.7423  0.043097  2.226046  0.033  -0.76771  0.037266  2.19435  0.027  -0.58116  -0.7227  0.048245  2.247349  0.037
O  O63  1  0.31539815  0.30894303  0.99969874  1  -0.804182  0.034612  1.988656  0.027  -0.742309  0.043096  2.226138  0.033  -0.767722  0.037266  2.194444  0.027  -0.581178  -0.722704  0.048245  2.247435  0.037
