# generated using pymatgen
data_Al2H15C30(ClO4)3
_symmetry_space_group_name_H-M   'P 1'
_cell_length_a   4.00312677
_cell_length_b   17.23060749
_cell_length_c   17.23059610
_cell_angle_alpha   120.00029492
_cell_angle_beta   90.00004012
_cell_angle_gamma   89.99997120
_symmetry_Int_Tables_number   1
_chemical_formula_structural   Al2H15C30(ClO4)3
_chemical_formula_sum   'Al2 H15 C30 Cl3 O12'
_cell_volume   1029.27061977
_cell_formula_units_Z   1
loop_
 _symmetry_equiv_pos_site_id
 _symmetry_equiv_pos_as_xyz
  1  'x, y, z'
loop_
 _atom_site_type_symbol
 _atom_site_label
 _atom_site_symmetry_multiplicity
 _atom_site_fract_x
 _atom_site_fract_y
 _atom_site_fract_z
 _atom_site_occupancy
 _atom_site_pbe_bader_charge
 _atom_site_pbe_bader_spin_density
 _atom_site_pbe_cm5_charge
 _atom_site_pbe_ddec_charge
 _atom_site_pbe_ddec_spin_density
 _atom_site_pbe_ddec_sum_bond_order
 _atom_site_pbe_magmom
Al  Al0  1  0.99060082  0.50000030  0.50000062  1  2.506073  0  0.426354  1.601861  0  2.569962  0
Al  Al1  1  0.99854794  0.16666869  0.83333384  1  2.503764  0  0.428887  1.595586  0  2.574904  0
H  H2  1  0.53497504  0.41819496  0.83610259  1  0.051175  0  0.109391  0.127534  0  0.98507  0
H  H3  1  0.26140128  0.11374596  0.52630099  1  0.05394  0  0.094558  0.100371  0  1.007903  0
H  H4  1  0.70634848  0.11218771  0.52816454  1  0.045073  0  0.095136  0.100721  0  1.00418  0
H  H5  1  0.72595794  0.19976497  0.44731244  1  0.046228  0  0.09422  0.104416  0  1.006087  0
H  H6  1  0.28166773  0.20118695  0.44470881  1  0.058032  0  0.094364  0.104334  0  1.004094  0
H  H7  1  0.53496915  0.91790855  0.58180413  1  0.079055  0  0.109433  0.127596  0  0.985163  0
H  H8  1  0.26139594  0.91255793  0.88625319  1  0.081255  0  0.094536  0.10034  0  1.007894  0
H  H9  1  0.70634063  0.91598044  0.88781140  1  0.053716  0  0.09513  0.1007  0  1.004129  0
H  H10  1  0.72596285  0.74755016  0.80023329  1  0.045505  0  0.094228  0.104398  0  1.00614  0
H  H11  1  0.28167015  0.74352268  0.79880995  1  0.06531  0  0.094357  0.10433  0  1.004116  0
H  H12  1  0.53496426  0.16389612  0.08209172  1  0.080201  0  0.109424  0.127621  0  0.985059  0
H  H13  1  0.26139279  0.47369508  0.08744487  1  0.05156  0  0.094558  0.100368  0  1.007861  0
H  H14  1  0.70634247  0.47183247  0.08402154  1  0.051962  0  0.095138  0.100712  0  1.004162  0
H  H15  1  0.72596228  0.55268516  0.25245208  1  0.028792  0  0.094215  0.104407  0  1.006098  0
H  H16  1  0.28166459  0.55528910  0.25647937  1  0.07452  0  0.094363  0.104327  0  1.004086  0
C  C17  1  0.49338688  0.42844741  0.36293299  1  1.568242  0  0.28026  0.683096  0  4.057568  0
C  C18  1  0.49337967  0.43448337  0.57155226  1  1.569784  0  0.280261  0.683069  0  4.057315  0
C  C19  1  0.49338194  0.63706843  0.56551476  1  1.572758  0  0.280198  0.682871  0  4.057599  0
C  C20  1  0.49913566  0.23742501  0.76681174  1  1.595579  0  0.282769  0.674886  0  4.050771  0
C  C21  1  0.49914087  0.02938826  0.76257652  1  1.591957  0  0.282791  0.675086  0  4.050472  0
C  C22  1  0.49914844  0.23318950  0.97061183  1  1.558406  0  0.282805  0.675035  0  4.050659  0
C  C23  1  0.50094412  0.28733118  0.71713649  1  -0.072334  0  -0.002941  -0.052838  0  3.973466  0
C  C24  1  0.50125614  0.38628313  0.62308154  1  0.003334  0  -0.007956  -0.132297  0  3.93715  0
C  C25  1  0.48811406  0.24469641  0.62405859  1  0.107916  0  -0.008243  0.045645  0  3.891319  0
C  C26  1  0.50892773  0.42938202  0.71751418  1  0.064806  0  0.022178  0.136171  0  4.021097  0
C  C27  1  0.49928521  0.29302566  0.57908031  1  0.015672  0  -0.002856  0.070285  0  3.888512  0
C  C28  1  0.51837795  0.38138629  0.76323611  1  0.060941  0  -0.088135  -0.173959  0  3.961762  0
C  C29  1  0.48684003  0.15450137  0.53814641  1  -0.040255  0  -0.148355  -0.190327  0  3.864172  0
C  C30  1  0.49918275  0.20938854  0.48701877  1  -0.018729  0  -0.148648  -0.192069  0  3.847102  0
C  C31  1  0.50094342  0.92980678  0.71266773  1  -0.071128  0  -0.00295  -0.053033  0  3.973561  0
C  C32  1  0.50125575  0.73680099  0.61371729  1  0.131677  0  -0.00797  -0.132174  0  3.937099  0
C  C33  1  0.48811856  0.87936395  0.75530122  1  -0.082596  0  -0.008255  0.045742  0  3.891249  0
C  C34  1  0.50892963  0.78813119  0.57061546  1  0.046927  0  0.022145  0.136024  0  4.021122  0
C  C35  1  0.49928237  0.78605726  0.70697325  1  -0.009518  0  -0.002891  0.070181  0  3.888579  0
C  C36  1  0.51838221  0.88185134  0.61861237  1  0.128285  0  -0.088176  -0.17395  0  3.961768  0
C  C37  1  0.48683719  0.88364805  0.84549717  1  -0.069599  0  -0.14836  -0.190304  0  3.864097  0
C  C38  1  0.49918257  0.77763260  0.79061101  1  -0.022176  0  -0.148609  -0.192007  0  3.847126  0
C  C39  1  0.50094821  0.28286133  0.07019454  1  0.042501  0  -0.003007  -0.053032  0  3.97362  0
C  C40  1  0.50125564  0.37691850  0.26320124  1  0.1055  0  -0.008001  -0.132398  0  3.93709  0
C  C41  1  0.48812071  0.37593869  0.12063803  1  0.027656  0  -0.008274  0.045721  0  3.891391  0
C  C42  1  0.50892717  0.28248666  0.21186970  1  0.083681  0  0.022196  0.136322  0  4.020969  0
C  C43  1  0.49928207  0.42091863  0.21394410  1  -0.014536  0  -0.002828  0.070261  0  3.888648  0
C  C44  1  0.51837970  0.23676340  0.11815202  1  -0.060318  0  -0.088178  -0.174116  0  3.961891  0
C  C45  1  0.48683661  0.46185087  0.11635417  1  -0.043843  0  -0.148346  -0.190322  0  3.864078  0
C  C46  1  0.49918455  0.51297965  0.22236981  1  -0.004091  0  -0.14862  -0.191996  0  3.84702  0
Cl  Cl47  1  0.52340637  0.54535833  0.78054110  1  -0.200629  0  -0.015115  -0.091794  0  1.518582  0
Cl  Cl48  1  0.52343069  0.73518198  0.45464116  1  -0.197618  0  -0.015061  -0.091702  0  1.518632  0
Cl  Cl49  1  0.52342098  0.21946039  0.26481859  1  -0.206885  0  -0.015082  -0.09178  0  1.518516  0
O  O50  1  0.72491852  0.59859157  0.58460398  1  -1.255934  0  -0.232839  -0.589189  0  2.343971  0
O  O51  1  0.72492088  0.48601483  0.40141140  1  -1.253392  0  -0.232887  -0.589302  0  2.343928  0
O  O52  1  0.72492361  0.41539645  0.51398567  1  -1.248194  0  -0.232863  -0.58927  0  2.343811  0
O  O53  1  0.25380418  0.59789493  0.51139566  1  -1.246537  0  -0.231521  -0.596758  0  2.388948  0
O  O54  1  0.25380191  0.48860531  0.58649957  1  -1.24623  0  -0.231534  -0.596803  0  2.388814  0
O  O55  1  0.25381172  0.41350289  0.40210662  1  -1.243551  0  -0.231496  -0.596816  0  2.389069  0
O  O56  1  0.73230369  0.17653788  0.93052818  1  -1.260104  0  -0.237011  -0.598768  0  2.343195  0
O  O57  1  0.73230095  0.25398889  0.82346100  1  -1.257519  0  -0.236979  -0.598734  0  2.343293  0
O  O58  1  0.73230104  0.06947209  0.74600907  1  -1.25828  0  -0.236996  -0.598788  0  2.34305  0
O  O59  1  0.26339265  0.25142128  0.93243284  1  -1.256496  0  -0.234299  -0.595158  0  2.33809  0
O  O60  1  0.26338769  0.06756974  0.81898994  1  -1.253001  0  -0.234299  -0.59519  0  2.33804  0
O  O61  1  0.26338498  0.18101143  0.74857758  1  -1.25829  0  -0.234312  -0.595149  0  2.338141  0
