# generated using pymatgen
data_TmCoH16C16(N5O3)2
_symmetry_space_group_name_H-M   'P 1'
_cell_length_a   10.02153709
_cell_length_b   10.52202296
_cell_length_c   12.41845420
_cell_angle_alpha   73.83834212
_cell_angle_beta   76.20520498
_cell_angle_gamma   71.29592131
_symmetry_Int_Tables_number   1
_chemical_formula_structural   TmCoH16C16(N5O3)2
_chemical_formula_sum   'Tm2 Co2 H32 C32 N20 O12'
_cell_volume   1175.18525247
_cell_formula_units_Z   2
loop_
 _symmetry_equiv_pos_site_id
 _symmetry_equiv_pos_as_xyz
  1  'x, y, z'
loop_
 _atom_site_type_symbol
 _atom_site_label
 _atom_site_symmetry_multiplicity
 _atom_site_fract_x
 _atom_site_fract_y
 _atom_site_fract_z
 _atom_site_occupancy
 _atom_site_hle17_bader_spin_density
 _atom_site_hle17_ddec_charge
 _atom_site_hle17_ddec_spin_density
 _atom_site_hle17_ddec_sum_bond_order
 _atom_site_hle17_magmom
 _atom_site_hse06_10hf_bader_spin_density
 _atom_site_hse06_10hf_ddec_charge
 _atom_site_hse06_10hf_ddec_spin_density
 _atom_site_hse06_10hf_ddec_sum_bond_order
 _atom_site_hse06_10hf_magmom
 _atom_site_hse06_bader_spin_density
 _atom_site_hse06_ddec_charge
 _atom_site_hse06_ddec_spin_density
 _atom_site_hse06_ddec_sum_bond_order
 _atom_site_hse06_magmom
 _atom_site_pbe_bader_spin_density
 _atom_site_pbe_cm5_charge
 _atom_site_pbe_ddec_charge
 _atom_site_pbe_ddec_spin_density
 _atom_site_pbe_ddec_sum_bond_order
 _atom_site_pbe_magmom
Tm  Tm0  1  0.40137645  0.31240675  0.29150291  1  0  2.273409  0  1.632827  0  0  2.127226  0  2.120481  0  0  2.258487  0  1.915134  0  0  1.571935  2.094725  0  2.148531  0
Tm  Tm1  1  0.59862290  0.68759419  0.70849459  1  0  2.27344  0  1.632814  0  0  2.12731  0  2.120379  0  0  2.258511  0  1.915116  0  0  1.571955  2.094774  0  2.148487  0
Co  Co2  1  0.34238097  0.29382619  0.73725835  1  0  0.021994  0  4.557948  0  0  0.148102  0  4.876005  0  0  0.14008  0  4.872426  0  0  0.506593  0.163503  0  4.869967  0
Co  Co3  1  0.65762913  0.70615947  0.26274245  1  0  0.022151  0  4.557772  0  0  0.148115  0  4.876174  0  0  0.140062  0  4.872632  0  0  0.506598  0.163522  0  4.870114  0
H  H4  1  0.28714567  0.75351553  0.54377323  1  0  0.129902  0  0.936599  0  0  0.135117  0  1.003197  0  0  0.138784  0  1.001167  0  0  0.119604  0.132601  0  1.004438  0
H  H5  1  0.71284790  0.24648744  0.45622888  1  0  0.129847  0  0.936555  0  0  0.135015  0  1.003218  0  0  0.138678  0  1.001192  0  0  0.119603  0.132504  0  1.004444  0
H  H6  1  0.33249896  0.90278126  0.02199630  1  0  0.141803  0  0.910538  0  0  0.151189  0  0.965108  0  0  0.154472  0  0.963963  0  0  0.126769  0.148656  0  0.965798  0
H  H7  1  0.66749981  0.09722490  0.97800406  1  0  0.141862  0  0.910575  0  0  0.151207  0  0.965148  0  0  0.154493  0  0.964006  0  0  0.126769  0.148677  0  0.965837  0
H  H8  1  0.12603698  0.51398850  0.09617860  1  0  0.128684  0  0.921413  0  0  0.137172  0  0.980556  0  0  0.140849  0  0.976747  0  0  0.139741  0.134216  0  0.983533  0
H  H9  1  0.87396359  0.48601866  0.90381634  1  0  0.128709  0  0.921424  0  0  0.137171  0  0.980603  0  0  0.140847  0  0.976798  0  0  0.139718  0.134216  0  0.983579  0
H  H10  1  0.47812027  0.65301737  0.06708076  1  0  0.130585  0  0.933003  0  0  0.137783  0  0.993094  0  0  0.140476  0  0.990921  0  0  0.137914  0.135943  0  0.994549  0
H  H11  1  0.52187614  0.34698978  0.93291980  1  0  0.130535  0  0.932964  0  0  0.137726  0  0.993071  0  0  0.140416  0  0.990897  0  0  0.137908  0.135888  0  0.994527  0
H  H12  1  0.01278199  0.68128542  0.29631961  1  0  0.116404  0  0.963904  0  0  0.122675  0  1.029338  0  0  0.124992  0  1.028403  0  0  0.129918  0.12108  0  1.029787  0
H  H13  1  0.98721782  0.31872074  0.70367895  1  0  0.116431  0  0.963748  0  0  0.122625  0  1.029246  0  0  0.124943  0  1.028302  0  0  0.129894  0.121025  0  1.029713  0
H  H14  1  0.36373202  0.54269188  0.46027428  1  0  0.121362  0  0.955548  0  0  0.130743  0  1.012731  0  0  0.132367  0  1.012681  0  0  0.137212  0.129588  0  1.012746  0
H  H15  1  0.63626457  0.45731119  0.53973046  1  0  0.121327  0  0.955526  0  0  0.130716  0  1.012694  0  0  0.132325  0  1.012681  0  0  0.13721  0.129562  0  1.012708  0
H  H16  1  0.96711895  0.75759917  0.04531758  1  0  0.135625  0  0.958091  0  0  0.136938  0  1.02842  0  0  0.139888  0  1.027936  0  0  0.118272  0.134914  0  1.029466  0
H  H17  1  0.03288056  0.24240800  0.95467998  1  0  0.135629  0  0.958127  0  0  0.136944  0  1.028451  0  0  0.139894  0  1.027969  0  0  0.118289  0.134924  0  1.029494  0
H  H18  1  0.92089365  0.89837020  0.37103174  1  0  0.127033  0  0.974136  0  0  0.126121  0  1.048279  0  0  0.13047  0  1.044789  0  0  0.114552  0.123082  0  1.050667  0
H  H19  1  0.07910225  0.10163180  0.62897178  1  0  0.127015  0  0.974095  0  0  0.126127  0  1.048244  0  0  0.130478  0  1.044747  0  0  0.114545  0.12309  0  1.050631  0
H  H20  1  0.41833315  0.08580013  0.18604488  1  0  0.42002  0  0.885734  0  0  0.393196  0  0.942602  0  0  0.402203  0  0.92999  0  0  0.29799  0.386992  0  0.951433  0
H  H21  1  0.58167016  0.91419782  0.81395502  1  0  0.419997  0  0.885789  0  0  0.393178  0  0.942647  0  0  0.402184  0  0.930037  0  0  0.298006  0.386974  0  0.951476  0
H  H22  1  0.36497080  0.22628591  0.10039619  1  0  0.427115  0  0.885029  0  0  0.390797  0  0.95844  0  0  0.402409  0  0.941778  0  0  0.29132  0.382558  0  0.970452  0
H  H23  1  0.63503704  0.77371415  0.89959993  1  0  0.427139  0  0.884991  0  0  0.39082  0  0.958404  0  0  0.402432  0  0.941742  0  0  0.291329  0.38258  0  0.970417  0
H  H24  1  0.71134306  0.26395393  0.24644634  1  0  0.449499  0  0.802853  0  0  0.43338  0  0.849025  0  0  0.441485  0  0.83773  0  0  0.334815  0.428065  0  0.85662  0
H  H25  1  0.28865912  0.73604092  0.75355613  1  0  0.449547  0  0.802833  0  0  0.433423  0  0.848982  0  0  0.441529  0  0.837684  0  0  0.334831  0.428108  0  0.856578  0
H  H26  1  0.69753286  0.11247875  0.25465832  1  0  0.446746  0  0.852171  0  0  0.409975  0  0.923927  0  0  0.421953  0  0.906803  0  0  0.295859  0.401727  0  0.935707  0
H  H27  1  0.30246524  0.88751601  0.74534413  1  0  0.446805  0  0.852089  0  0  0.410021  0  0.923858  0  0  0.421997  0  0.906736  0  0  0.295872  0.401779  0  0.935631  0
H  H28  1  0.39612990  0.01061511  0.36776942  1  0  0.431029  0  0.860718  0  0  0.402719  0  0.921419  0  0  0.411859  0  0.908551  0  0  0.308123  0.396482  0  0.930299  0
H  H29  1  0.60387513  0.98938072  0.63222503  1  0  0.431119  0  0.860594  0  0  0.402758  0  0.921367  0  0  0.411896  0  0.908502  0  0  0.308159  0.396521  0  0.930247  0
H  H30  1  0.38635377  0.06213685  0.47852711  1  0  0.449983  0  0.799897  0  0  0.429252  0  0.858248  0  0  0.438034  0  0.848218  0  0  0.332475  0.423354  0  0.865101  0
H  H31  1  0.61360742  0.93788188  0.52146434  1  0  0.450044  0  0.799745  0  0  0.42932  0  0.858128  0  0  0.438099  0  0.848122  0  0  0.332461  0.423433  0  0.864967  0
H  H32  1  0.16754144  0.20579268  0.28660335  1  0  0.44026  0  0.811309  0  0  0.424414  0  0.861157  0  0  0.431674  0  0.851044  0  0  0.329376  0.419175  0  0.867211  0
H  H33  1  0.83246529  0.79420425  0.71339294  1  0  0.440373  0  0.811149  0  0  0.424519  0  0.861018  0  0  0.43178  0  0.850897  0  0  0.329427  0.41928  0  0.867072  0
H  H34  1  0.08368206  0.35558832  0.30944621  1  0  0.444702  0  0.857509  0  0  0.403732  0  0.93649  0  0  0.416233  0  0.918381  0  0  0.290253  0.395015  0  0.949201  0
H  H35  1  0.91631727  0.64440234  0.69055781  1  0  0.444638  0  0.857595  0  0  0.403666  0  0.936576  0  0  0.416168  0  0.918466  0  0  0.290208  0.39495  0  0.949285  0
C  C36  1  0.38036823  0.29748482  0.58285118  1  0  0.170484  0  3.515999  0  0  0.12708  0  3.824805  0  0  0.140496  0  3.837407  0  0  0.059658  0.11655  0  3.818439  0
C  C37  1  0.61962996  0.70250984  0.41714403  1  0  0.170392  0  3.515806  0  0  0.127001  0  3.824653  0  0  0.140424  0  3.83725  0  0  0.059521  0.11647  0  3.818283  0
C  C38  1  0.57759417  0.56451830  0.27732734  1  0  0.157789  0  3.525877  0  0  0.113687  0  3.839033  0  0  0.125858  0  3.851739  0  0  0.052993  0.103962  0  3.832896  0
C  C39  1  0.42240786  0.43547031  0.72267426  1  0  0.15782  0  3.525659  0  0  0.113684  0  3.838772  0  0  0.125847  0  3.851475  0  0  0.053003  0.103952  0  3.832643  0
C  C40  1  0.30015022  0.28161141  0.89381606  1  0  0.100255  0  3.531352  0  0  0.053877  0  3.844648  0  0  0.061105  0  3.857404  0  0  0.033407  0.046592  0  3.835039  0
C  C41  1  0.69985155  0.71839167  0.10618208  1  0  0.100329  0  3.531302  0  0  0.053987  0  3.844614  0  0  0.06122  0  3.857371  0  0  0.033512  0.046706  0  3.835001  0
C  C42  1  0.36493696  0.68448641  0.06279494  1  0  0.041618  0  3.547335  0  0  -0.003182  0  3.812027  0  0  0.00587  0  3.821528  0  0  0.056252  -0.00835  0  3.804185  0
C  C43  1  0.63506055  0.31551357  0.93721037  1  0  0.04181  0  3.54712  0  0  -0.002986  0  3.811753  0  0  0.006073  0  3.82125  0  0  0.056298  -0.008156  0  3.803915  0
C  C44  1  0.51832353  0.16318408  0.74681702  1  0  0.114516  0  3.517663  0  0  0.070543  0  3.822454  0  0  0.079116  0  3.834394  0  0  0.044178  0.062685  0  3.813636  0
C  C45  1  0.48169204  0.83680059  0.25317978  1  0  0.114601  0  3.516663  0  0  0.070659  0  3.821487  0  0  0.079244  0  3.833429  0  0  0.044225  0.062797  0  3.812667  0
C  C46  1  0.26808602  0.62515628  0.44496521  1  0  0.022376  0  3.566869  0  0  -0.021006  0  3.826374  0  0  -0.015303  0  3.840979  0  0  0.049314  -0.024177  0  3.815868  0
C  C47  1  0.73191293  0.37484578  0.55503853  1  0  0.022339  0  3.567138  0  0  -0.021035  0  3.826624  0  0  -0.015336  0  3.841224  0  0  0.04927  -0.024205  0  3.816116  0
C  C48  1  0.26751128  0.14618011  0.75548711  1  0  0.110916  0  3.499603  0  0  0.06516  0  3.807916  0  0  0.073519  0  3.821286  0  0  0.042384  0.057732  0  3.7975  0
C  C49  1  0.73248708  0.85381048  0.24451309  1  0  0.110594  0  3.499633  0  0  0.06487  0  3.807959  0  0  0.073237  0  3.82133  0  0  0.042276  0.057443  0  3.79754  0
C  C50  1  0.17013753  0.43047516  0.72128543  1  0  0.089875  0  3.538598  0  0  0.043589  0  3.853292  0  0  0.050828  0  3.865808  0  0  0.032488  0.036598  0  3.843947  0
C  C51  1  0.82986719  0.56952170  0.27870883  1  0  0.089817  0  3.538442  0  0  0.043539  0  3.853214  0  0  0.050792  0  3.865723  0  0  0.032444  0.036526  0  3.8439  0
C  C52  1  0.22320848  0.74095429  0.48976800  1  0  -0.12005  0  3.678224  0  0  -0.14344  0  3.939976  0  0  -0.14848  0  3.958661  0  0  -0.059364  -0.140488  0  3.926739  0
C  C53  1  0.77678686  0.25905290  0.51023678  1  0  -0.11996  0  3.678196  0  0  -0.143277  0  3.939911  0  0  -0.148314  0  3.958598  0  0  -0.059355  -0.140327  0  3.92668  0
C  C54  1  0.13859611  0.84879193  0.03168259  1  0  0.184174  0  3.79431  0  0  0.180517  0  4.05371  0  0  0.184557  0  4.074811  0  0  0.103189  0.178668  0  4.03853  0
C  C55  1  0.86140458  0.15121120  0.96832056  1  0  0.184312  0  3.794408  0  0  0.180551  0  4.053899  0  0  0.184604  0  4.074995  0  0  0.103243  0.178706  0  4.038721  0
C  C56  1  0.09731364  0.84171039  0.46472171  1  0  0.18665  0  3.81896  0  0  0.181752  0  4.078938  0  0  0.184566  0  4.099442  0  0  0.100437  0.180165  0  4.064952  0
C  C57  1  0.90268805  0.15829279  0.53528285  1  0  0.186532  0  3.818777  0  0  0.181596  0  4.078802  0  0  0.184412  0  4.099304  0  0  0.100416  0.18001  0  4.064815  0
C  C58  1  0.16318989  0.60533733  0.07719806  1  0  0.024772  0  3.582911  0  0  -0.0183  0  3.842655  0  0  -0.011495  0  3.854303  0  0  0.050255  -0.021628  0  3.836039  0
C  C59  1  0.83681143  0.39466373  0.92280467  1  0  0.024756  0  3.583039  0  0  -0.018294  0  3.842755  0  0  -0.011492  0  3.854406  0  0  0.050306  -0.021622  0  3.836139  0
C  C60  1  0.28363733  0.81935564  0.03763755  1  0  -0.121935  0  3.670192  0  0  -0.146707  0  3.930808  0  0  -0.152057  0  3.948088  0  0  -0.055827  -0.140171  0  3.915887  0
C  C61  1  0.71636438  0.18064750  0.96236541  1  0  -0.122211  0  3.6704  0  0  -0.146857  0  3.930934  0  0  -0.152221  0  3.948216  0  0  -0.055884  -0.140323  0  3.916015  0
C  C62  1  0.07928640  0.73837210  0.04990950  1  0  -0.151236  0  3.695528  0  0  -0.166665  0  3.942562  0  0  -0.173482  0  3.964004  0  0  -0.067312  -0.165701  0  3.931183  0
C  C63  1  0.92071290  0.26162890  0.95009201  1  0  -0.151245  0  3.695724  0  0  -0.166651  0  3.94276  0  0  -0.173473  0  3.964202  0  0  -0.067336  -0.16569  0  3.931384  0
C  C64  1  0.06652086  0.70627596  0.35062628  1  0  0.025924  0  3.571931  0  0  -0.013275  0  3.82184  0  0  -0.007678  0  3.835314  0  0  0.046387  -0.016686  0  3.812118  0
C  C65  1  0.93347383  0.29373011  0.64937406  1  0  0.025744  0  3.571994  0  0  -0.013365  0  3.821934  0  0  -0.007766  0  3.835407  0  0  0.046356  -0.016779  0  3.812218  0
C  C66  1  0.01862152  0.82231453  0.39361183  1  0  -0.127856  0  3.699973  0  0  -0.145255  0  3.947461  0  0  -0.149789  0  3.965681  0  0  -0.065084  -0.142314  0  3.93519  0
C  C67  1  0.98137427  0.17769788  0.60639482  1  0  -0.127626  0  3.699971  0  0  -0.145072  0  3.947443  0  0  -0.149604  0  3.965659  0  0  -0.064987  -0.142131  0  3.935171  0
N  N68  1  0.30356024  0.57984236  0.08513678  1  0  0.300339  0  3.692696  0  0  0.353149  0  3.956652  0  0  0.35434  0  3.979336  0  0  -0.104106  0.349955  0  3.944069  0
N  N69  1  0.69644056  0.42016385  0.91486400  1  0  0.300308  0  3.692383  0  0  0.353111  0  3.956359  0  0  0.354302  0  3.979041  0  0  -0.104074  0.349919  0  3.943777  0
N  N70  1  0.19009547  0.60886614  0.37620128  1  0  0.320207  0  3.668374  0  0  0.376225  0  3.923836  0  0  0.378665  0  3.946383  0  0  -0.09113  0.37435  0  3.909823  0
N  N71  1  0.80990261  0.39113895  0.62379786  1  0  0.320325  0  3.668517  0  0  0.376331  0  3.923964  0  0  0.378775  0  3.946507  0  0  -0.091113  0.374458  0  3.909949  0
N  N72  1  0.40404697  0.29237319  0.48683890  1  0  -0.583917  0  2.972089  0  0  -0.531534  0  3.270486  0  0  -0.559125  0  3.273143  0  0  -0.466631  -0.521281  0  3.265753  0
N  N73  1  0.59594506  0.70762139  0.51315989  1  0  -0.583871  0  2.971886  0  0  -0.531483  0  3.270255  0  0  -0.559059  0  3.272906  0  0  -0.466548  -0.521223  0  3.265525  0
N  N74  1  0.52919125  0.47487370  0.28263325  1  0  -0.58069  0  3.007948  0  0  -0.532358  0  3.310397  0  0  -0.557694  0  3.314733  0  0  -0.456689  -0.522559  0  3.305732  0
N  N75  1  0.47081561  0.52511920  0.71737044  1  0  -0.580754  0  3.007779  0  0  -0.532426  0  3.310239  0  0  -0.557747  0  3.314576  0  0  -0.456737  -0.522615  0  3.305577  0
N  N76  1  0.05854689  0.95683071  0.51217548  1  0  -0.1481  0  2.9789  0  0  -0.127295  0  3.261908  0  0  -0.12226  0  3.26168  0  0  -0.149376  -0.130365  0  3.261349  0
N  N77  1  0.94145005  0.04317128  0.48782623  1  0  -0.148163  0  2.978843  0  0  -0.127354  0  3.261868  0  0  -0.122318  0  3.261641  0  0  -0.149371  -0.130426  0  3.261309  0
N  N78  1  0.06697974  0.52207236  0.71019851  1  0  -0.438491  0  2.855519  0  0  -0.385327  0  3.113866  0  0  -0.39849  0  3.123607  0  0  -0.350552  -0.375155  0  3.10707  0
N  N79  1  0.93302405  0.47791728  0.28980010  1  0  -0.438474  0  2.855302  0  0  -0.385321  0  3.113674  0  0  -0.398486  0  3.12341  0  0  -0.350533  -0.375145  0  3.106882  0
N  N80  1  0.62639572  0.07533854  0.74512971  1  0  -0.481375  0  2.803998  0  0  -0.429386  0  3.048452  0  0  -0.44312  0  3.058776  0  0  -0.372845  -0.419295  0  3.041645  0
N  N81  1  0.37360780  0.92466558  0.25486623  1  0  -0.481498  0  2.803072  0  0  -0.429528  0  3.047543  0  0  -0.443268  0  3.057863  0  0  -0.372856  -0.41944  0  3.040741  0
N  N82  1  0.23305451  0.04740919  0.76219788  1  0  -0.442341  0  2.834352  0  0  -0.387045  0  3.09078  0  0  -0.402851  0  3.101814  0  0  -0.351932  -0.375058  0  3.082552  0
N  N83  1  0.76694449  0.95258253  0.23780755  1  0  -0.442065  0  2.834215  0  0  -0.386777  0  3.090628  0  0  -0.402586  0  3.101663  0  0  -0.351836  -0.374793  0  3.082402  0
N  N84  1  0.27340898  0.27669693  0.99184968  1  0  -0.440686  0  2.818619  0  0  -0.392271  0  3.075629  0  0  -0.404829  0  3.08412  0  0  -0.358042  -0.382393  0  3.069518  0
N  N85  1  0.72659248  0.72330719  0.00814907  1  0  -0.440765  0  2.818692  0  0  -0.392356  0  3.075701  0  0  -0.404917  0  3.084191  0  0  -0.358136  -0.382482  0  3.06959  0
N  N86  1  0.06136759  0.98855927  0.01205895  1  0  -0.11909  0  2.960969  0  0  -0.104154  0  3.251719  0  0  -0.101187  0  3.254641  0  0  -0.131507  -0.105813  0  3.248824  0
N  N87  1  0.93862745  0.01144894  0.98794483  1  0  -0.119139  0  2.961052  0  0  -0.104209  0  3.251846  0  0  -0.101246  0  3.254767  0  0  -0.131647  -0.105869  0  3.248952  0
O  O88  1  0.42603423  0.18138179  0.16188083  1  0  -0.92409  0  1.91523  0  0  -0.870332  0  2.112963  0  0  -0.901831  0  2.077854  0  0  -0.656715  -0.856356  0  2.133673  0
O  O89  1  0.57396755  0.81862129  0.83811730  1  0  -0.924075  0  1.915236  0  0  -0.870321  0  2.11295  0  0  -0.901815  0  2.077849  0  0  -0.65672  -0.856343  0  2.133662  0
O  O90  1  0.37985699  0.45152402  0.11461704  1  0  -0.637404  0  1.869284  0  0  -0.603528  0  2.135215  0  0  -0.641771  0  2.131694  0  0  -0.312682  -0.585012  0  2.13504  0
O  O91  1  0.62013775  0.54848521  0.88538575  1  0  -0.637409  0  1.869144  0  0  -0.603556  0  2.135089  0  0  -0.64179  0  2.131571  0  0  -0.312712  -0.58504  0  2.134918  0
O  O92  1  0.22814418  0.50069995  0.33230551  1  0  -0.627053  0  1.938136  0  0  -0.588321  0  2.19395  0  0  -0.62906  0  2.194677  0  0  -0.306517  -0.567876  0  2.190315  0
O  O93  1  0.77185646  0.49930003  0.66769519  1  0  -0.627016  0  1.938156  0  0  -0.58829  0  2.193969  0  0  -0.629022  0  2.194703  0  0  -0.306466  -0.567841  0  2.190336  0
O  O94  1  0.64533949  0.20725577  0.27022347  1  0  -0.929416  0  1.868742  0  0  -0.880985  0  2.072299  0  0  -0.911782  0  2.032188  0  0  -0.642043  -0.867834  0  2.094237  0
O  O95  1  0.35465876  0.79274203  0.72977338  1  0  -0.929514  0  1.868683  0  0  -0.881079  0  2.072238  0  0  -0.911867  0  2.032132  0  0  -0.642082  -0.867929  0  2.094165  0
O  O96  1  0.17496619  0.27823384  0.31741071  1  0  -0.932912  0  1.883666  0  0  -0.88677  0  2.088833  0  0  -0.916062  0  2.051169  0  0  -0.645429  -0.87467  0  2.108913  0
O  O97  1  0.82503353  0.72175891  0.68259354  1  0  -0.932959  0  1.883588  0  0  -0.886828  0  2.088757  0  0  -0.916115  0  2.051094  0  0  -0.645429  -0.874724  0  2.108836  0
O  O98  1  0.42336521  0.07505878  0.39737228  1  0  -0.879387  0  1.880517  0  0  -0.828872  0  2.069468  0  0  -0.857187  0  2.038375  0  0  -0.609839  -0.815637  0  2.086508  0
O  O99  1  0.57663897  0.92493295  0.60262655  1  0  -0.879568  0  1.880307  0  0  -0.829028  0  2.06933  0  0  -0.857323  0  2.038276  0  0  -0.609871  -0.815807  0  2.086337  0
