# generated using pymatgen
data_ZnH18C26(N2O3)2
_symmetry_space_group_name_H-M   'P 1'
_cell_length_a   13.30110202
_cell_length_b   13.30652198
_cell_length_c   15.06822215
_cell_angle_alpha   90.00013733
_cell_angle_beta   89.99982209
_cell_angle_gamma   90.79432792
_symmetry_Int_Tables_number   1
_chemical_formula_structural   ZnH18C26(N2O3)2
_chemical_formula_sum   'Zn4 H72 C104 N16 O24'
_cell_volume   2666.68954012
_cell_formula_units_Z   4
loop_
 _symmetry_equiv_pos_site_id
 _symmetry_equiv_pos_as_xyz
  1  'x, y, z'
loop_
 _atom_site_type_symbol
 _atom_site_label
 _atom_site_symmetry_multiplicity
 _atom_site_fract_x
 _atom_site_fract_y
 _atom_site_fract_z
 _atom_site_occupancy
 _atom_site_pbe_bader_charge
 _atom_site_pbe_bader_spin_density
 _atom_site_pbe_cm5_charge
 _atom_site_pbe_ddec_charge
 _atom_site_pbe_ddec_spin_density
 _atom_site_pbe_ddec_sum_bond_order
 _atom_site_pbe_magmom
Zn  Zn0  1  0.85315621  0.74915634  0.24358908  1  1.265748  0  0.70857  0.794926  0  2.354386  0
Zn  Zn1  1  0.64683752  0.75085026  0.74358996  1  1.265476  0  0.708551  0.79497  0  2.354322  0
Zn  Zn2  1  0.14683629  0.25084104  0.75641644  1  1.265523  0  0.708622  0.795072  0  2.354424  0
Zn  Zn3  1  0.35316174  0.24914703  0.25641358  1  1.265495  0  0.708633  0.794975  0  2.354506  0
H  H4  1  0.71716698  0.56908717  0.15794394  1  0.190792  0  0.133931  0.10451  0  1.038596  0
H  H5  1  0.78283302  0.93091761  0.65793819  1  0.19065  0  0.133907  0.104383  0  1.03872  0
H  H6  1  0.28284117  0.43090547  0.84206889  1  0.190593  0  0.133912  0.104432  0  1.038624  0
H  H7  1  0.21715523  0.06908885  0.34205805  1  0.190932  0  0.133905  0.104387  0  1.038699  0
H  H8  1  0.59140817  0.46605645  0.25297313  1  0.538837  0  0.305575  0.280922  0  1.014028  0
H  H9  1  0.90858869  0.03394778  0.75296819  1  0.538815  0  0.305618  0.280938  0  1.014102  0
H  H10  1  0.40859545  0.53393551  0.74703704  1  0.538852  0  0.305586  0.280725  0  1.014288  0
H  H11  1  0.09140329  0.96605788  0.24702406  1  0.538888  0  0.30558  0.280765  0  1.014222  0
H  H12  1  0.72845643  0.68993213  0.41634016  1  0.10892  0  0.119032  0.118644  0  1.019494  0
H  H13  1  0.77153579  0.81006968  0.91633684  1  0.109044  0  0.118976  0.118501  0  1.019413  0
H  H14  1  0.27153452  0.31006377  0.58366935  1  0.109108  0  0.118996  0.118468  0  1.019423  0
H  H15  1  0.22845723  0.18994574  0.08365939  1  0.108808  0  0.118986  0.118553  0  1.019239  0
H  H16  1  0.52244478  0.38786024  0.36978520  1  0.101587  0  0.102182  0.118304  0  1.04805  0
H  H17  1  0.97756124  0.11213740  0.86977360  1  0.101364  0  0.102184  0.118366  0  1.048157  0
H  H18  1  0.47756715  0.61213310  0.63023228  1  0.101385  0  0.102216  0.118402  0  1.047977  0
H  H19  1  0.02243293  0.88786597  0.13022330  1  0.101516  0  0.102232  0.118443  0  1.047988  0
H  H20  1  0.59265939  0.66220676  0.51145439  1  0.073609  0  0.097554  0.097015  0  1.044476  0
H  H21  1  0.90734856  0.83779451  0.01144294  1  0.073501  0  0.097559  0.0971  0  1.044522  0
H  H22  1  0.40735784  0.33778800  0.48856374  1  0.073054  0  0.097604  0.097076  0  1.044652  0
H  H23  1  0.09265751  0.16220418  0.98854600  1  0.073578  0  0.097552  0.097014  0  1.044602  0
H  H24  1  0.84653917  0.99715219  0.25319765  1  0.151844  0  0.140906  0.100403  0  1.002814  0
H  H25  1  0.65346132  0.50285509  0.75319932  1  0.151911  0  0.140894  0.100393  0  1.002744  0
H  H26  1  0.15345986  0.00283683  0.74680522  1  0.151769  0  0.140893  0.100343  0  1.002915  0
H  H27  1  0.34655059  0.49713750  0.24679957  1  0.150876  0  0.140893  0.100403  0  1.002795  0
H  H28  1  0.71419390  0.09131684  0.16317565  1  0.470002  0  0.350325  0.303951  0  0.885004  0
H  H29  1  0.78580252  0.40868716  0.66316917  1  0.47006  0  0.350272  0.303819  0  0.885035  0
H  H30  1  0.28580360  0.90867145  0.83682922  1  0.469931  0  0.350333  0.303918  0  0.884907  0
H  H31  1  0.21420516  0.59131526  0.33681511  1  0.470147  0  0.350262  0.30377  0  0.884985  0
H  H32  1  0.67635298  0.78132990  0.11129571  1  0.181975  0  0.122137  0.126206  0  1.03228  0
H  H33  1  0.82364347  0.71867631  0.61128011  1  0.181574  0  0.122119  0.126233  0  1.032065  0
H  H34  1  0.32363872  0.21866599  0.88870384  1  0.182115  0  0.122134  0.126208  0  1.032178  0
H  H35  1  0.17635296  0.28132703  0.38871347  1  0.181648  0  0.122118  0.126234  0  1.032212  0
H  H36  1  0.54227682  0.11450255  0.12550391  1  0.069084  0  0.101124  0.100271  0  1.012207  0
H  H37  1  0.95770964  0.38549022  0.62549427  1  0.069363  0  0.101056  0.100095  0  1.012053  0
H  H38  1  0.45771484  0.88549184  0.87449963  1  0.069199  0  0.101137  0.100163  0  1.012192  0
H  H39  1  0.04228361  0.61450715  0.37449069  1  0.069752  0  0.101191  0.100297  0  1.012071  0
H  H40  1  0.40411133  0.15565222  0.02605710  1  0.09098  0  0.100577  0.09825  0  1.052613  0
H  H41  1  0.09587959  0.34434737  0.52604902  1  0.091139  0  0.100611  0.098208  0  1.052699  0
H  H42  1  0.59587958  0.84434217  0.97394577  1  0.091  0  0.100595  0.09825  0  1.052617  0
H  H43  1  0.90411692  0.65565898  0.47393660  1  0.091061  0  0.100567  0.098218  0  1.052742  0
H  H44  1  0.98478410  0.56522731  0.79431195  1  0.092289  0  0.101259  0.119466  0  0.99482  0
H  H45  1  0.51521802  0.93476351  0.29430574  1  0.09236  0  0.101227  0.11943  0  0.994754  0
H  H46  1  0.01521439  0.43476923  0.20569557  1  0.092229  0  0.10124  0.119462  0  0.994722  0
H  H47  1  0.48478820  0.06524043  0.70568585  1  0.091863  0  0.101177  0.119335  0  0.994705  0
H  H48  1  0.16683453  0.56484990  0.82311937  1  0.059435  0  0.094786  0.088494  0  1.033839  0
H  H49  1  0.33316559  0.93514893  0.32311629  1  0.059902  0  0.094752  0.08845  0  1.033837  0
H  H50  1  0.83316181  0.43515044  0.17688616  1  0.059846  0  0.094716  0.08837  0  1.033873  0
H  H51  1  0.66684013  0.06486404  0.67687729  1  0.059896  0  0.094831  0.088549  0  1.033736  0
H  H52  1  0.11263615  0.65760726  0.09347341  1  0.071424  0  0.101441  0.106772  0  1.009132  0
H  H53  1  0.38736118  0.84239627  0.59347316  1  0.071332  0  0.101445  0.106724  0  1.009139  0
H  H54  1  0.88735525  0.34237811  0.90653676  1  0.072002  0  0.101546  0.10689  0  1.009004  0
H  H55  1  0.61264946  0.15760460  0.40651511  1  0.071766  0  0.101415  0.106687  0  1.009068  0
H  H56  1  0.81428865  0.62848006  0.96832215  1  0.621428  0  0.293931  0.339865  0  0.995335  0
H  H57  1  0.68570774  0.87151656  0.46832066  1  0.621386  0  0.293931  0.339837  0  0.995345  0
H  H58  1  0.18570359  0.37150830  0.03168337  1  0.62114  0  0.293944  0.339807  0  0.995417  0
H  H59  1  0.31429914  0.12848437  0.53166893  1  0.621208  0  0.293924  0.339817  0  0.995455  0
H  H60  1  0.30808449  0.64448847  0.84285284  1  0.057582  0  0.100007  0.097628  0  1.027206  0
H  H61  1  0.19192371  0.85550578  0.34284533  1  0.057657  0  0.100002  0.097576  0  1.027097  0
H  H62  1  0.69191589  0.35549526  0.15715600  1  0.057645  0  0.099968  0.097621  0  1.027099  0
H  H63  1  0.80808567  0.14450338  0.65714560  1  0.057727  0  0.100035  0.097666  0  1.027147  0
H  H64  1  0.43816486  0.59662234  0.14818938  1  0.053454  0  0.100848  0.114249  0  1.003218  0
H  H65  1  0.06182640  0.90338593  0.64818218  1  0.053567  0  0.10081  0.114228  0  1.003163  0
H  H66  1  0.56183060  0.40337349  0.85182079  1  0.053557  0  0.100836  0.114311  0  1.003267  0
H  H67  1  0.93818208  0.09664429  0.35180809  1  0.053107  0  0.100806  0.114251  0  1.003196  0
H  H68  1  0.25449565  0.57610016  0.11788676  1  0.065073  0  0.097163  0.091187  0  1.035895  0
H  H69  1  0.24549795  0.92390725  0.61788043  1  0.065144  0  0.097163  0.091264  0  1.035939  0
H  H70  1  0.74549977  0.42389417  0.88212407  1  0.065159  0  0.097168  0.091278  0  1.035871  0
H  H71  1  0.75451351  0.07612218  0.38210917  1  0.06511  0  0.097211  0.091246  0  1.035939  0
H  H72  1  0.60716513  0.66727997  0.97636987  1  0.631773  0  0.309706  0.353894  0  0.947427  0
H  H73  1  0.89284036  0.83272030  0.47635779  1  0.631614  0  0.309763  0.353916  0  0.947428  0
H  H74  1  0.39283484  0.33271579  0.02363963  1  0.631611  0  0.309696  0.353831  0  0.947417  0
H  H75  1  0.10717355  0.16728955  0.52363646  1  0.63162  0  0.309736  0.353795  0  0.94736  0
C  C76  1  0.70305266  0.57913172  0.22822034  1  0.990561  0  0.142882  0.150549  0  3.924668  0
C  C77  1  0.79694621  0.92086874  0.72821453  1  0.990727  0  0.142961  0.150748  0  3.92498  0
C  C78  1  0.29695240  0.42085795  0.77178983  1  0.990038  0  0.142948  0.150647  0  3.924564  0
C  C79  1  0.20304356  0.07913845  0.27178104  1  0.989814  0  0.142894  0.150581  0  3.924899  0
C  C80  1  0.63394898  0.56442574  0.36203050  1  0.375029  0  0.084109  0.113107  0  4.019112  0
C  C81  1  0.86605103  0.93557883  0.86201922  1  0.373985  0  0.084193  0.113115  0  4.018986  0
C  C82  1  0.36604504  0.43557237  0.63798166  1  0.374174  0  0.084224  0.113215  0  4.018995  0
C  C83  1  0.13394702  0.06442900  0.13797502  1  0.374798  0  0.084206  0.113055  0  4.019067  0
C  C84  1  0.70575792  0.64059453  0.36258529  1  0.378363  0  -0.000374  -0.080635  0  3.942967  0
C  C85  1  0.79424134  0.85941004  0.86257936  1  0.378204  0  -0.00034  -0.080399  0  3.942591  0
C  C86  1  0.29425031  0.35940111  0.63743218  1  0.377466  0  -0.000307  -0.080299  0  3.94314  0
C  C87  1  0.20574770  0.14059791  0.13741953  1  0.378483  0  -0.000369  -0.080466  0  3.942768  0
C  C88  1  0.56642789  0.52965355  0.43161010  1  -0.034076  0  -0.01708  0.037266  0  4.079209  0
C  C89  1  0.93356625  0.97033851  0.93160535  1  -0.033761  0  -0.017004  0.037501  0  4.07894  0
C  C90  1  0.43357779  0.47033161  0.56840273  1  -0.034045  0  -0.017111  0.037376  0  4.078694  0
C  C91  1  0.06642730  0.02966939  0.06838691  1  -0.033805  0  -0.017077  0.037444  0  4.078703  0
C  C92  1  0.51293507  0.43793807  0.42608321  1  0.015787  0  -0.100618  -0.139304  0  3.981303  0
C  C93  1  0.98706981  0.06205296  0.92606551  1  0.016455  0  -0.100801  -0.13972  0  3.981039  0
C  C94  1  0.48707141  0.56204858  0.57393293  1  0.016283  0  -0.100786  -0.139683  0  3.981036  0
C  C95  1  0.01292879  0.93794734  0.07392608  1  0.015636  0  -0.100744  -0.139656  0  3.980673  0
C  C96  1  0.55248924  0.59061849  0.50661173  1  -0.06094  0  -0.094726  -0.11507  0  3.988237  0
C  C97  1  0.94751179  0.90937685  0.00659899  1  -0.060291  0  -0.09485  -0.115413  0  3.988391  0
C  C98  1  0.44751724  0.40936816  0.49340043  1  -0.059744  0  -0.094838  -0.115371  0  3.988624  0
C  C99  1  0.05248616  0.09062722  0.99338795  1  -0.061234  0  -0.09469  -0.115066  0  3.988317  0
C  C100  1  0.79038510  0.96365249  0.20995105  1  0.98704  0  0.158811  0.171809  0  3.930578  0
C  C101  1  0.70961393  0.53635094  0.70994932  1  0.986454  0  0.15886  0.171901  0  3.930177  0
C  C102  1  0.20961101  0.03633958  0.79004784  1  0.988031  0  0.158779  0.171789  0  3.930564  0
C  C103  1  0.29039201  0.46364324  0.29004825  1  0.987319  0  0.158757  0.171704  0  3.930735  0
C  C104  1  0.66221510  0.94814107  0.11513511  1  0.333264  0  0.089088  0.114214  0  4.021274  0
C  C105  1  0.83777661  0.55185770  0.61512576  1  0.290083  0  0.089058  0.114071  0  4.02151  0
C  C106  1  0.33777351  0.05185185  0.88486577  1  0.289974  0  0.089132  0.114301  0  4.021171  0
C  C107  1  0.16222658  0.44814554  0.38486384  1  0.333412  0  0.089129  0.114303  0  4.02141  0
C  C108  1  0.70073472  0.85486097  0.13446903  1  0.414349  0  0.010984  -0.071277  0  3.909868  0
C  C109  1  0.79926225  0.64514003  0.63445799  1  0.413436  0  0.01108  -0.07122  0  3.909594  0
C  C110  1  0.29925610  0.14513043  0.86552853  1  0.41372  0  0.011007  -0.071416  0  3.909715  0
C  C111  1  0.20074238  0.35486093  0.36553294  1  0.413819  0  0.011006  -0.07145  0  3.909727  0
C  C112  1  0.58019973  0.97613335  0.05702422  1  -0.03344  0  -0.010092  0.040052  0  4.067901  0
C  C113  1  0.91979824  0.52386668  0.55701658  1  0.010227  0  -0.010035  0.040313  0  4.06767  0
C  C114  1  0.41979412  0.02385875  0.94298197  1  0.009945  0  -0.010087  0.039952  0  4.06777  0
C  C115  1  0.08020203  0.47613961  0.44297103  1  -0.032925  0  -0.010174  0.039799  0  4.068086  0
C  C116  1  0.52558338  0.06462744  0.06975012  1  -0.024969  0  -0.091575  -0.124533  0  3.988943  0
C  C117  1  0.97440867  0.43536961  0.56973722  1  -0.025808  0  -0.091615  -0.124552  0  3.988445  0
C  C118  1  0.47440826  0.93536620  0.93025474  1  -0.025685  0  -0.091587  -0.124229  0  3.988665  0
C  C119  1  0.02559601  0.56463285  0.43024640  1  -0.026161  0  -0.091641  -0.124382  0  3.988634  0
C  C120  1  0.44667865  0.08794784  0.01357508  1  -0.029767  0  -0.087311  -0.106852  0  3.970594  0
C  C121  1  0.05332445  0.41205530  0.51356327  1  -0.029667  0  -0.087206  -0.106576  0  3.970266  0
C  C122  1  0.55331525  0.91204576  0.98643111  1  -0.029222  0  -0.087307  -0.106959  0  3.970544  0
C  C123  1  0.94667894  0.58795471  0.48641903  1  -0.029587  0  -0.087349  -0.1071  0  3.970332  0
C  C124  1  0.91273622  0.66409742  0.08393504  1  1.511486  0  0.202386  0.575154  0  4.203184  0
C  C125  1  0.58725889  0.83591100  0.58393559  1  1.511602  0  0.20243  0.575055  0  4.203171  0
C  C126  1  0.08725172  0.33589853  0.91606849  1  1.511989  0  0.202283  0.575025  0  4.203415  0
C  C127  1  0.41275401  0.16408984  0.41605135  1  1.51093  0  0.202228  0.574979  0  4.203237  0
C  C128  1  0.98323622  0.63559687  0.01237638  1  -0.074322  0  -0.04148  -0.190041  0  4.013549  0
C  C129  1  0.51675449  0.86440616  0.51237718  1  -0.075035  0  -0.041557  -0.190171  0  4.013592  0
C  C130  1  0.01675542  0.36439677  0.98763379  1  -0.074891  0  -0.04151  -0.190187  0  4.01372  0
C  C131  1  0.48324789  0.13559483  0.48761574  1  -0.075083  0  -0.041629  -0.190328  0  4.013546  0
C  C132  1  0.94553908  0.61019289  0.92699525  1  0.584499  0  0.089044  0.31206  0  4.054631  0
C  C133  1  0.55446428  0.88980578  0.42699482  1  0.584521  0  0.08908  0.312098  0  4.054496  0
C  C134  1  0.05446009  0.38980139  0.07301227  1  0.584854  0  0.088972  0.312104  0  4.054918  0
C  C135  1  0.44554567  0.11019736  0.57300142  1  0.584852  0  0.089059  0.31213  0  4.054662  0
C  C136  1  0.01390522  0.58612539  0.85949615  1  -0.067294  0  -0.108822  -0.201379  0  3.989966  0
C  C137  1  0.48609395  0.91387055  0.35949394  1  -0.067308  0  -0.108816  -0.201365  0  3.989719  0
C  C138  1  0.98608344  0.41386905  0.14050738  1  -0.06764  0  -0.108748  -0.201373  0  3.989974  0
C  C139  1  0.51391687  0.08613634  0.64049566  1  -0.067434  0  -0.108745  -0.201342  0  3.989956  0
C  C140  1  0.11632238  0.58647461  0.87657766  1  -0.060421  0  -0.090477  -0.100535  0  4.004317  0
C  C141  1  0.38367455  0.91352441  0.37657771  1  -0.061001  0  -0.090391  -0.1004  0  4.004186  0
C  C142  1  0.88367160  0.41352200  0.12342521  1  -0.060876  0  -0.0905  -0.100436  0  4.004592  0
C  C143  1  0.61633177  0.08648329  0.62341852  1  -0.060392  0  -0.090462  -0.100405  0  4.004082  0
C  C144  1  0.15588217  0.61095097  0.96110253  1  0.052978  0  -0.028492  0.027168  0  4.033253  0
C  C145  1  0.34411668  0.88904674  0.46110264  1  0.053161  0  -0.028501  0.027029  0  4.033481  0
C  C146  1  0.84410874  0.38904343  0.03890432  1  0.053101  0  -0.028323  0.027251  0  4.033099  0
C  C147  1  0.65589098  0.11095493  0.53889227  1  0.053566  0  -0.028421  0.027063  0  4.033133  0
C  C148  1  0.08710937  0.63566334  0.02743444  1  -0.040987  0  -0.082625  -0.104598  0  3.958843  0
C  C149  1  0.41288523  0.86434156  0.52743550  1  -0.040749  0  -0.082565  -0.104354  0  3.958906  0
C  C150  1  0.91288737  0.36432496  0.97257374  1  -0.041142  0  -0.082729  -0.104703  0  3.958543  0
C  C151  1  0.58712033  0.13566540  0.47256074  1  -0.041157  0  -0.082544  -0.104339  0  3.958595  0
C  C152  1  0.26526247  0.61302580  0.97857625  1  0.063123  0  -0.019521  0.051395  0  4.018228  0
C  C153  1  0.23474108  0.88698091  0.47857200  1  0.063484  0  -0.019497  0.051474  0  4.018379  0
C  C154  1  0.73473814  0.38696620  0.02143061  1  0.063114  0  -0.019491  0.051507  0  4.01847  0
C  C155  1  0.76526638  0.11304031  0.52141826  1  0.063144  0  -0.019609  0.051529  0  4.01826  0
C  C156  1  0.33427041  0.63237351  0.91058341  1  -0.022501  0  -0.092841  -0.136897  0  3.991651  0
C  C157  1  0.16573620  0.86762620  0.41058197  1  -0.023082  0  -0.09273  -0.136643  0  3.991249  0
C  C158  1  0.66573246  0.36761845  0.08942543  1  -0.023159  0  -0.092793  -0.136874  0  3.991286  0
C  C159  1  0.83427543  0.13238292  0.58941095  1  -0.022768  0  -0.092827  -0.13706  0  3.991564  0
C  C160  1  0.43799218  0.64120429  0.92600050  1  -0.049548  0  -0.044977  -0.191131  0  4.047415  0
C  C161  1  0.06201073  0.85879928  0.42599400  1  -0.04923  0  -0.0451  -0.191423  0  4.047585  0
C  C162  1  0.56200934  0.35879296  0.07400105  1  -0.049197  0  -0.045043  -0.191237  0  4.04744  0
C  C163  1  0.93799953  0.14121438  0.57399758  1  -0.049433  0  -0.045072  -0.191012  0  4.047701  0
C  C164  1  0.47540167  0.63220325  0.01327299  1  0.464625  0  0.086236  0.308831  0  4.056981  0
C  C165  1  0.02459511  0.86779707  0.51326249  1  0.464573  0  0.086406  0.309092  0  4.056812  0
C  C166  1  0.52459530  0.36779256  0.98673586  1  0.464466  0  0.086351  0.309037  0  4.057  0
C  C167  1  0.97541369  0.13221812  0.48672910  1  0.46424  0  0.086451  0.308902  0  4.0573  0
C  C168  1  0.40785672  0.60736144  0.08160162  1  0.020543  0  -0.109972  -0.209551  0  3.995173  0
C  C169  1  0.09213634  0.89264888  0.58159298  1  0.020572  0  -0.110073  -0.209727  0  3.995043  0
C  C170  1  0.59214033  0.39263738  0.91840590  1  0.020691  0  -0.110058  -0.209841  0  3.995075  0
C  C171  1  0.90786825  0.10737689  0.41839662  1  0.020958  0  -0.110018  -0.209646  0  3.994903  0
C  C172  1  0.30548695  0.59764084  0.06430840  1  -0.072306  0  -0.085633  -0.094404  0  3.981255  0
C  C173  1  0.19451199  0.90236258  0.56430216  1  -0.072535  0  -0.085602  -0.09445  0  3.981277  0
C  C174  1  0.69451296  0.40235267  0.93570576  1  -0.072162  0  -0.085662  -0.09444  0  3.981388  0
C  C175  1  0.80549539  0.09765563  0.43569341  1  -0.072118  0  -0.085663  -0.094503  0  3.981321  0
C  C176  1  0.50562957  0.66100378  0.84988528  1  1.509377  0  0.202062  0.570286  0  4.218617  0
C  C177  1  0.99437418  0.83899844  0.34988023  1  1.509357  0  0.202055  0.570322  0  4.218568  0
C  C178  1  0.49436739  0.33899203  0.15012091  1  1.509172  0  0.202112  0.570295  0  4.218617  0
C  C179  1  0.00563015  0.16101831  0.65011468  1  1.509152  0  0.201982  0.569904  0  4.218804  0
N  N180  1  0.74806634  0.64848404  0.27947126  1  -1.263474  0  -0.365469  -0.293733  0  3.617428  0
N  N181  1  0.75193259  0.85152483  0.77946542  1  -1.263502  0  -0.365525  -0.293973  0  3.617833  0
N  N182  1  0.25193225  0.35151625  0.72054024  1  -1.262631  0  -0.365549  -0.294052  0  3.617736  0
N  N183  1  0.24805645  0.14848313  0.22053081  1  -1.263322  0  -0.36544  -0.293806  0  3.617416  0
N  N184  1  0.63455491  0.52682346  0.27619751  1  -1.29591  0  -0.373473  -0.243966  0  3.625304  0
N  N185  1  0.86544238  0.97318017  0.77618565  1  -1.295102  0  -0.373523  -0.243917  0  3.625394  0
N  N186  1  0.36545088  0.47316546  0.72381930  1  -1.29468  0  -0.373623  -0.243837  0  3.625258  0
N  N187  1  0.13454817  0.02682777  0.22380993  1  -1.295194  0  -0.373548  -0.243744  0  3.625333  0
N  N188  1  0.77977469  0.86616361  0.19282287  1  -1.224026  0  -0.353457  -0.278523  0  3.630057  0
N  N189  1  0.72022210  0.63383830  0.69281400  1  -1.22238  0  -0.35353  -0.278676  0  3.629828  0
N  N190  1  0.22021160  0.13382710  0.80717403  1  -1.224267  0  -0.353448  -0.278449  0  3.629744  0
N  N191  1  0.27978843  0.36615881  0.30717891  1  -1.222764  0  -0.353459  -0.278429  0  3.63016  0
N  N192  1  0.72018454  0.01545627  0.16452608  1  -1.233954  0  -0.366747  -0.246784  0  3.634129  0
N  N193  1  0.77981186  0.48454698  0.66452045  1  -1.23393  0  -0.366678  -0.24658  0  3.634285  0
N  N194  1  0.27980929  0.98453507  0.83547546  1  -1.234156  0  -0.366805  -0.246741  0  3.634014  0
N  N195  1  0.22019277  0.51545399  0.33547180  1  -1.234016  0  -0.366642  -0.246507  0  3.634146  0
O  O196  1  0.94965695  0.68778949  0.16039991  1  -1.169604  0  -0.331735  -0.540731  0  2.312134  0
O  O197  1  0.55034697  0.81222125  0.66040250  1  -1.169562  0  -0.331787  -0.540702  0  2.312237  0
O  O198  1  0.05034218  0.31220328  0.83960495  1  -1.16938  0  -0.331684  -0.540629  0  2.31223  0
O  O199  1  0.44965242  0.18778054  0.33959041  1  -1.168899  0  -0.331666  -0.540534  0  2.31256  0
O  O200  1  0.81860832  0.66651579  0.06677456  1  -1.185161  0  -0.318198  -0.56006  0  2.185101  0
O  O201  1  0.68138591  0.83348583  0.56677816  1  -1.185126  0  -0.318208  -0.560004  0  2.185155  0
O  O202  1  0.18138089  0.33347187  0.93322898  1  -1.185433  0  -0.318176  -0.560003  0  2.185344  0
O  O203  1  0.31861791  0.16651289  0.43321343  1  -1.185305  0  -0.31817  -0.560051  0  2.184985  0
O  O204  1  0.84614490  0.60833298  0.90923615  1  -1.157244  0  -0.356249  -0.460645  0  2.304831  0
O  O205  1  0.65385997  0.89166337  0.40923081  1  -1.156935  0  -0.356272  -0.460701  0  2.304795  0
O  O206  1  0.15385264  0.39165681  0.09076672  1  -1.156948  0  -0.356226  -0.460627  0  2.305115  0
O  O207  1  0.34614780  0.10834206  0.59075414  1  -1.157078  0  -0.356213  -0.460558  0  2.304847  0
O  O208  1  0.57446266  0.64461310  0.03254654  1  -1.140586  0  -0.348713  -0.446059  0  2.302242  0
O  O209  1  0.92553328  0.85539141  0.53253692  1  -1.140467  0  -0.348787  -0.446121  0  2.302205  0
O  O210  1  0.42553225  0.35538951  0.96746297  1  -1.140473  0  -0.348713  -0.446023  0  2.302228  0
O  O211  1  0.07447174  0.14462308  0.46745931  1  -1.140274  0  -0.348804  -0.445937  0  2.302399  0
O  O212  1  0.48028011  0.63572065  0.77249726  1  -1.184456  0  -0.306342  -0.539423  0  2.25454  0
O  O213  1  0.01972816  0.86426740  0.27249288  1  -1.184659  0  -0.306309  -0.539411  0  2.254512  0
O  O214  1  0.51970955  0.36428279  0.22750429  1  -1.184555  0  -0.306395  -0.539458  0  2.254773  0
O  O215  1  0.98027647  0.13573356  0.72750402  1  -1.184395  0  -0.306294  -0.539271  0  2.254384  0
O  O216  1  0.59147929  0.70658274  0.86530906  1  -1.172264  0  -0.319559  -0.550456  0  2.273613  0
O  O217  1  0.90852511  0.79341801  0.36530614  1  -1.172108  0  -0.31965  -0.550529  0  2.273694  0
O  O218  1  0.40852104  0.29339949  0.13469846  1  -1.172039  0  -0.319537  -0.550491  0  2.273805  0
O  O219  1  0.09148055  0.20659271  0.63469873  1  -1.172254  0  -0.319522  -0.55036  0  2.274021  0
