# generated using pymatgen
data_CuH36C46S2N8(OF)6
_symmetry_space_group_name_H-M   'P 1'
_cell_length_a   9.11791527
_cell_length_b   11.23121740
_cell_length_c   12.16965614
_cell_angle_alpha   114.02235208
_cell_angle_beta   104.87734273
_cell_angle_gamma   93.49651473
_symmetry_Int_Tables_number   1
_chemical_formula_structural   CuH36C46S2N8(OF)6
_chemical_formula_sum   'Cu1 H36 C46 S2 N8 O6 F6'
_cell_volume   1080.62906006
_cell_formula_units_Z   1
loop_
 _symmetry_equiv_pos_site_id
 _symmetry_equiv_pos_as_xyz
  1  'x, y, z'
loop_
 _atom_site_type_symbol
 _atom_site_label
 _atom_site_symmetry_multiplicity
 _atom_site_fract_x
 _atom_site_fract_y
 _atom_site_fract_z
 _atom_site_occupancy
 _atom_site_hle17_ddec_charge
 _atom_site_hle17_ddec_spin_density
 _atom_site_hle17_ddec_sum_bond_order
 _atom_site_hle17_magmom
 _atom_site_hse06_10hf_ddec_charge
 _atom_site_hse06_10hf_ddec_spin_density
 _atom_site_hse06_10hf_ddec_sum_bond_order
 _atom_site_hse06_10hf_magmom
 _atom_site_hse06_ddec_charge
 _atom_site_hse06_ddec_spin_density
 _atom_site_hse06_ddec_sum_bond_order
 _atom_site_hse06_magmom
 _atom_site_pbe_cm5_charge
 _atom_site_pbe_ddec_charge
 _atom_site_pbe_ddec_spin_density
 _atom_site_pbe_ddec_sum_bond_order
 _atom_site_pbe_magmom
Cu  Cu0  1  0.99999923  0.50000049  0.50000137  1  0.835561  0.693647  1.776625  0.523  0.800729  0.771789  2.151338  0.624  0.877079  0.830077  2.101381  0.698  0.784852  0.754178  0.732336  2.185045  0.577
H  H1  1  0.83082702  0.72731544  0.55265770  1  0.096193  8.3e-05  0.988444  0.001  0.102665  9.4e-05  1.057422  0.0  0.104682  3.5e-05  1.05333  0.0  0.135528  0.101187  0.000142  1.060103  0.0
H  H2  1  0.16917241  0.27268763  0.44735062  1  0.096216  8.7e-05  0.988379  0.001  0.102688  9.4e-05  1.057362  0.0  0.104701  3.5e-05  1.053283  0.0  0.135534  0.101209  0.000142  1.060049  0.0
H  H3  1  0.21645958  0.74922658  0.54516001  1  0.093903  9.2e-05  0.986093  0.0  0.101606  0.000146  1.054037  0.0  0.103688  8.6e-05  1.050063  0.0  0.135478  0.099908  0.000229  1.056981  0.0
H  H4  1  0.78353719  0.25076964  0.45483776  1  0.093958  9.6e-05  0.986072  0.0  0.101631  0.000146  1.054035  0.0  0.103712  8.6e-05  1.050059  0.0  0.135479  0.099933  0.000229  1.056981  0.0
H  H5  1  0.79704688  0.38576516  0.18812611  1  0.117652  0.000281  0.954825  0.0  0.127912  0.000162  1.014603  0.0  0.130269  9.1e-05  1.013737  0.0  0.10415  0.126338  0.00023  1.014957  0.0
H  H6  1  0.20294741  0.61423008  0.81187080  1  0.117682  0.000285  0.954811  0.0  0.127939  0.000161  1.014588  0.0  0.130294  9.1e-05  1.013723  0.0  0.104168  0.126361  0.00023  1.014946  0.0
H  H7  1  0.27337690  0.52648779  0.30578219  1  0.104468  0.000407  0.979192  0.001  0.111555  0.000273  1.046221  0.0  0.113943  0.000164  1.045972  0.0  0.102597  0.110307  0.000358  1.04582  0.001
H  H8  1  0.72662572  0.47351434  0.69422144  1  0.104533  0.000403  0.97916  0.001  0.111601  0.000274  1.046203  0.0  0.11399  0.000163  1.045952  0.0  0.102622  0.110354  0.000358  1.045805  0.001
H  H9  1  0.66916851  0.23089660  0.28610080  1  0.105171  0.000307  0.995353  0.0  0.112883  0.000196  1.062097  0.0  0.115667  0.000137  1.059764  0.0  0.098212  0.110906  0.000261  1.063546  0.0
H  H10  1  0.33083840  0.76910956  0.71390028  1  0.105163  0.000308  0.995354  0.0  0.112867  0.000197  1.062119  0.0  0.11565  0.000137  1.059788  0.0  0.098191  0.110887  0.000261  1.063573  0.0
H  H11  1  0.29736682  0.92700830  0.50034273  1  0.098608  -8e-06  0.917663  0.0  0.115222  2.9e-05  0.975142  0.0  0.115781  1.8e-05  0.975751  0.0  0.11876  0.114754  2.6e-05  0.974873  0.0
H  H12  1  0.70262700  0.07298995  0.49965279  1  0.098639  -7e-06  0.917631  0.0  0.115196  2.9e-05  0.975167  0.0  0.115753  1.9e-05  0.975785  0.0  0.118756  0.114723  2.6e-05  0.974892  0.0
H  H13  1  0.17433643  0.94321280  0.37059939  1  0.104458  0.000147  0.928611  0.0  0.118856  7e-05  0.989049  0.0  0.120417  3.8e-05  0.987109  0.0  0.117061  0.117786  0.000118  0.990258  0.0
H  H14  1  0.82565764  0.05678149  0.62939383  1  0.104453  0.000146  0.928687  0.0  0.11889  7e-05  0.989063  0.0  0.120456  3.8e-05  0.987119  0.0  0.117054  0.117808  0.000118  0.990267  0.0
H  H15  1  0.39046628  0.13653784  0.17922792  1  0.091706  -3.2e-05  0.958798  0.0  0.100615  -3.1e-05  1.023754  0.0  0.103097  -2.9e-05  1.022672  0.0  0.094776  0.098801  -3.3e-05  1.024606  0.0
H  H16  1  0.60953906  0.86346634  0.82077209  1  0.091739  -5.3e-05  0.95867  0.0  0.100637  -3.1e-05  1.023654  0.0  0.10312  -2.9e-05  1.022571  0.0  0.09479  0.098819  -3.3e-05  1.024507  0.0
H  H17  1  0.61726214  0.84414512  0.55481095  1  0.099475  3.6e-05  0.916116  0.0  0.118444  4.1e-05  0.973576  0.0  0.118358  2.5e-05  0.974766  0.0  0.122163  0.118564  2.7e-05  0.972903  0.0
H  H18  1  0.38273752  0.15585902  0.44519124  1  0.099477  3.3e-05  0.91611  0.0  0.118455  4.1e-05  0.973558  0.0  0.118369  2.5e-05  0.974747  0.0  0.122182  0.118581  2.7e-05  0.972889  0.0
H  H19  1  0.42909815  0.75296073  0.50019621  1  0.072026  8.9e-05  0.972756  0.0  0.083115  8.2e-05  1.046628  0.0  0.083325  4.8e-05  1.046739  0.0  0.109259  0.082917  7.3e-05  1.046607  0.0
H  H20  1  0.57090356  0.24704244  0.49980518  1  0.071998  7.6e-05  0.972744  0.0  0.083093  8.2e-05  1.046609  0.0  0.083304  4.8e-05  1.046718  0.0  0.109265  0.082903  7.3e-05  1.046591  0.0
H  H21  1  0.02146010  0.76829361  0.12721024  1  0.113832  0.000453  0.957235  0.001  0.121205  0.000285  1.022468  0.0  0.123837  0.000183  1.021311  0.0  0.104127  0.11937  0.000367  1.023194  0.0
H  H22  1  0.97853371  0.23170459  0.87278936  1  0.113853  0.00045  0.9573  0.001  0.12121  0.000285  1.022539  0.0  0.123841  0.000183  1.021391  0.0  0.10413  0.119406  0.000367  1.023238  0.0
H  H23  1  0.24644910  0.93191252  0.20314757  1  0.104126  -6e-06  0.986253  0.0  0.112115  3e-06  1.054612  0.0  0.11497  0.0  1.052692  0.0  0.096931  0.110009  1e-05  1.05626  0.0
H  H24  1  0.75354724  0.06808176  0.79684609  1  0.104207  -1.4e-05  0.986214  0.0  0.112128  3e-06  1.05465  0.0  0.114978  0.0  1.052726  0.0  0.096945  0.110026  1e-05  1.0563  0.0
H  H25  1  0.19453283  0.28043301  0.18872192  1  0.101433  -2.8e-05  0.943941  0.0  0.111952  -9e-06  1.003085  0.0  0.114698  -6e-06  1.001743  0.0  0.100554  0.109661  -7e-06  1.004573  0.0
H  H26  1  0.80547454  0.71957013  0.81128137  1  0.101392  -8e-06  0.943887  0.0  0.111879  -8e-06  1.003072  0.0  0.114638  -6e-06  1.001717  0.0  0.100521  0.109589  -7e-06  1.00456  0.0
H  H27  1  0.69887787  0.73240143  0.31155197  1  0.090407  -3.4e-05  0.962246  0.0  0.100971  -1.5e-05  1.023047  0.0  0.103312  -1.6e-05  1.023196  0.0  0.099168  0.099477  -1.6e-05  1.022643  0.0
H  H28  1  0.30112475  0.26760070  0.68845167  1  0.090376  -3.3e-05  0.96232  0.0  0.10095  -1.5e-05  1.023097  0.0  0.103293  -1.5e-05  1.023245  0.0  0.099159  0.099456  -1.6e-05  1.02269  0.0
H  H29  1  0.65724792  0.79018144  0.13307580  1  0.088367  -2e-06  0.960936  0.0  0.095202  -3e-06  1.026668  0.0  0.097789  -2e-06  1.025695  0.0  0.09574  0.093452  -3e-06  1.027299  0.0
H  H30  1  0.34275317  0.20981378  0.86692241  1  0.08837  -1.9e-05  0.960926  0.0  0.095206  -3e-06  1.026661  0.0  0.097794  -2e-06  1.025688  0.0  0.095728  0.093457  -3e-06  1.027288  0.0
H  H31  1  0.69354269  0.40551821  0.98659638  1  0.09056  -2.1e-05  0.96773  0.0  0.100968  -2e-05  1.027344  0.0  0.103054  -2e-05  1.028024  0.0  0.096505  0.099316  -1.8e-05  1.027322  0.0
H  H32  1  0.30645407  0.59447799  0.01340302  1  0.090623  -2.1e-05  0.967699  0.0  0.100997  -1.9e-05  1.027352  0.0  0.103087  -2.1e-05  1.028028  0.0  0.096498  0.099341  -1.8e-05  1.027327  0.0
H  H33  1  0.80231191  0.59358509  0.95766058  1  0.086832  -2.8e-05  0.964774  0.0  0.098202  -1.2e-05  1.025042  0.0  0.10037  -1.1e-05  1.025051  0.0  0.09705  0.096724  -8e-06  1.025016  0.0
H  H34  1  0.19768259  0.40641113  0.04233757  1  0.086829  -2.1e-05  0.964778  0.0  0.098231  -1.2e-05  1.025007  0.0  0.100402  -1.1e-05  1.025018  0.0  0.097048  0.09675  -8e-06  1.024977  0.0
H  H35  1  0.42929643  0.89062958  0.07730914  1  0.089784  -1e-06  0.973302  0.0  0.09394  -1e-06  1.043387  0.0  0.097849  -1e-06  1.040161  0.0  0.09022  0.091774  -2e-06  1.044856  0.0
H  H36  1  0.57070173  0.10936269  0.92268574  1  0.089775  5e-06  0.973341  0.0  0.093917  -1e-06  1.043439  0.0  0.097824  -2e-06  1.040215  0.0  0.090225  0.091751  -2e-06  1.044906  0.0
C  C37  1  0.74530541  0.63880120  0.48781193  1  0.207537  -0.012162  3.658298  -0.007  0.144112  -0.004686  3.938119  -0.002  0.163743  -0.006124  3.948495  -0.003  0.159668  0.131259  -0.003696  3.930793  -0.002
C  C38  1  0.25469651  0.36120290  0.51219397  1  0.207637  -0.012218  3.658146  -0.007  0.144204  -0.004687  3.937993  -0.002  0.163833  -0.006128  3.948368  -0.003  0.159706  0.131348  -0.003696  3.930664  -0.002
C  C39  1  0.14335166  0.70172522  0.44791302  1  0.193344  -0.009999  3.682002  -0.006  0.130021  -0.003331  3.964516  -0.001  0.149856  -0.004699  3.973659  -0.002  0.153575  0.117053  -0.002306  3.958101  -0.001
C  C40  1  0.85664533  0.29827201  0.55208436  1  0.193232  -0.010029  3.682004  -0.006  0.129995  -0.003333  3.964496  -0.001  0.149841  -0.004698  3.973629  -0.002  0.153537  0.117026  -0.002306  3.958088  -0.001
C  C41  1  0.51539230  0.51436790  0.36868754  1  0.100629  0.005328  3.775157  0.006  0.090975  0.00313  4.014764  0.004  0.094547  0.00239  4.036532  0.003  0.092911  0.088222  0.00373  4.000694  0.005
C  C42  1  0.48460941  0.48563527  0.63131385  1  0.100613  0.005264  3.775254  0.006  0.091093  0.003131  4.014706  0.004  0.094666  0.002387  4.036473  0.003  0.092921  0.08834  0.00373  4.000639  0.005
C  C43  1  0.62912337  0.43320244  0.36698297  1  0.144753  0.003667  3.792381  0.004  0.146665  0.003394  4.041005  0.004  0.151675  0.002237  4.064663  0.003  0.086806  0.143366  0.004266  4.02494  0.005
C  C44  1  0.37088239  0.56680368  0.63302116  1  0.144799  0.003729  3.792259  0.005  0.146652  0.003394  4.040901  0.004  0.151664  0.002239  4.064557  0.003  0.086745  0.143353  0.004267  4.024837  0.005
C  C45  1  0.02843011  0.67492613  0.25344836  1  0.09695  0.005033  3.762192  0.006  0.087118  0.002831  4.003509  0.004  0.090195  0.002173  4.026474  0.003  0.092235  0.085188  0.003299  3.98762  0.004
C  C46  1  0.97156007  0.32507107  0.74655098  1  0.096894  0.004986  3.762203  0.006  0.087094  0.00283  4.003538  0.004  0.090178  0.002174  4.026497  0.003  0.09217  0.085163  0.003299  3.987667  0.004
C  C47  1  0.96443412  0.56900150  0.27251282  1  0.141092  0.002087  3.798236  0.003  0.143457  0.001976  4.047235  0.002  0.147986  0.001  4.070904  0.001  0.084546  0.140408  0.00274  4.031518  0.003
C  C48  1  0.03555719  0.43099569  0.72748756  1  0.141164  0.002149  3.798092  0.003  0.14353  0.001978  4.047109  0.002  0.148058  0.000996  4.070776  0.001  0.084638  0.140481  0.002739  4.03139  0.003
C  C49  1  0.84404114  0.46914160  0.17567655  1  -0.131009  0.000594  3.721386  0.001  -0.151635  0.000349  3.968656  0.001  -0.154201  0.00034  3.988993  0.001  -0.093034  -0.150072  0.000375  3.954732  0.001
C  C50  1  0.15595174  0.53085754  0.82432653  1  -0.130995  0.000518  3.72131  0.001  -0.151619  0.000351  3.96857  0.001  -0.154183  0.000339  3.988908  0.001  -0.093045  -0.150055  0.000375  3.954642  0.001
C  C51  1  0.35885134  0.46282264  0.30371627  1  -0.136127  -0.000324  3.747406  0.0  -0.155565  0.000195  4.003391  0.0  -0.157511  -5.6e-05  4.022633  0.0  -0.09499  -0.154736  0.000393  3.990397  0.001
C  C52  1  0.64115312  0.53717754  0.69628450  1  -0.136257  -0.000161  3.747405  0.0  -0.155734  0.000195  4.003368  0.0  -0.15768  -5.3e-05  4.022611  0.0  -0.095053  -0.154907  0.000393  3.990382  0.001
C  C53  1  0.58443649  0.29542364  0.29518053  1  -0.15692  0.000403  3.751483  0.0  -0.174971  0.000286  4.000571  0.0  -0.178142  0.000281  4.020639  0.0  -0.099681  -0.171886  0.000303  3.986115  0.0
C  C54  1  0.41557085  0.70458446  0.70482466  1  -0.156985  0.000306  3.751494  0.0  -0.175038  0.000288  4.000612  0.0  -0.17821  0.000279  4.020678  0.0  -0.099753  -0.171955  0.000302  3.986148  0.0
C  C55  1  0.36623470  0.85331972  0.32769615  1  0.009556  -0.000269  3.726093  0.0  0.024775  -0.000168  3.967276  0.0  0.022266  -0.000165  3.993216  0.0  -0.019377  0.026556  -0.0001  3.949343  0.0
C  C56  1  0.63375871  0.14667158  0.67229661  1  0.009409  -0.000422  3.726359  0.0  0.024692  -0.000163  3.967419  0.0  0.022189  -0.000172  3.993356  0.0  -0.019398  0.026469  -0.0001  3.949477  0.0
C  C57  1  0.49587969  0.79760844  0.35936347  1  0.013368  -0.000172  3.724196  0.0  0.027572  -3.7e-05  3.967108  0.0  0.026538  -6.2e-05  3.991246  0.0  -0.017303  0.028442  1.4e-05  3.950488  0.0
C  C58  1  0.50411865  0.20238975  0.64063618  1  0.013413  -6e-05  3.724325  0.0  0.027611  -4.2e-05  3.967223  0.0  0.026573  -5.4e-05  3.991365  0.0  -0.017296  0.028488  1.4e-05  3.950615  0.0
C  C59  1  0.24612372  0.87814041  0.39697371  1  -0.039286  0.000593  3.62741  0.001  -0.104949  0.000488  3.874393  0.001  -0.099781  0.000365  3.884066  0.001  -0.046803  -0.108365  0.00057  3.867649  0.001
C  C60  1  0.75387079  0.12185585  0.60302117  1  -0.039372  0.000596  3.627705  0.001  -0.104995  0.000487  3.874652  0.001  -0.099835  0.000365  3.884341  0.001  -0.046794  -0.108364  0.00057  3.867853  0.001
C  C61  1  0.42763396  0.24361255  0.23266091  1  -0.06373  -0.001301  3.763988  -0.001  -0.083522  -0.000627  4.024751  0.0  -0.08528  -0.000683  4.04718  0.0  -0.098323  -0.082243  -0.000522  4.008902  0.0
C  C62  1  0.57237321  0.75638966  0.76733705  1  -0.06371  -0.001093  3.763917  -0.001  -0.083497  -0.000633  4.024652  0.0  -0.085257  -0.000677  4.047088  0.0  -0.098263  -0.082215  -0.000522  4.008804  0.0
C  C63  1  0.53115793  0.76468028  0.47145705  1  -0.027554  0.000462  3.651723  0.001  -0.096318  0.000364  3.902882  0.0  -0.091177  0.000266  3.913869  0.0  -0.04361  -0.099897  0.000465  3.895641  0.001
C  C64  1  0.46884334  0.23532090  0.52854349  1  -0.027385  0.000499  3.651544  0.001  -0.096183  0.000364  3.90274  0.0  -0.091039  0.000266  3.913724  0.0  -0.043616  -0.099791  0.000465  3.895537  0.001
C  C65  1  0.97299538  0.68621161  0.14065639  1  -0.136518  -0.000454  3.747314  0.0  -0.157811  0.000102  4.005504  0.0  -0.161001  -0.000135  4.026685  0.0  -0.09239  -0.155615  0.000325  3.990934  0.0
C  C66  1  0.02699842  0.31378657  0.85934403  1  -0.13664  -0.00035  3.747394  0.0  -0.157925  0.000103  4.005631  0.0  -0.161123  -0.000131  4.02682  0.0  -0.092438  -0.15576  0.000324  3.991053  0.0
C  C67  1  0.34528189  0.88686904  0.22629406  1  -0.125519  0.000305  3.759185  0.0  -0.148218  5.9e-05  4.012519  0.0  -0.15082  2.7e-05  4.035568  0.0  -0.096135  -0.146325  8.9e-05  3.996911  0.0
C  C68  1  0.65471514  0.11312324  0.77369978  1  -0.125535  0.000405  3.759078  0.0  -0.148198  6.1e-05  4.012416  0.0  -0.150782  3e-05  4.035431  0.0  -0.096117  -0.146312  8.9e-05  3.996822  0.0
C  C69  1  0.31614110  0.32540024  0.23725686  1  -0.062113  0.000476  3.759552  0.001  -0.081301  6.8e-05  4.019695  0.0  -0.083111  0.000165  4.040861  0.0  -0.095175  -0.079127  9e-06  4.004778  0.0
C  C70  1  0.68386310  0.67460390  0.76274620  1  -0.062003  0.000341  3.759402  0.0  -0.081152  6.9e-05  4.019524  0.0  -0.082978  0.000163  4.040695  0.0  -0.095099  -0.078974  9e-06  4.004598  0.0
C  C71  1  0.59843461  0.77561582  0.28791423  1  -0.107644  0.000197  3.741839  0.0  -0.127128  1.5e-05  3.987343  0.0  -0.129821  7e-06  4.008437  0.0  -0.092758  -0.124782  -1.5e-05  3.972408  0.0
C  C72  1  0.40156893  0.22438532  0.71208920  1  -0.107633  0.000107  3.741934  0.0  -0.127119  2e-05  3.987431  0.0  -0.129815  -1e-06  4.008529  0.0  -0.09274  -0.12477  -1.5e-05  3.972495  0.0
C  C73  1  0.17247946  0.97173670  0.90521639  1  0.597872  -4.9e-05  3.663715  0.0  0.525193  -3.1e-05  4.034106  0.0  0.554501  -4.6e-05  4.005025  0.0  0.291038  0.50502  -4.4e-05  4.053753  0.0
C  C74  1  0.82753085  0.02826944  0.09478615  1  0.597841  -3.9e-05  3.663764  0.0  0.525303  -3.1e-05  4.033955  0.0  0.554636  -4.2e-05  4.004819  0.0  0.29113  0.505129  -4.4e-05  4.053603  0.0
C  C75  1  0.57526745  0.80805781  0.18659017  1  -0.039101  0.000194  3.765178  0.0  -0.051725  4.6e-05  4.012843  0.0  -0.052034  2.1e-05  4.032817  0.0  -0.085388  -0.051746  9e-05  3.999491  0.0
C  C76  1  0.42473429  0.19194038  0.81341014  1  -0.039134  0.000309  3.765291  0.0  -0.051767  4.3e-05  4.012976  0.0  -0.052076  2.5e-05  4.032949  0.0  -0.085423  -0.051784  9e-05  3.999622  0.0
C  C77  1  0.78804982  0.48100094  0.06348376  1  -0.074311  -0.001333  3.775173  -0.001  -0.087718  -0.000669  4.025369  0.0  -0.090108  -0.000768  4.048033  0.0  -0.095301  -0.086099  -0.000568  4.010623  0.0
C  C78  1  0.21194127  0.51899526  0.93651538  1  -0.074358  -0.001239  3.775441  -0.001  -0.087745  -0.000676  4.025657  0.0  -0.090138  -0.000763  4.048322  0.0  -0.095303  -0.086122  -0.000567  4.010899  0.0
C  C79  1  0.85067471  0.58789607  0.04668104  1  -0.061974  0.00066  3.776591  0.001  -0.077836  0.000192  4.029649  0.0  -0.07945  0.000285  4.052018  0.0  -0.092956  -0.076898  0.000114  4.014961  0.0
C  C80  1  0.14931569  0.41210215  0.95331628  1  -0.06192  0.000594  3.776676  0.001  -0.0778  0.000194  4.029713  0.0  -0.079419  0.000282  4.052089  0.0  -0.092893  -0.076857  0.000114  4.015026  0.0
C  C81  1  0.44827749  0.86445940  0.15598688  1  -0.070223  -0.000131  3.77849  0.0  -0.085955  -2.3e-05  4.034099  0.0  -0.088429  -2.5e-05  4.05471  0.0  -0.096902  -0.08417  -1.1e-05  4.019609  0.0
C  C82  1  0.55172291  0.13553781  0.84401197  1  -0.070195  -0.000309  3.778546  0.0  -0.08591  -2.4e-05  4.03414  0.0  -0.088385  -2.8e-05  4.054754  0.0  -0.0969  -0.084124  -1.1e-05  4.019652  0.0
S  S83  1  0.05938473  0.88915703  0.73412242  1  1.10754  -7e-05  5.856219  0.0  1.011545  -9.6e-05  6.39593  0.0  1.055942  -8.6e-05  6.372112  0.0  0.478941  0.981435  -9.3e-05  6.411345  0.0
S  S84  1  0.94062265  0.11084612  0.26588005  1  1.107532  -7.8e-05  5.856243  0.0  1.011527  -9.1e-05  6.395928  0.0  1.055915  -8.4e-05  6.372102  0.0  0.478928  0.981417  -9.3e-05  6.411342  0.0
N  N85  1  0.59417531  0.64369026  0.44634906  1  -0.111761  -0.00029  3.546644  0.001  -0.021111  0.000187  3.763538  0.001  -0.038044  -0.000316  3.787537  0.0  -0.24005  -0.01004  0.000555  3.747501  0.001
N  N86  1  0.40582390  0.35631186  0.55365555  1  -0.111902  -0.000278  3.546651  0.001  -0.021267  0.000185  3.763523  0.001  -0.038201  -0.000313  3.787522  0.0  -0.240023  -0.010187  0.000555  3.747497  0.001
N  N87  1  0.77248517  0.51574185  0.44363826  1  -0.39719  0.081611  3.220209  0.107  -0.364875  0.057087  3.535694  0.079  -0.397238  0.046419  3.555908  0.069  -0.359733  -0.344342  0.064038  3.522348  0.084
N  N88  1  0.22751719  0.48426426  0.55636604  1  -0.397262  0.081629  3.220088  0.107  -0.364951  0.057085  3.535612  0.079  -0.397314  0.046418  3.555822  0.069  -0.359726  -0.344416  0.064036  3.522265  0.084
N  N89  1  0.04031357  0.58988514  0.39623010  1  -0.40484  0.077167  3.280569  0.101  -0.370829  0.052511  3.599679  0.072  -0.402975  0.04295  3.61853  0.063  -0.375699  -0.351265  0.058316  3.587891  0.077
N  N90  1  0.95968342  0.41011206  0.60376973  1  -0.404878  0.077161  3.280624  0.101  -0.37088  0.052509  3.59972  0.072  -0.403031  0.042949  3.618572  0.063  -0.375699  -0.351315  0.058312  3.587934  0.077
N  N91  1  0.14279766  0.75606049  0.36681328  1  -0.104756  0.000255  3.499737  0.001  -0.015662  0.000466  3.719646  0.001  -0.031859  -8.4e-05  3.741943  0.001  -0.237215  -0.004644  0.00076  3.703832  0.001
N  N92  1  0.85719570  0.24393573  0.63318465  1  -0.104597  0.000274  3.499768  0.001  -0.015612  0.000464  3.719756  0.001  -0.031815  -8.5e-05  3.742057  0.001  -0.237197  -0.004602  0.00076  3.703935  0.001
O  O93  1  0.06655759  0.74886692  0.70015609  1  -0.632679  -0.001187  2.005817  0.0  -0.60563  -0.001327  2.278205  0.0  -0.624361  -0.001487  2.262174  0.0  -0.341465  -0.592861  -0.001125  2.289442  0.0
O  O94  1  0.93344595  0.25113423  0.29984652  1  -0.6327  -0.001187  2.005841  0.0  -0.605656  -0.001326  2.278241  0.0  -0.624389  -0.001488  2.262212  0.0  -0.341502  -0.592887  -0.001125  2.289478  0.0
O  O95  1  0.90575425  0.92038700  0.73190558  1  -0.607799  0.000104  1.994049  0.0  -0.575557  8.1e-05  2.249172  0.0  -0.593166  5.8e-05  2.236088  0.0  -0.337567  -0.563431  0.000111  2.257908  0.0
O  O96  1  0.09424724  0.07961514  0.26809702  1  -0.607787  0.000108  1.994219  0.0  -0.575547  8e-05  2.249352  0.0  -0.593156  5.6e-05  2.23627  0.0  -0.337563  -0.563421  0.000111  2.258091  0.0
O  O97  1  0.14323358  0.94982922  0.67735028  1  -0.597048  -3.1e-05  1.965792  0.0  -0.567242  -2.7e-05  2.207948  0.0  -0.584835  -3.7e-05  2.1969  0.0  -0.342816  -0.554691  -1.9e-05  2.214308  0.0
O  O98  1  0.85676268  0.05017494  0.32265045  1  -0.597043  -3.7e-05  1.965603  0.0  -0.567242  -2.5e-05  2.207769  0.0  -0.584827  -3.5e-05  2.196708  0.0  -0.342789  -0.55469  -1.9e-05  2.214126  0.0
F  F99  1  0.16447592  0.10246476  0.95712478  1  -0.230292  -3e-06  1.233105  0.0  -0.185014  -1.4e-05  1.405071  0.0  -0.194615  -1.8e-05  1.39023  0.0  -0.081532  -0.177498  -9e-06  1.414768  0.0
F  F100  1  0.83552580  0.89753841  0.04287579  1  -0.230248  -4e-06  1.233175  0.0  -0.184986  -1.9e-05  1.405103  0.0  -0.194592  -1.7e-05  1.390249  0.0  -0.081489  -0.17747  -9e-06  1.414794  0.0
F  F101  1  0.32451326  0.96293412  0.92136481  1  -0.23608  1.1e-05  1.215101  0.0  -0.185974  9e-06  1.379954  0.0  -0.201584  4e-06  1.371232  0.0  -0.084043  -0.178599  7e-06  1.389953  0.0
F  F102  1  0.67549703  0.03707707  0.07863310  1  -0.236094  1.3e-05  1.215005  0.0  -0.186048  6e-06  1.37985  0.0  -0.201667  6e-06  1.371117  0.0  -0.084139  -0.178673  7e-06  1.38985  0.0
F  F103  1  0.12081001  0.91513162  0.97102721  1  -0.224988  2.5e-05  1.207382  0.0  -0.182671  1.8e-05  1.373819  0.0  -0.191346  2.1e-05  1.357895  0.0  -0.090195  -0.175961  2e-05  1.384495  0.0
F  F104  1  0.87920671  0.08486759  0.02897143  1  -0.224923  2.3e-05  1.207291  0.0  -0.182714  2.2e-05  1.373747  0.0  -0.191393  1.9e-05  1.357813  0.0  -0.090222  -0.176004  2e-05  1.384425  0.0
