# generated using pymatgen
data_MnH22C26(N2O3)2
_symmetry_space_group_name_H-M   'P 1'
_cell_length_a   5.09187307
_cell_length_b   7.34711560
_cell_length_c   14.62181989
_cell_angle_alpha   98.48231049
_cell_angle_beta   89.19232731
_cell_angle_gamma   94.72000474
_symmetry_Int_Tables_number   1
_chemical_formula_structural   MnH22C26(N2O3)2
_chemical_formula_sum   'Mn1 H22 C26 N4 O6'
_cell_volume   539.19141903
_cell_formula_units_Z   1
loop_
 _symmetry_equiv_pos_site_id
 _symmetry_equiv_pos_as_xyz
  1  'x, y, z'
loop_
 _atom_site_type_symbol
 _atom_site_label
 _atom_site_symmetry_multiplicity
 _atom_site_fract_x
 _atom_site_fract_y
 _atom_site_fract_z
 _atom_site_occupancy
 _atom_site_hle17_ddec_charge
 _atom_site_hle17_ddec_spin_density
 _atom_site_hle17_ddec_sum_bond_order
 _atom_site_hle17_magmom
 _atom_site_hse06_10hf_ddec_charge
 _atom_site_hse06_10hf_ddec_spin_density
 _atom_site_hse06_10hf_ddec_sum_bond_order
 _atom_site_hse06_10hf_magmom
 _atom_site_hse06_ddec_charge
 _atom_site_hse06_ddec_spin_density
 _atom_site_hse06_ddec_sum_bond_order
 _atom_site_hse06_magmom
 _atom_site_pbe_cm5_charge
 _atom_site_pbe_ddec_charge
 _atom_site_pbe_ddec_spin_density
 _atom_site_pbe_ddec_sum_bond_order
 _atom_site_pbe_magmom
Mn  Mn0  1  0.49999618  0.49999577  0.50000507  1  1.157835  -4.791292  1.813889  -4.678  0.995247  -4.705475  2.31396  -4.526  1.046866  -4.756411  2.246732  -4.597  0.613646  0.959654  -4.643539  2.362495  -4.443
H  H1  1  0.11394460  0.54649964  0.05369490  1  0.082767  -2e-06  0.981617  0.0  0.095337  -1e-06  1.044064  0.0  0.097445  -1e-06  1.043216  0.0  0.100883  0.093838  -0.0  1.044674  0.0
H  H2  1  0.88606487  0.45352000  0.94630735  1  0.082662  2e-06  0.981606  0.0  0.095193  -1e-06  1.04415  0.0  0.097296  -1e-06  1.043299  0.0  0.100788  0.093696  -0.0  1.044759  0.0
H  H3  1  0.06759538  0.86378389  0.12664687  1  0.10627  -0.0  0.964266  0.0  0.119839  -2.7e-05  1.021272  0.0  0.12246  -2.1e-05  1.020869  0.0  0.108601  0.117961  -3.4e-05  1.021695  0.0
H  H4  1  0.93240370  0.13622745  0.87335192  1  0.106176  -2e-06  0.964443  0.0  0.119771  -2.7e-05  1.021393  0.0  0.122394  -2.1e-05  1.020989  0.0  0.108589  0.117892  -3.4e-05  1.021817  0.0
H  H5  1  0.68846826  0.81605036  0.31864335  1  0.112066  0.000198  0.967515  0.0  0.121338  0.000111  1.031491  0.0  0.124079  0.000178  1.030436  0.0  0.110129  0.119251  -1e-06  1.032548  0.0
H  H6  1  0.31156122  0.18397759  0.68136512  1  0.112007  0.000197  0.967592  0.0  0.121272  0.000111  1.03155  0.0  0.124009  0.000178  1.030487  0.0  0.110102  0.119196  -1e-06  1.032607  0.0
H  H7  1  0.74770334  0.50434166  0.23915724  1  0.106851  0.000147  0.94813  0.0  0.114627  0.000156  1.013185  0.0  0.117964  0.000169  1.010754  0.0  0.110602  0.112091  0.000138  1.015083  0.0
H  H8  1  0.25235622  0.49566485  0.76084070  1  0.106895  0.000141  0.94829  0.0  0.114643  0.000156  1.013367  0.0  0.117967  0.000169  1.010949  0.0  0.110591  0.11211  0.000138  1.015266  0.0
H  H9  1  0.31017894  0.07230322  0.00451149  1  0.13892  1.6e-05  0.959049  0.0  0.155405  -3e-06  1.02334  0.0  0.158743  -3e-06  1.021043  0.0  0.095165  0.152947  -2e-06  1.025091  0.0
H  H10  1  0.68986109  0.92770182  0.99548284  1  0.138911  1.6e-05  0.959076  0.0  0.155411  -3e-06  1.023364  0.0  0.158749  -3e-06  1.02107  0.0  0.095147  0.152952  -2e-06  1.025113  0.0
H  H11  1  0.27560607  0.28775963  0.96644014  1  0.121894  -2e-06  0.979042  0.0  0.141046  -1.5e-05  1.045204  0.0  0.141764  -8e-06  1.047455  0.0  0.093587  0.140431  -3.8e-05  1.043746  0.0
H  H12  1  0.72441814  0.71227118  0.03356375  1  0.121882  7e-06  0.978765  0.0  0.141027  -1.5e-05  1.04493  0.0  0.141753  -8e-06  1.04717  0.0  0.093557  0.14041  -3.8e-05  1.043477  0.0
H  H13  1  0.06754398  0.22110723  0.05604655  1  0.141345  1.3e-05  0.971315  0.0  0.15861  0.0  1.036285  0.0  0.161127  6e-06  1.035151  0.0  0.096857  0.156743  -1.6e-05  1.037198  0.0
H  H14  1  0.93246779  0.77891127  0.94394945  1  0.141408  6e-06  0.971291  0.0  0.158735  0.0  1.036184  0.0  0.161252  6e-06  1.035049  0.0  0.096913  0.15687  -1.6e-05  1.037091  0.0
H  H15  1  0.97013430  0.09987703  0.20994574  1  0.12192  -0.00018  0.977339  0.0  0.129767  -0.000239  1.040927  0.0  0.132931  -0.000186  1.03888  0.0  0.121839  0.127624  -0.000287  1.042343  0.0
H  H16  1  0.02988127  0.90011677  0.79004553  1  0.121762  -0.000183  0.977648  0.0  0.129575  -0.000238  1.041268  0.0  0.132736  -0.000186  1.039224  0.0  0.121785  0.127443  -0.000286  1.042673  0.0
H  H17  1  0.04114982  0.42213521  0.33450146  1  0.119233  0.000429  0.98409  0.0  0.126014  0.000214  1.044047  0.0  0.129715  0.000315  1.041859  0.0  0.121407  0.123327  0.000117  1.045663  0.0
H  H18  1  0.95884047  0.57785362  0.66550641  1  0.119182  0.000429  0.984202  0.0  0.126032  0.000215  1.044067  0.0  0.129728  0.000315  1.041902  0.0  0.121388  0.123346  0.000117  1.045686  0.0
H  H19  1  0.66794423  0.10020689  0.36711129  1  0.086291  0.000405  0.985119  0.0  0.091983  7.9e-05  1.057812  0.0  0.093386  0.000165  1.056597  0.0  0.134098  0.090978  -1.1e-05  1.058694  0.0
H  H20  1  0.33205407  0.89981555  0.63288635  1  0.08634  0.000424  0.985013  0.0  0.092022  8e-05  1.057709  0.0  0.093432  0.000165  1.056486  0.0  0.134054  0.091024  -1.1e-05  1.058579  0.0
H  H21  1  0.29117867  0.07477933  0.51394262  1  0.115794  0.000179  0.967876  0.0  0.119519  -2.8e-05  1.041047  0.0  0.124219  7.9e-05  1.036777  0.0  0.105623  0.116181  -0.000131  1.044318  0.0
H  H22  1  0.70872639  0.92516374  0.48604067  1  0.116133  0.000165  0.967889  0.0  0.119756  -2.8e-05  1.041166  0.0  0.124458  7.8e-05  1.036892  0.0  0.105661  0.116416  -0.000131  1.044438  0.0
C  C23  1  0.43691409  0.50185578  0.14038608  1  -0.091577  -0.000289  3.789705  0.0  -0.070143  -0.000509  4.019646  0.0  -0.079486  -0.000371  4.045979  0.0  -0.028687  -0.064015  -0.000869  4.002006  -0.001
C  C24  1  0.56306760  0.49816080  0.85961581  1  -0.091796  -0.000284  3.78938  0.0  -0.070393  -0.000509  4.019371  0.0  -0.079738  -0.000367  4.045699  0.0  -0.028705  -0.064261  -0.00087  4.001724  -0.001
C  C25  1  0.24384482  0.60565074  0.11071536  1  -0.05185  0.000184  3.752613  0.0  -0.073649  -2.6e-05  3.997619  0.0  -0.072811  0.000116  4.020114  0.0  -0.079272  -0.073958  -0.000312  3.982245  0.0
C  C26  1  0.75615452  0.39436072  0.88928002  1  -0.051668  0.000132  3.751638  0.0  -0.073434  -2.5e-05  3.996647  0.0  -0.072583  0.000111  4.019126  0.0  -0.079142  -0.073745  -0.000313  3.981272  0.0
C  C27  1  0.21491113  0.78520868  0.15244844  1  -0.15395  -0.000372  3.723901  0.0  -0.173436  -0.000531  3.973307  0.0  -0.179712  -0.000436  3.994795  0.0  -0.09022  -0.169328  -0.000689  3.958861  0.0
C  C28  1  0.78506617  0.21476492  0.84755540  1  -0.153884  -0.000333  3.723636  0.0  -0.173339  -0.000533  3.973002  0.0  -0.17962  -0.000433  3.994494  0.0  -0.090176  -0.169214  -0.000689  3.958564  0.0
C  C29  1  0.37428867  0.86329625  0.22780314  1  0.214557  -7.5e-05  3.743275  0.0  0.2057  -0.000252  3.985584  0.0  0.214371  -4.3e-05  4.006211  0.0  0.11203  0.199768  -0.000744  3.971759  -0.001
C  C30  1  0.62573957  0.13669986  0.77220615  1  0.215008  -0.000124  3.743433  0.0  0.206085  -0.00025  3.985811  0.0  0.214756  -4.6e-05  4.006434  0.0  0.112195  0.200114  -0.000743  3.972039  -0.001
C  C31  1  0.56821552  0.76133054  0.25846099  1  -0.141746  -7.7e-05  3.697569  0.0  -0.162414  -0.000221  3.953172  0.0  -0.167987  -8.1e-05  3.973053  0.0  -0.082738  -0.159019  -0.000425  3.940238  0.0
C  C32  1  0.43182092  0.23866448  0.74154209  1  -0.141882  -5.7e-05  3.697464  0.0  -0.162494  -0.000222  3.95303  0.0  -0.16806  -7.9e-05  3.972899  0.0  -0.082773  -0.159098  -0.000426  3.94012  0.0
C  C33  1  0.60000095  0.58405213  0.21438205  1  -0.02809  0.000539  3.714533  0.0  -0.054883  0.000432  3.967575  0.0  -0.052048  0.000513  3.985924  0.0  -0.069752  -0.056664  0.000282  3.955438  0.0
C  C34  1  0.39998238  0.41594362  0.78562293  1  -0.028188  0.000557  3.714375  0.0  -0.054985  0.000432  3.967416  0.0  -0.05214  0.000508  3.985758  0.0  -0.069824  -0.056765  0.000282  3.955285  0.0
C  C35  1  0.46965922  0.30896360  0.09689176  1  0.489375  3.8e-05  3.691276  0.0  0.476206  -0.000133  3.96055  0.0  0.498124  1e-06  3.963856  0.0  0.158965  0.461005  -0.000594  3.958442  0.0
C  C36  1  0.53032690  0.69105721  0.90310912  1  0.489505  3.6e-05  3.691281  0.0  0.476332  -0.000133  3.960543  0.0  0.498254  -0.0  3.963846  0.0  0.158877  0.461135  -0.000595  3.958429  0.0
C  C37  1  0.26793623  0.21558318  0.02731692  1  -0.4445  -2.3e-05  3.668699  0.0  -0.525563  -0.0  3.902997  0.0  -0.531333  -3e-06  3.906534  0.0  -0.255356  -0.521242  -1.3e-05  3.900676  0.0
C  C38  1  0.73205772  0.78440775  0.97267061  1  -0.444714  -2.9e-05  3.668847  0.0  -0.525816  1e-06  3.903164  0.0  -0.531591  -4e-06  3.906691  0.0  -0.255421  -0.521497  -1.3e-05  3.900839  0.0
C  C39  1  0.12546872  0.14645234  0.25963716  1  -0.085447  0.001618  3.672162  0.001  -0.125898  0.000613  3.938286  0.0  -0.126108  0.001071  3.958408  0.0  -0.006395  -0.125287  0.000254  3.924027  0.0
C  C40  1  0.87454412  0.85358779  0.74037361  1  -0.085173  0.001664  3.672742  0.001  -0.125589  0.000616  3.938871  0.0  -0.125786  0.001073  3.958991  0.0  -0.006397  -0.124998  0.000256  3.924615  0.0
C  C41  1  0.16417662  0.30737177  0.31985196  1  0.016802  -0.001779  3.715595  -0.002  -0.0155  -0.002711  3.983604  -0.003  -0.014483  -0.002309  4.00367  -0.003  0.008016  -0.016036  -0.003057  3.969791  -0.003
C  C42  1  0.83582817  0.69264352  0.68015470  1  0.016683  -0.001797  3.71478  -0.002  -0.015671  -0.00272  3.982735  -0.003  -0.014672  -0.002315  4.00282  -0.003  0.008045  -0.016196  -0.003065  3.96892  -0.003
C  C43  1  0.49021674  0.14516359  0.34115926  1  0.186159  -0.005057  3.621668  -0.005  0.12805  -0.007206  3.887088  -0.007  0.142158  -0.005967  3.90004  -0.006  0.155542  0.118961  -0.008939  3.87765  -0.008
C  C44  1  0.50981988  0.85483284  0.65884324  1  0.185696  -0.005125  3.62108  -0.005  0.127624  -0.007228  3.886467  -0.007  0.141726  -0.005987  3.899413  -0.006  0.155338  0.118536  -0.008964  3.877034  -0.008
C  C45  1  0.97587034  0.26325401  0.53906239  1  0.691498  -0.011739  3.878515  -0.012  0.64132  -0.020187  4.171268  -0.018  0.678042  -0.014848  4.16086  -0.014  0.210572  0.61557  -0.026463  4.17808  -0.023
C  C46  1  0.02409131  0.73671813  0.46093853  1  0.691252  -0.011754  3.878628  -0.012  0.641222  -0.020181  4.171216  -0.018  0.677946  -0.014845  4.160808  -0.014  0.210579  0.615473  -0.026457  4.178026  -0.023
C  C47  1  0.07728192  0.07801109  0.51241205  1  -0.183609  -0.002248  3.678087  -0.002  -0.204419  -0.005778  3.941591  -0.004  -0.208171  -0.002974  3.952948  -0.002  -0.093274  -0.203569  -0.010519  3.936521  -0.007
C  C48  1  0.92264041  0.92194872  0.48757266  1  -0.183908  -0.002171  3.678532  -0.002  -0.204697  -0.00578  3.942079  -0.004  -0.208457  -0.002974  3.953441  -0.002  -0.093227  -0.20384  -0.010521  3.937001  -0.007
N  N49  1  0.33425166  0.04209473  0.27352074  1  -0.095412  -0.000961  3.584171  -0.001  -0.006923  -0.002025  3.794164  -0.002  -0.023367  -0.001562  3.820875  -0.002  -0.224128  0.004288  -0.002438  3.775491  -0.002
N  N50  1  0.66582287  0.95793629  0.72649363  1  -0.095263  -0.000948  3.584275  -0.001  -0.006856  -0.002028  3.794348  -0.002  -0.023297  -0.001564  3.821055  -0.002  -0.224021  0.004368  -0.002442  3.775686  -0.002
N  N51  1  0.39197738  0.30508040  0.37027424  1  -0.362759  -0.023947  3.185913  -0.011  -0.297973  -0.028334  3.473767  -0.011  -0.317305  -0.025693  3.487322  -0.009  -0.330622  -0.284251  -0.030519  3.464283  -0.012
N  N52  1  0.60798820  0.69489794  0.62970805  1  -0.362618  -0.023947  3.185107  -0.011  -0.29775  -0.028333  3.472824  -0.011  -0.317078  -0.025692  3.486404  -0.009  -0.330552  -0.284043  -0.03052  3.463363  -0.012
O  O53  1  0.65975983  0.22759150  0.11723135  1  -0.49936  -9.7e-05  1.921653  0.0  -0.452674  -0.000211  2.131689  0.0  -0.470611  -0.000119  2.128755  0.0  -0.271931  -0.44077  -0.000506  2.133942  -0.001
O  O54  1  0.34020765  0.77241679  0.88276570  1  -0.499275  -8.8e-05  1.921557  0.0  -0.452565  -0.000212  2.13158  0.0  -0.4705  -0.000119  2.128641  0.0  -0.271738  -0.440663  -0.000507  2.133834  -0.001
O  O55  1  0.14897033  0.39631872  0.56578458  1  -0.651527  -0.029205  2.047792  -0.017  -0.583071  -0.037669  2.312906  -0.022  -0.611974  -0.03277  2.29841  -0.017  -0.309731  -0.561952  -0.043173  2.322484  -0.027
O  O56  1  0.85103376  0.60362622  0.43421702  1  -0.651483  -0.029196  2.047864  -0.017  -0.583069  -0.03767  2.312916  -0.022  -0.611985  -0.032772  2.298427  -0.017  -0.30978  -0.561949  -0.043173  2.322487  -0.027
O  O57  1  0.72877133  0.27860424  0.53585054  1  -0.640787  -0.032084  2.004433  -0.022  -0.575759  -0.042749  2.269089  -0.029  -0.604478  -0.036995  2.255627  -0.024  -0.308654  -0.554634  -0.049224  2.277629  -0.036
O  O58  1  0.27120037  0.72139410  0.46415598  1  -0.640612  -0.032072  2.004567  -0.022  -0.575749  -0.04275  2.269299  -0.029  -0.604468  -0.036997  2.255842  -0.024  -0.308655  -0.554606  -0.049223  2.277793  -0.036
