# generated using pymatgen
data_CuH8C12N5
_symmetry_space_group_name_H-M   'P 1'
_cell_length_a   7.96648450
_cell_length_b   10.22418267
_cell_length_c   13.11580539
_cell_angle_alpha   90.00002190
_cell_angle_beta   106.06491169
_cell_angle_gamma   90.00017757
_symmetry_Int_Tables_number   1
_chemical_formula_structural   CuH8C12N5
_chemical_formula_sum   'Cu4 H32 C48 N20'
_cell_volume   1026.57463698
_cell_formula_units_Z   4
loop_
 _symmetry_equiv_pos_site_id
 _symmetry_equiv_pos_as_xyz
  1  'x, y, z'
loop_
 _atom_site_type_symbol
 _atom_site_label
 _atom_site_symmetry_multiplicity
 _atom_site_fract_x
 _atom_site_fract_y
 _atom_site_fract_z
 _atom_site_occupancy
 _atom_site_hle17_bader_spin_density
 _atom_site_hle17_ddec_charge
 _atom_site_hle17_ddec_spin_density
 _atom_site_hle17_ddec_sum_bond_order
 _atom_site_hle17_magmom
 _atom_site_hse06_10hf_bader_spin_density
 _atom_site_hse06_10hf_ddec_charge
 _atom_site_hse06_10hf_ddec_spin_density
 _atom_site_hse06_10hf_ddec_sum_bond_order
 _atom_site_hse06_10hf_magmom
 _atom_site_hse06_bader_spin_density
 _atom_site_hse06_ddec_charge
 _atom_site_hse06_ddec_spin_density
 _atom_site_hse06_ddec_sum_bond_order
 _atom_site_hse06_magmom
 _atom_site_pbe_bader_spin_density
 _atom_site_pbe_cm5_charge
 _atom_site_pbe_ddec_charge
 _atom_site_pbe_ddec_spin_density
 _atom_site_pbe_ddec_sum_bond_order
 _atom_site_pbe_magmom
Cu  Cu0  1  0.09544709  0.50705296  0.39251226  1  0  0.451232  0  1.846618  0  0  0.311683  0  2.32759  0  0  0.305689  0  2.291128  0  0  0.568115  0.320589  0  2.348447  0
Cu  Cu1  1  0.40455219  0.00705145  0.10748871  1  0  0.451192  0  1.846614  0  0  0.311643  0  2.327588  0  0  0.305665  0  2.291135  0  0  0.568085  0.320552  0  2.348379  0
Cu  Cu2  1  0.90455139  0.49294823  0.60748738  1  0  0.45118  0  1.846666  0  0  0.311616  0  2.327638  0  0  0.305624  0  2.29114  0  0  0.568118  0.320518  0  2.348592  0
Cu  Cu3  1  0.59544760  0.99294877  0.89251190  1  0  0.451187  0  1.846662  0  0  0.311633  0  2.327633  0  0  0.305642  0  2.291179  0  0  0.568076  0.320559  0  2.348406  0
H  H4  1  0.47058873  0.94167592  0.33445496  1  0  0.072592  0  0.964458  0  0  0.081979  0  1.031087  0  0  0.085142  0  1.027136  0  0  0.110412  0.079638  0  1.034193  0
H  H5  1  0.02940462  0.44167743  0.16554288  1  0  0.072579  0  0.964438  0  0  0.081949  0  1.031091  0  0  0.0851  0  1.027175  0  0  0.110403  0.079608  0  1.034201  0
H  H6  1  0.52941106  0.05832429  0.66554566  1  0  0.072615  0  0.964446  0  0  0.081988  0  1.031079  0  0  0.085151  0  1.027121  0  0  0.110425  0.079642  0  1.034193  0
H  H7  1  0.97058863  0.55832474  0.83445436  1  0  0.072562  0  0.964522  0  0  0.081966  0  1.031125  0  0  0.085127  0  1.027174  0  0  0.110402  0.079621  0  1.034243  0
H  H8  1  0.37648927  0.02986995  0.48619107  1  0  0.102452  0  0.988259  0  0  0.111358  0  1.054945  0  0  0.114026  0  1.054174  0  0  0.107293  0.109605  0  1.055202  0
H  H9  1  0.12350095  0.52987332  0.01380611  1  0  0.102415  0  0.988268  0  0  0.11131  0  1.054933  0  0  0.113982  0  1.054157  0  0  0.107289  0.109563  0  1.055188  0
H  H10  1  0.62350790  0.97013026  0.51380758  1  0  0.102449  0  0.988247  0  0  0.11132  0  1.054963  0  0  0.113987  0  1.054195  0  0  0.107302  0.109571  0  1.05522  0
H  H11  1  0.87649621  0.47012983  0.98619102  1  0  0.102432  0  0.988294  0  0  0.111327  0  1.054979  0  0  0.113996  0  1.054207  0  0  0.107285  0.109579  0  1.055231  0
H  H12  1  0.04115800  0.29757989  0.27161300  1  0  0.095842  0  0.985754  0  0  0.102382  0  1.059119  0  0  0.107695  0  1.0542  0  0  0.099381  0.098268  0  1.063256  0
H  H13  1  0.45884777  0.79757537  0.22838685  1  0  0.095856  0  0.985764  0  0  0.102403  0  1.059112  0  0  0.107713  0  1.05421  0  0  0.099356  0.09829  0  1.063232  0
H  H14  1  0.95883787  0.70241837  0.72838620  1  0  0.095854  0  0.985769  0  0  0.102389  0  1.059136  0  0  0.107705  0  1.054206  0  0  0.099387  0.098268  0  1.063285  0
H  H15  1  0.54115725  0.20242093  0.77161540  1  0  0.09588  0  0.985715  0  0  0.102419  0  1.059079  0  0  0.107729  0  1.05417  0  0  0.099389  0.098307  0  1.063203  0
H  H16  1  0.14123748  0.19523635  0.12419055  1  0  0.078052  0  0.980665  0  0  0.08032  0  1.052351  0  0  0.084326  0  1.048305  0  0  0.10989  0.077468  0  1.055243  0
H  H17  1  0.35876784  0.69523067  0.37580844  1  0  0.07813  0  0.980639  0  0  0.080377  0  1.052343  0  0  0.084382  0  1.048297  0  0  0.109902  0.077527  0  1.055233  0
H  H18  1  0.85876100  0.80476387  0.87580909  1  0  0.07807  0  0.980663  0  0  0.080336  0  1.052346  0  0  0.084341  0  1.048302  0  0  0.109896  0.077486  0  1.055238  0
H  H19  1  0.64123456  0.30476270  0.62419185  1  0  0.078072  0  0.980659  0  0  0.080339  0  1.052341  0  0  0.084343  0  1.048299  0  0  0.109899  0.07749  0  1.055235  0
H  H20  1  0.30376407  0.34450224  0.00197190  1  0  0.068881  0  0.937365  0  0  0.079555  0  0.999074  0  0  0.081126  0  0.999054  0  0  0.108566  0.078398  0  0.999061  0
H  H21  1  0.19623798  0.84449524  0.49802659  1  0  0.06892  0  0.937373  0  0  0.079594  0  0.999074  0  0  0.081172  0  0.999047  0  0  0.10857  0.078427  0  0.999067  0
H  H22  1  0.69623701  0.65550091  0.99802741  1  0  0.068861  0  0.937377  0  0  0.079545  0  0.999069  0  0  0.081117  0  0.999048  0  0  0.108571  0.078385  0  0.999061  0
H  H23  1  0.80376181  0.15550497  0.50197402  1  0  0.068857  0  0.937423  0  0  0.079545  0  0.999112  0  0  0.081117  0  0.999091  0  0  0.108555  0.078389  0  0.999094  0
H  H24  1  0.27084598  0.41408937  0.81653727  1  0  0.105672  0  0.971051  0  0  0.1107  0  1.044453  0  0  0.114417  0  1.042657  0  0  0.102585  0.108109  0  1.045693  0
H  H25  1  0.22914687  0.91408427  0.68345888  1  0  0.105639  0  0.971111  0  0  0.110659  0  1.044526  0  0  0.114376  0  1.042731  0  0  0.102587  0.108069  0  1.045761  0
H  H26  1  0.72914727  0.58591280  0.18346074  1  0  0.105663  0  0.9711  0  0  0.110721  0  1.044469  0  0  0.114438  0  1.042672  0  0  0.102585  0.108129  0  1.045714  0
H  H27  1  0.77085423  0.08591204  0.31654196  1  0  0.10569  0  0.971111  0  0  0.110749  0  1.044473  0  0  0.114466  0  1.042677  0  0  0.102623  0.108162  0  1.045708  0
H  H28  1  0.01963811  0.04315963  0.71533614  1  0  0.101242  0  0.968596  0  0  0.11137  0  1.031178  0  0  0.113184  0  1.032617  0  0  0.101761  0.10999  0  1.030521  0
H  H29  1  0.48037270  0.54316301  0.78466439  1  0  0.101263  0  0.968561  0  0  0.111379  0  1.031151  0  0  0.113193  0  1.032588  0  0  0.10173  0.11  0  1.030492  0
H  H30  1  0.98036559  0.95683863  0.28466436  1  0  0.101298  0  0.968533  0  0  0.11142  0  1.031116  0  0  0.113234  0  1.032554  0  0  0.101766  0.110034  0  1.030463  0
H  H31  1  0.51963100  0.45683427  0.21533535  1  0  0.101238  0  0.96867  0  0  0.111352  0  1.031271  0  0  0.113166  0  1.032708  0  0  0.101752  0.109971  0  1.030622  0
H  H32  1  0.05405601  0.99221456  0.90616420  1  0  0.069276  0  0.94767  0  0  0.07747  0  1.014619  0  0  0.079763  0  1.012444  0  0  0.108413  0.075891  0  1.015999  0
H  H33  1  0.44595418  0.49221411  0.59383790  1  0  0.069254  0  0.947646  0  0  0.07744  0  1.01461  0  0  0.079734  0  1.012432  0  0  0.108368  0.075858  0  1.015993  0
H  H34  1  0.94594769  0.00778664  0.09383630  1  0  0.069261  0  0.947646  0  0  0.077451  0  1.014601  0  0  0.079746  0  1.012423  0  0  0.108391  0.075865  0  1.015978  0
H  H35  1  0.55404821  0.50778415  0.40616010  1  0  0.069268  0  0.947699  0  0  0.07746  0  1.014648  0  0  0.079752  0  1.012472  0  0  0.108371  0.075874  0  1.016032  0
C  C36  1  0.17002109  0.23431245  0.48458922  1  0  0.270507  0  3.830925  0  0  0.253575  0  4.090876  0  0  0.260235  0  4.109086  0  0  0.196361  0.249172  0  4.078713  0
C  C37  1  0.32997527  0.73431240  0.01540982  1  0  0.27041  0  3.831038  0  0  0.253469  0  4.091005  0  0  0.260128  0  4.109216  0  0  0.196329  0.249066  0  4.07884  0
C  C38  1  0.82997740  0.76568874  0.51541118  1  0  0.270402  0  3.830985  0  0  0.253465  0  4.090949  0  0  0.260122  0  4.109161  0  0  0.196323  0.249059  0  4.078801  0
C  C39  1  0.67002582  0.26568683  0.98459025  1  0  0.27052  0  3.830887  0  0  0.253579  0  4.090857  0  0  0.26024  0  4.109064  0  0  0.196357  0.249176  0  4.078701  0
C  C40  1  0.14208194  0.25856867  0.63915917  1  0  0.281624  0  3.802393  0  0  0.266149  0  4.064214  0  0  0.274758  0  4.081404  0  0  0.202567  0.260705  0  4.052326  0
C  C41  1  0.35791546  0.75856788  0.86083996  1  0  0.281656  0  3.802219  0  0  0.266147  0  4.064093  0  0  0.274757  0  4.081282  0  0  0.202564  0.260711  0  4.052191  0
C  C42  1  0.85791654  0.74143155  0.36084046  1  0  0.281745  0  3.802201  0  0  0.266259  0  4.064036  0  0  0.274869  0  4.081222  0  0  0.202593  0.260822  0  4.052135  0
C  C43  1  0.64208563  0.24143038  0.13916010  1  0  0.281689  0  3.802321  0  0  0.2662  0  4.064159  0  0  0.274811  0  4.081343  0  0  0.20253  0.260752  0  4.052271  0
C  C44  1  0.37306421  0.01908567  0.32196139  1  0  0.101063  0  3.7324  0  0  0.070922  0  3.982623  0  0  0.079399  0  3.995684  0  0  0.028981  0.065013  0  3.974984  0
C  C45  1  0.12693250  0.51908423  0.17803839  1  0  0.101051  0  3.732386  0  0  0.070933  0  3.982589  0  0  0.079391  0  3.995652  0  0  0.028989  0.065033  0  3.974961  0
C  C46  1  0.62693688  0.98091552  0.67803944  1  0  0.101045  0  3.732432  0  0  0.070917  0  3.982658  0  0  0.079398  0  3.99571  0  0  0.028956  0.065011  0  3.975018  0
C  C47  1  0.87306336  0.48091696  0.82196004  1  0  0.10107  0  3.732404  0  0  0.070922  0  3.982623  0  0  0.079394  0  3.99569  0  0  0.029015  0.065025  0  3.975014  0
C  C48  1  0.32411627  0.06983199  0.40713052  1  0  -0.147896  0  3.725092  0  0  -0.166999  0  3.968647  0  0  -0.174093  0  3.987324  0  0  -0.087004  -0.162194  0  3.955901  0
C  C49  1  0.17587674  0.56983356  0.09286714  1  0  -0.147771  0  3.72507  0  0  -0.166842  0  3.968603  0  0  -0.173933  0  3.987278  0  0  -0.086977  -0.162049  0  3.955878  0
C  C50  1  0.67588220  0.93016920  0.59286835  1  0  -0.147892  0  3.725098  0  0  -0.166954  0  3.968638  0  0  -0.174048  0  3.987316  0  0  -0.087024  -0.162147  0  3.955897  0
C  C51  1  0.82412044  0.43016861  0.90713228  1  0  -0.14786  0  3.72512  0  0  -0.166961  0  3.968695  0  0  -0.174053  0  3.98737  0  0  -0.087026  -0.162164  0  3.955985  0
C  C52  1  0.20899464  0.17610733  0.39282712  1  0  0.066103  0  3.784928  0  0  0.078044  0  4.013903  0  0  0.086363  0  4.02991  0  0  0.009171  0.072359  0  4.003159  0
C  C53  1  0.29100145  0.67610724  0.10717109  1  0  0.066109  0  3.785179  0  0  0.078058  0  4.014118  0  0  0.086377  0  4.030124  0  0  0.009156  0.072373  0  4.003379  0
C  C54  1  0.79100253  0.82389386  0.60717154  1  0  0.066114  0  3.785042  0  0  0.078067  0  4.013982  0  0  0.086386  0  4.029989  0  0  0.009173  0.072376  0  4.003259  0
C  C55  1  0.70899834  0.32389298  0.89282876  1  0  0.066136  0  3.785022  0  0  0.078087  0  4.013978  0  0  0.086408  0  4.029981  0  0  0.009158  0.072396  0  4.00327  0
C  C56  1  0.13900937  0.22034939  0.28844030  1  0  -0.152596  0  3.726777  0  0  -0.173028  0  3.977738  0  0  -0.179664  0  3.994952  0  0  -0.088303  -0.169014  0  3.967438  0
C  C57  1  0.36099214  0.72034658  0.21155806  1  0  -0.152629  0  3.726896  0  0  -0.173069  0  3.977834  0  0  -0.179715  0  3.99506  0  0  -0.088311  -0.169046  0  3.967521  0
C  C58  1  0.86098781  0.77964985  0.71155912  1  0  -0.152559  0  3.726807  0  0  -0.173  0  3.977772  0  0  -0.179637  0  3.994996  0  0  -0.088287  -0.168983  0  3.967481  0
C  C59  1  0.63901026  0.27965070  0.78844299  1  0  -0.152661  0  3.726706  0  0  -0.173098  0  3.977669  0  0  -0.179737  0  3.994888  0  0  -0.088316  -0.169078  0  3.967386  0
C  C60  1  0.19197045  0.16353218  0.20648285  1  0  0.112189  0  3.690172  0  0  0.084844  0  3.938459  0  0  0.09233  0  3.951912  0  0  0.030791  0.079489  0  3.930901  0
C  C61  1  0.30803211  0.66352928  0.29351566  1  0  0.112087  0  3.690224  0  0  0.084764  0  3.938528  0  0  0.092249  0  3.951966  0  0  0.030821  0.079404  0  3.930977  0
C  C62  1  0.80802803  0.83646803  0.79351678  1  0  0.112149  0  3.690216  0  0  0.084814  0  3.938504  0  0  0.0923  0  3.951955  0  0  0.030779  0.079461  0  3.930948  0
C  C63  1  0.69197028  0.33646800  0.70648386  1  0  0.112166  0  3.690137  0  0  0.08483  0  3.93842  0  0  0.092316  0  3.95187  0  0  0.030792  0.079473  0  3.93089  0
C  C64  1  0.23900542  0.28008647  0.93640611  1  0  0.126121  0  3.733873  0  0  0.099886  0  3.991045  0  0  0.104664  0  4.010119  0  0  0.03666  0.097147  0  3.977777  0
C  C65  1  0.26099861  0.78008237  0.56359337  1  0  0.125989  0  3.733955  0  0  0.09975  0  3.991143  0  0  0.104522  0  4.01022  0  0  0.036607  0.097024  0  3.977865  0
C  C66  1  0.76099568  0.71991570  0.06359548  1  0  0.126173  0  3.733885  0  0  0.099926  0  3.991088  0  0  0.104705  0  4.01016  0  0  0.036652  0.097183  0  3.977823  0
C  C67  1  0.73900248  0.21991687  0.43640593  1  0  0.126091  0  3.733974  0  0  0.099838  0  3.991182  0  0  0.104613  0  4.010258  0  0  0.036626  0.097101  0  3.977906  0
C  C68  1  0.22231202  0.31882889  0.83231885  1  0  -0.15608  0  3.712446  0  0  -0.173931  0  3.960924  0  0  -0.181222  0  3.982274  0  0  -0.087744  -0.169145  0  3.946351  0
C  C69  1  0.27768827  0.81882781  0.66768231  1  0  -0.155982  0  3.712333  0  0  -0.173822  0  3.960811  0  0  -0.181114  0  3.982164  0  0  -0.087713  -0.169033  0  3.946232  0
C  C70  1  0.77768907  0.68117035  0.16768045  1  0  -0.156095  0  3.712394  0  0  -0.173973  0  3.960879  0  0  -0.181262  0  3.982221  0  0  -0.087711  -0.169184  0  3.946302  0
C  C71  1  0.72231152  0.18117143  0.33231831  1  0  -0.156085  0  3.712403  0  0  -0.173962  0  3.960896  0  0  -0.181252  0  3.982244  0  0  -0.087752  -0.169173  0  3.946319  0
C  C72  1  0.14690734  0.23166777  0.74976705  1  0  0.05909  0  3.774809  0  0  0.071902  0  4.004671  0  0  0.075918  0  4.024379  0  0  0.009272  0.069024  0  3.991618  0
C  C73  1  0.35309386  0.73166692  0.75023194  1  0  0.059034  0  3.774824  0  0  0.071853  0  4.004698  0  0  0.075869  0  4.024405  0  0  0.009275  0.06897  0  3.991649  0
C  C74  1  0.85309507  0.76833244  0.25023476  1  0  0.059018  0  3.774823  0  0  0.071834  0  4.004705  0  0  0.075851  0  4.024411  0  0  0.009233  0.068953  0  3.99164  0
C  C75  1  0.64690854  0.26833330  0.24976758  1  0  0.059052  0  3.774813  0  0  0.071869  0  4.00469  0  0  0.075888  0  4.024391  0  0  0.00929  0.068992  0  3.991643  0
C  C76  1  0.08348212  0.11248752  0.77691711  1  0  -0.15186  0  3.705558  0  0  -0.170038  0  3.952612  0  0  -0.17695  0  3.973965  0  0  -0.087384  -0.165783  0  3.938869  0
C  C77  1  0.41652247  0.61248876  0.72308317  1  0  -0.151945  0  3.705531  0  0  -0.170113  0  3.952577  0  0  -0.177025  0  3.973931  0  0  -0.087407  -0.165858  0  3.938835  0
C  C78  1  0.91652028  0.88751270  0.22308241  1  0  -0.15193  0  3.705603  0  0  -0.170108  0  3.952653  0  0  -0.177023  0  3.974007  0  0  -0.087406  -0.165856  0  3.938897  0
C  C79  1  0.58347991  0.38751048  0.27691482  1  0  -0.151883  0  3.705542  0  0  -0.170054  0  3.952593  0  0  -0.176966  0  3.973946  0  0  -0.087412  -0.165803  0  3.938862  0
C  C80  1  0.10237150  0.08432199  0.88320284  1  0  0.129114  0  3.745829  0  0  0.099076  0  4.01171  0  0  0.106264  0  4.025753  0  0  0.037426  0.094301  0  4.002282  0
C  C81  1  0.39763166  0.58432215  0.61679720  1  0  0.129199  0  3.745715  0  0  0.09917  0  4.011588  0  0  0.106358  0  4.025632  0  0  0.037533  0.094396  0  4.002168  0
C  C82  1  0.89763090  0.91567823  0.11679821  1  0  0.129179  0  3.745777  0  0  0.099155  0  4.011635  0  0  0.106343  0  4.025678  0  0  0.037478  0.094389  0  4.002182  0
C  C83  1  0.60236812  0.41567806  0.38320188  1  0  0.129177  0  3.74576  0  0  0.099143  0  4.011645  0  0  0.106331  0  4.025687  0  0  0.03752  0.094377  0  4.002216  0
N  N84  1  0.11622586  0.35936395  0.48951647  1  0  -0.28028  0  3.27936  0  0  -0.220268  0  3.59617  0  0  -0.226119  0  3.600857  0  0  -0.287672  -0.217301  0  3.593078  0
N  N85  1  0.38377235  0.85936501  0.01048291  1  0  -0.280262  0  3.279277  0  0  -0.22024  0  3.596091  0  0  -0.226092  0  3.600783  0  0  -0.287681  -0.217273  0  3.592977  0
N  N86  1  0.88377262  0.64063725  0.51048392  1  0  -0.280199  0  3.279266  0  0  -0.220199  0  3.596089  0  0  -0.226042  0  3.600763  0  0  -0.287677  -0.217231  0  3.593041  0
N  N87  1  0.61622874  0.14063521  0.98951716  1  0  -0.280308  0  3.279378  0  0  -0.220292  0  3.596209  0  0  -0.226139  0  3.60089  0  0  -0.287674  -0.217327  0  3.593084  0
N  N88  1  0.09629707  0.37482826  0.58934319  1  0  -0.288723  0  3.20772  0  0  -0.23625  0  3.517769  0  0  -0.243278  0  3.522893  0  0  -0.28317  -0.232247  0  3.514512  0
N  N89  1  0.40370085  0.87482858  0.91065683  1  0  -0.288757  0  3.20748  0  0  -0.236279  0  3.517546  0  0  -0.243309  0  3.522676  0  0  -0.283173  -0.232289  0  3.514245  0
N  N90  1  0.90370011  0.62517097  0.41065699  1  0  -0.288814  0  3.207437  0  0  -0.236335  0  3.517501  0  0  -0.243365  0  3.522626  0  0  -0.283176  -0.232328  0  3.514206  0
N  N91  1  0.59630155  0.12517163  0.08934422  1  0  -0.288749  0  3.207696  0  0  -0.236288  0  3.517777  0  0  -0.243319  0  3.522907  0  0  -0.283147  -0.232281  0  3.514462  0
N  N92  1  0.18876040  0.16855271  0.57685536  1  0  -0.478943  0  2.933802  0  0  -0.445287  0  3.194621  0  0  -0.461619  0  3.210193  0  0  -0.345239  -0.433867  0  3.183868  0
N  N93  1  0.31123791  0.66855184  0.92314390  1  0  -0.478839  0  2.933723  0  0  -0.445171  0  3.194546  0  0  -0.461502  0  3.210119  0  0  -0.345166  -0.433753  0  3.183788  0
N  N94  1  0.81123939  0.83144848  0.42314449  1  0  -0.478915  0  2.933745  0  0  -0.445252  0  3.194561  0  0  -0.461582  0  3.210133  0  0  -0.345188  -0.43383  0  3.183808  0
N  N95  1  0.68876580  0.33144838  0.07685736  1  0  -0.478929  0  2.933661  0  0  -0.445252  0  3.194463  0  0  -0.461583  0  3.210034  0  0  -0.345171  -0.433833  0  3.183712  0
N  N96  1  0.31049938  0.06477920  0.22144681  1  0  -0.304949  0  3.402731  0  0  -0.225486  0  3.703429  0  0  -0.233641  0  3.709011  0  0  -0.37604  -0.221262  0  3.69978  0
N  N97  1  0.18950015  0.56477894  0.27855270  1  0  -0.304976  0  3.402912  0  0  -0.225544  0  3.703621  0  0  -0.233673  0  3.709172  0  0  -0.376075  -0.221321  0  3.700004  0
N  N98  1  0.68950041  0.93522003  0.77855304  1  0  -0.304981  0  3.402844  0  0  -0.225533  0  3.703545  0  0  -0.233683  0  3.709119  0  0  -0.376042  -0.221314  0  3.6999  0
N  N99  1  0.81049833  0.43521932  0.72144617  1  0  -0.304964  0  3.402793  0  0  -0.225506  0  3.703484  0  0  -0.233649  0  3.709042  0  0  -0.376043  -0.22129  0  3.699942  0
N  N100  1  0.18229809  0.16452216  0.96304888  1  0  -0.329704  0  3.13591  0  0  -0.279898  0  3.41059  0  0  -0.288693  0  3.420023  0  0  -0.325092  -0.274327  0  3.404242  0
N  N101  1  0.31770413  0.66451916  0.53695255  1  0  -0.329625  0  3.136034  0  0  -0.279812  0  3.41072  0  0  -0.288605  0  3.420148  0  0  -0.325075  -0.274244  0  3.404378  0
N  N102  1  0.81770170  0.83547708  0.03695174  1  0  -0.3297  0  3.135909  0  0  -0.2799  0  3.410608  0  0  -0.288691  0  3.42003  0  0  -0.325107  -0.27433  0  3.404252  0
N  N103  1  0.68229827  0.33547910  0.46304773  1  0  -0.329661  0  3.135998  0  0  -0.279846  0  3.41068  0  0  -0.288638  0  3.420109  0  0  -0.32509  -0.274276  0  3.404339  0
