# generated using pymatgen
data_AlH12(C2O)12
_symmetry_space_group_name_H-M   'P 1'
_cell_length_a   4.02382938
_cell_length_b   28.93932444
_cell_length_c   28.94026547
_cell_angle_alpha   119.99644444
_cell_angle_beta   89.99864541
_cell_angle_gamma   89.99973385
_symmetry_Int_Tables_number   1
_chemical_formula_structural   AlH12(C2O)12
_chemical_formula_sum   'Al2 H24 C48 O24'
_cell_volume   2918.61390602
_cell_formula_units_Z   2
loop_
 _symmetry_equiv_pos_site_id
 _symmetry_equiv_pos_as_xyz
  1  'x, y, z'
loop_
 _atom_site_type_symbol
 _atom_site_label
 _atom_site_symmetry_multiplicity
 _atom_site_fract_x
 _atom_site_fract_y
 _atom_site_fract_z
 _atom_site_occupancy
 _atom_site_pbe_bader_charge
 _atom_site_pbe_bader_spin_density
 _atom_site_pbe_cm5_charge
 _atom_site_pbe_ddec_charge
 _atom_site_pbe_ddec_spin_density
 _atom_site_pbe_ddec_sum_bond_order
 _atom_site_pbe_magmom
Al  Al0  1  0.99992444  0.50000283  0.49999822  1  2.507188  0  0.433294  1.601072  0  2.569653  0
Al  Al1  1  0.00001538  0.16666818  0.83334918  1  2.506993  0  0.433267  1.601057  0  2.569594  0
H  H2  1  0.20257679  0.17769864  0.69784747  1  0.149182  0  0.118775  0.148981  0  0.973219  0
H  H3  1  0.79725696  0.30219077  0.82229842  1  0.150294  0  0.1188  0.148905  0  0.973432  0
H  H4  1  0.79708679  0.36447288  0.51102348  1  0.150348  0  0.118693  0.148752  0  0.973477  0
H  H5  1  0.20258880  0.48897425  0.63552193  1  0.148917  0  0.118742  0.148913  0  0.973275  0
H  H6  1  0.20263423  0.02009232  0.82231070  1  0.118672  0  0.118762  0.14875  0  0.973115  0
H  H7  1  0.79730900  0.02013287  0.69784355  1  0.119479  0  0.118835  0.148981  0  0.973782  0
H  H8  1  0.79699996  0.64655473  0.63552904  1  0.118335  0  0.118725  0.14871  0  0.973291  0
H  H9  1  0.20266557  0.64655546  0.51101124  1  0.1182  0  0.118789  0.148875  0  0.973257  0
H  H10  1  0.20248512  0.30218384  0.97989656  1  0.120058  0  0.118754  0.148845  0  0.97261  0
H  H11  1  0.79733108  0.17771059  0.97991301  1  0.118927  0  0.118763  0.148769  0  0.973605  0
H  H12  1  0.79706238  0.48898494  0.35344197  1  0.118168  0  0.118789  0.148915  0  0.973401  0
H  H13  1  0.20260592  0.36447364  0.35345783  1  0.118755  0  0.118796  0.148921  0  0.972923  0
H  H14  1  0.78498918  0.37654786  0.75446055  1  0.596847  0  0.31589  0.344106  0  0.914516  0
H  H15  1  0.21438124  0.24550548  0.62345946  1  0.595333  0  0.315889  0.347265  0  0.911193  0
H  H16  1  0.21465217  0.42115549  0.70989480  1  0.595241  0  0.315932  0.347155  0  0.910996  0
H  H17  1  0.78488783  0.29010168  0.57884169  1  0.596277  0  0.315832  0.344175  0  0.914544  0
H  H18  1  0.78514752  0.87794731  0.62344172  1  0.591529  0  0.315719  0.344357  0  0.915501  0
H  H19  1  0.21464323  0.87791052  0.75445667  1  0.601522  0  0.315951  0.344446  0  0.915308  0
H  H20  1  0.21481778  0.78873536  0.57880457  1  0.599322  0  0.315823  0.344124  0  0.915112  0
H  H21  1  0.78484396  0.78873931  0.70987911  1  0.590831  0  0.31576  0.343971  0  0.91493  0
H  H22  1  0.78508645  0.24551276  0.12208524  1  0.563412  0  0.315773  0.344148  0  0.914575  0
H  H23  1  0.21442878  0.37652984  0.12207557  1  0.590955  0  0.315901  0.347061  0  0.911551  0
H  H24  1  0.21469655  0.29011018  0.21127930  1  0.591535  0  0.315928  0.347189  0  0.911385  0
H  H25  1  0.78482284  0.42117313  0.21126812  1  0.563527  0  0.315758  0.344189  0  0.914775  0
C  C26  1  0.49993283  0.45904438  0.41808259  1  1.563153  0  0.279885  0.655612  0  4.048022  0
C  C27  1  0.49989075  0.45904806  0.54096068  1  1.581524  0  0.279713  0.655061  0  4.048502  0
C  C28  1  0.49990106  0.58192070  0.54094947  1  1.56235  0  0.279717  0.655237  0  4.048898  0
C  C29  1  0.49996954  0.20762403  0.79238979  1  1.580369  0  0.279922  0.655373  0  4.047486  0
C  C30  1  0.50003130  0.08475165  0.79240765  1  1.561641  0  0.279661  0.655212  0  4.048374  0
C  C31  1  0.50001445  0.20763064  0.91526841  1  1.562714  0  0.279647  0.655229  0  4.048266  0
C  C32  1  0.49990429  0.23738534  0.76262627  1  -0.013042  0  -0.001014  0.013796  0  3.999051  0
C  C33  1  0.33400442  0.21543431  0.71362502  1  0.035329  0  -0.100017  -0.238083  0  3.945473  0
C  C34  1  0.33884983  0.24272259  0.68548230  1  0.494333  0  0.090983  0.305336  0  4.065143  0
C  C35  1  0.49971391  0.29292529  0.70706920  1  0.131643  0  -0.04545  -0.146433  0  4.176875  0
C  C36  1  0.66066816  0.31453054  0.75726205  1  0.492266  0  0.090978  0.305225  0  4.064584  0
C  C37  1  0.66569154  0.28639711  0.78456162  1  0.035559  0  -0.100121  -0.23838  0  3.945799  0
C  C38  1  0.49974796  0.32103474  0.67894844  1  -0.19975  0  -0.062914  -0.142272  0  4.278071  0
C  C39  1  0.49975944  0.34561044  0.65436674  1  -0.43913  0  -0.062948  -0.142453  0  4.277983  0
C  C40  1  0.49974627  0.37373021  0.62625709  1  0.13206  0  -0.045531  -0.1463  0  4.177323  0
C  C41  1  0.66059493  0.35212385  0.57606403  1  0.492264  0  0.090951  0.305172  0  4.064824  0
C  C42  1  0.66561422  0.38026399  0.54876876  1  0.035295  0  -0.099996  -0.238254  0  3.945312  0
C  C43  1  0.49980938  0.42928085  0.57071351  1  -0.012859  0  -0.00107  0.013938  0  3.998598  0
C  C44  1  0.33400036  0.45122972  0.61972728  1  0.035687  0  -0.100059  -0.23834  0  3.94483  0
C  C45  1  0.33889442  0.42392737  0.64786191  1  0.493945  0  0.091255  0.305394  0  4.065229  0
C  C46  1  0.49992286  0.02522742  0.76262685  1  -0.036808  0  -0.000982  0.014022  0  3.998704  0
C  C47  1  0.33416421  0.99814728  0.78456295  1  -0.015934  0  -0.100188  -0.238203  0  3.945498  0
C  C48  1  0.33896128  0.94271952  0.75725418  1  0.535201  0  0.091307  0.305722  0  4.064863  0
C  C49  1  0.49992934  0.91414316  0.70706784  1  0.256118  0  -0.045497  -0.146346  0  4.177264  0
C  C50  1  0.66078729  0.94275992  0.68547798  1  0.507023  0  0.091074  0.305437  0  4.064945  0
C  C51  1  0.66587129  0.99818295  0.71362551  1  0.041805  0  -0.100182  -0.238354  0  3.946612  0
C  C52  1  0.49990273  0.85791410  0.67893226  1  -0.047219  0  -0.063227  -0.142876  0  4.277852  0
C  C53  1  0.49984837  0.80875381  0.65434329  1  -0.627287  0  -0.062753  -0.14177  0  4.277346  0
C  C54  1  0.49982921  0.75253114  0.62624003  1  0.233566  0  -0.045566  -0.14665  0  4.177734  0
C  C55  1  0.66058778  0.72393395  0.64785114  1  0.507816  0  0.091239  0.305474  0  4.064489  0
C  C56  1  0.66558622  0.66850831  0.61972414  1  0.043264  0  -0.100047  -0.238049  0  3.945857  0
C  C57  1  0.49984548  0.64143640  0.57070977  1  -0.036305  0  -0.00081  0.014034  0  3.998805  0
C  C58  1  0.33407184  0.66850728  0.54875703  1  -0.015992  0  -0.100294  -0.238598  0  3.945298  0
C  C59  1  0.33899934  0.72393600  0.57604200  1  0.535038  0  0.090943  0.30564  0  4.065014  0
C  C60  1  0.49993465  0.23738766  0.97479166  1  -0.035017  0  -0.000699  0.014052  0  3.999366  0
C  C61  1  0.33405232  0.28638843  0.00185271  1  0.037992  0  -0.10016  -0.23825  0  3.945312  0
C  C62  1  0.33887865  0.31451915  0.05727628  1  0.507258  0  0.091231  0.305597  0  4.065684  0
C  C63  1  0.49982045  0.29293046  0.08587340  1  0.23503  0  -0.045492  -0.146467  0  4.176767  0
C  C64  1  0.66078220  0.24273243  0.05727277  1  0.534651  0  0.091013  0.30511  0  4.06437  0
C  C65  1  0.66581960  0.21544483  0.00185400  1  -0.015823  0  -0.100138  -0.237939  0  3.946251  0
C  C66  1  0.49985526  0.32103493  0.14210064  1  -0.612027  0  -0.062943  -0.142279  0  4.277463  0
C  C67  1  0.49986832  0.34562590  0.19125733  1  -0.062133  0  -0.062977  -0.142515  0  4.277887  0
C  C68  1  0.49980869  0.37374090  0.24748234  1  0.256322  0  -0.045412  -0.146292  0  4.177573  0
C  C69  1  0.66059766  0.42394293  0.27607349  1  0.53526  0  0.090997  0.30536  0  4.064321  0
C  C70  1  0.66564270  0.45123659  0.33149791  1  -0.015534  0  -0.100105  -0.238266  0  3.945769  0
C  C71  1  0.49985855  0.42928411  0.35856327  1  -0.037445  0  -0.000927  0.01379  0  3.999275  0
C  C72  1  0.33407420  0.38027521  0.33150519  1  0.041203  0  -0.100135  -0.238285  0  3.94585  0
C  C73  1  0.33896498  0.35214077  0.27607910  1  0.507307  0  0.09115  0.305448  0  4.065745  0
O  O74  1  0.73493301  0.55848053  0.55079527  1  -1.259554  0  -0.236234  -0.595403  0  2.361607  0
O  O75  1  0.73492793  0.49233320  0.44152026  1  -1.260529  0  -0.236208  -0.595389  0  2.361564  0
O  O76  1  0.73489359  0.44919231  0.50767103  1  -1.259401  0  -0.236147  -0.59516  0  2.361466  0
O  O77  1  0.26496125  0.55847934  0.50765185  1  -1.259807  0  -0.236055  -0.595307  0  2.361904  0
O  O78  1  0.26491671  0.49234237  0.55080983  1  -1.257489  0  -0.236071  -0.595203  0  2.361784  0
O  O79  1  0.26495348  0.44919336  0.44152927  1  -1.259962  0  -0.236221  -0.595608  0  2.361824  0
O  O80  1  0.73504176  0.17434119  0.89183564  1  -1.260046  0  -0.236147  -0.595395  0  2.361714  0
O  O81  1  0.73509349  0.21748506  0.82567429  1  -1.257501  0  -0.236115  -0.595254  0  2.360709  0
O  O82  1  0.73507892  0.10818966  0.78255723  1  -1.259724  0  -0.236059  -0.595353  0  2.362018  0
O  O83  1  0.26500369  0.21748047  0.89182139  1  -1.259159  0  -0.236326  -0.595653  0  2.361284  0
O  O84  1  0.26503071  0.10818619  0.82570089  1  -1.259254  0  -0.236133  -0.5953  0  2.361308  0
O  O85  1  0.26502306  0.17432621  0.78253917  1  -1.258897  0  -0.23627  -0.595415  0  2.361809  0
O  O86  1  0.81424814  0.36290215  0.77908435  1  -1.125022  0  -0.346838  -0.421533  0  2.251034  0
O  O87  1  0.18516214  0.22088492  0.63711190  1  -1.123475  0  -0.346833  -0.425181  0  2.246724  0
O  O88  1  0.18534244  0.44576615  0.69623731  1  -1.123774  0  -0.346957  -0.424907  0  2.247317  0
O  O89  1  0.81412787  0.30375321  0.55422843  1  -1.124524  0  -0.346725  -0.421504  0  2.251115  0
O  O90  1  0.81445119  0.91621923  0.63709825  1  -1.117317  0  -0.346795  -0.422428  0  2.251189  0
O  O91  1  0.18542963  0.91617156  0.77907577  1  -1.131865  0  -0.346856  -0.422269  0  2.25183  0
O  O92  1  0.18551995  0.75047435  0.55419673  1  -1.128922  0  -0.346634  -0.421783  0  2.251764  0
O  O93  1  0.81408899  0.75047618  0.69623013  1  -1.116701  0  -0.346861  -0.421696  0  2.250815  0
O  O94  1  0.81444503  0.22089575  0.08382161  1  -1.092334  0  -0.346801  -0.421715  0  2.249944  0
O  O95  1  0.18522853  0.36288430  0.08381222  1  -1.117345  0  -0.346873  -0.424892  0  2.247574  0
O  O96  1  0.18541768  0.30376116  0.24954574  1  -1.117881  0  -0.346944  -0.424999  0  2.247378  0
O  O97  1  0.81413224  0.44578707  0.24953182  1  -1.09204  0  -0.346846  -0.421897  0  2.250624  0
