# generated using pymatgen
data_CoH12C12(N4O)2
_symmetry_space_group_name_H-M   'P 1'
_cell_length_a   6.50997918
_cell_length_b   9.78825484
_cell_length_c   10.70152477
_cell_angle_alpha   111.06670026
_cell_angle_beta   89.99971175
_cell_angle_gamma   90.00041143
_symmetry_Int_Tables_number   1
_chemical_formula_structural   CoH12C12(N4O)2
_chemical_formula_sum   'Co2 H24 C24 N16 O4'
_cell_volume   636.33799421
_cell_formula_units_Z   2
loop_
 _symmetry_equiv_pos_site_id
 _symmetry_equiv_pos_as_xyz
  1  'x, y, z'
loop_
 _atom_site_type_symbol
 _atom_site_label
 _atom_site_symmetry_multiplicity
 _atom_site_fract_x
 _atom_site_fract_y
 _atom_site_fract_z
 _atom_site_occupancy
 _atom_site_hle17_ddec_charge
 _atom_site_hle17_ddec_spin_density
 _atom_site_hle17_ddec_sum_bond_order
 _atom_site_hle17_magmom
 _atom_site_hse06_10hf_bader_charge
 _atom_site_hse06_10hf_bader_spin_density
 _atom_site_hse06_10hf_ddec_charge
 _atom_site_hse06_10hf_ddec_spin_density
 _atom_site_hse06_10hf_ddec_sum_bond_order
 _atom_site_hse06_10hf_magmom
 _atom_site_hse06_ddec_charge
 _atom_site_hse06_ddec_spin_density
 _atom_site_hse06_ddec_sum_bond_order
 _atom_site_hse06_magmom
 _atom_site_pbe_cm5_charge
 _atom_site_pbe_ddec_charge
 _atom_site_pbe_ddec_spin_density
 _atom_site_pbe_ddec_sum_bond_order
 _atom_site_pbe_magmom
Co  Co0  1  0.00000112  0.00000002  0.50000001  1  0.792682  -2.852387  2.531126  -2.397  1.110424  -0.94213  0.586282  -1.049995  3.083217  -0.937  0.651076  -1.060907  3.010443  -0.952  0.671567  0.554809  -1.043603  3.124671  -0.924
Co  Co1  1  0.50000223  0.49999951  0.49999912  1  0.792661  2.852396  2.531045  2.397  1.110533  0.942127  0.586462  1.04999  3.083055  0.937  0.6509  1.060908  3.010403  0.952  0.671557  0.554785  1.043595  3.124593  0.924
H  H2  1  0.42161323  0.98253291  0.38146313  1  0.080043  0.000347  0.987276  -0.001  0.162149  7.5e-05  0.087482  0.000163  1.059151  0.0  0.089598  0.000221  1.056861  0.0  0.117326  0.086004  0.000116  1.06065  0.0
H  H3  1  0.92160997  0.51746751  0.61854161  1  0.080091  -0.000346  0.98728  0.001  0.161597  -7.5e-05  0.087524  -0.000163  1.059165  0.0  0.089643  -0.000221  1.056869  0.0  0.117338  0.08605  -0.000116  1.060659  0.0
H  H4  1  0.57839584  0.01745852  0.61854292  1  0.080152  0.000346  0.987225  -0.001  0.161741  7.4e-05  0.087562  0.000162  1.05915  0.0  0.089683  0.000221  1.056848  0.0  0.117357  0.086083  0.000116  1.060634  0.0
H  H5  1  0.07840064  0.48254133  0.38145420  1  0.080168  -0.000346  0.987321  0.001  0.16184  -7.4e-05  0.08759  -0.000163  1.059207  0.0  0.089712  -0.000221  1.056905  0.0  0.117359  0.086115  -0.000116  1.060699  0.0
H  H6  1  0.88741883  0.73865242  0.26665876  1  0.070202  -0.000164  0.999724  -0.001  0.11436  9.3e-05  0.08364  0.000119  1.061833  0.0  0.085181  0.000109  1.060196  0.0  0.121818  0.082071  0.000109  1.063736  0.0
H  H7  1  0.38742167  0.76135214  0.73333436  1  0.070244  0.000164  0.999592  0.001  0.114278  -9.3e-05  0.083687  -0.000119  1.061699  0.0  0.085229  -0.000109  1.060053  0.0  0.12183  0.082105  -0.000109  1.06362  0.0
H  H8  1  0.11257796  0.26135967  0.73333437  1  0.070157  -0.000165  0.999637  -0.001  0.114318  9.3e-05  0.083608  0.000119  1.061754  0.0  0.085148  0.000109  1.060112  0.0  0.121793  0.08204  0.000109  1.063653  0.0
H  H9  1  0.61257512  0.23863817  0.26666759  1  0.070172  0.000165  0.999616  0.001  0.114321  -9.4e-05  0.083604  -0.000119  1.061761  0.0  0.085146  -0.000109  1.060115  0.0  0.121806  0.082031  -0.000109  1.063671  0.0
H  H10  1  0.60486569  0.82175297  0.18083690  1  0.11454  -0.000109  0.974425  0.0  0.104205  0.0001  0.123428  6.2e-05  1.039274  0.0  0.127511  5.1e-05  1.036706  0.0  0.107193  0.120349  3.6e-05  1.041336  0.0
H  H11  1  0.10485779  0.67824281  0.81916736  1  0.114578  0.000109  0.974424  0.0  0.104245  -0.0001  0.123456  -6.1e-05  1.039278  0.0  0.127539  -5.1e-05  1.036711  0.0  0.107215  0.12038  -3.6e-05  1.041338  0.0
H  H12  1  0.39514031  0.17823735  0.81916692  1  0.114565  -0.000109  0.974383  0.0  0.104217  9.9e-05  0.123472  6.1e-05  1.039219  0.0  0.127556  5.1e-05  1.036648  0.0  0.107207  0.120391  3.6e-05  1.041279  0.0
H  H13  1  0.89514514  0.32176713  0.18083067  1  0.114501  0.000109  0.974424  0.0  0.104203  -0.0001  0.123414  -6.1e-05  1.039267  0.0  0.127496  -5.1e-05  1.036699  0.0  0.107201  0.120337  -3.6e-05  1.041326  0.0
H  H14  1  0.05302581  0.55951642  0.07594386  1  0.110372  -0.000203  0.993152  0.0  0.115575  8.2e-05  0.120629  2.6e-05  1.054386  0.0  0.123809  3.6e-05  1.053226  0.0  0.107342  0.118207  1e-05  1.055789  0.0
H  H15  1  0.55301838  0.94048019  0.92405429  1  0.110372  0.000203  0.993112  0.0  0.115913  -8.3e-05  0.120604  -2.6e-05  1.054385  0.0  0.123792  -3.6e-05  1.053214  0.0  0.107339  0.118182  -1e-05  1.055786  0.0
H  H16  1  0.94696791  0.44048587  0.92405262  1  0.110353  -0.000202  0.993174  0.0  0.116015  8.2e-05  0.120572  2.6e-05  1.054432  0.0  0.123786  3.6e-05  1.053231  0.0  0.107328  0.118149  1e-05  1.055836  0.0
H  H17  1  0.44696611  0.05951231  0.07595024  1  0.110342  0.000203  0.993207  0.0  0.116012  -8.3e-05  0.12057  -2.6e-05  1.054463  0.0  0.123775  -3.6e-05  1.053271  0.0  0.107323  0.118147  -1e-05  1.055867  0.0
H  H18  1  0.57972792  0.62337447  0.95695237  1  0.042946  2.3e-05  0.934412  0.0  0.057458  3.9e-05  0.053295  1e-05  0.996531  0.0  0.053633  5e-06  0.997467  0.0  0.101357  0.053058  1.4e-05  0.996079  0.0
H  H19  1  0.07971429  0.87662558  0.04305241  1  0.042956  -2.3e-05  0.934389  0.0  0.05752  -4e-05  0.053227  -1e-05  0.996585  0.0  0.053564  -5e-06  0.99752  0.0  0.101335  0.053007  -1.4e-05  0.996114  0.0
H  H20  1  0.42027348  0.37662240  0.04305077  1  0.042949  2.3e-05  0.93435  0.0  0.057686  4e-05  0.0533  1e-05  0.996422  0.0  0.053637  5e-06  0.997358  0.0  0.101353  0.05307  1.4e-05  0.995962  0.0
H  H21  1  0.92027788  0.12337893  0.95694946  1  0.042993  -2.3e-05  0.934345  0.0  0.057444  -4e-05  0.053309  -1e-05  0.996519  0.0  0.053648  -5e-06  0.997457  0.0  0.101363  0.053074  -1.4e-05  0.996062  0.0
H  H22  1  0.35971022  0.47933933  0.79183959  1  0.352634  -0.000696  0.93082  0.0  0.635493  -8.8e-05  0.325528  -0.000109  1.017496  0.0  0.335082  -8.6e-05  1.007257  0.0  0.28956  0.319231  -0.000111  1.023816  0.0
H  H23  1  0.85970404  0.02066722  0.20816347  1  0.352641  0.000696  0.930789  0.0  0.635532  8.8e-05  0.325532  0.000109  1.017474  0.0  0.335092  8.5e-05  1.007227  0.0  0.289592  0.319237  0.000111  1.023785  0.0
H  H24  1  0.64028964  0.52066191  0.20816310  1  0.352662  -0.000696  0.930769  0.0  0.635475  -8.8e-05  0.325553  -0.000109  1.017454  0.0  0.33511  -8.6e-05  1.007211  0.0  0.289589  0.319257  -0.000111  1.023774  0.0
H  H25  1  0.14029121  0.97933291  0.79183793  1  0.352651  0.000696  0.930801  0.0  0.635521  8.8e-05  0.32555  0.00011  1.017461  0.0  0.33511  8.6e-05  1.007215  0.0  0.289599  0.319254  0.000111  1.023773  0.0
C  C26  1  0.34460509  0.88789021  0.31054995  1  0.127929  0.011232  3.667851  0.015  0.442775  0.003566  0.09581  0.001918  3.907179  0.002  0.105558  0.001304  3.924602  0.002  0.043299  0.088783  0.002447  3.896876  0.003
C  C27  1  0.84459918  0.61210658  0.68945106  1  0.127775  -0.011234  3.668039  -0.015  0.443316  -0.003567  0.095653  -0.001918  3.907408  -0.002  0.105396  -0.001304  3.924822  -0.002  0.043243  0.088617  -0.002447  3.897129  -0.003
C  C28  1  0.65539783  0.11210227  0.68945084  1  0.127715  0.011236  3.667691  0.015  0.443305  0.003567  0.095608  0.001919  3.907011  0.002  0.105357  0.001304  3.92443  0.002  0.043175  0.088586  0.002447  3.896705  0.003
C  C29  1  0.15540221  0.38790119  0.31054814  1  0.127486  -0.011234  3.667798  -0.015  0.443113  -0.003567  0.095382  -0.001919  3.907112  -0.002  0.105122  -0.001304  3.924528  -0.002  0.043092  0.088328  -0.002447  3.89687  -0.003
C  C30  1  0.04850845  0.75182636  0.24887103  1  0.118031  0.009982  3.696319  0.013  0.449062  0.003626  0.081624  0.002043  3.939928  0.003  0.091899  0.001597  3.955357  0.002  0.038843  0.074215  0.002434  3.932472  0.003
C  C31  1  0.54850346  0.74817789  0.75112868  1  0.118015  -0.009984  3.696014  -0.013  0.44899  -0.003626  0.081608  -0.002043  3.939652  -0.003  0.091884  -0.001597  3.955071  -0.002  0.038845  0.074214  -0.002434  3.932189  -0.003
C  C32  1  0.95148680  0.24818031  0.75112687  1  0.118122  0.009984  3.696243  0.013  0.449027  0.003626  0.081699  0.002043  3.939815  0.003  0.091959  0.001597  3.955281  0.002  0.038892  0.074288  0.002433  3.932353  0.003
C  C33  1  0.45148872  0.25182007  0.24887482  1  0.118137  -0.009981  3.696164  -0.013  0.448995  -0.003625  0.081717  -0.002042  3.939727  -0.003  0.091981  -0.001598  3.955171  -0.002  0.038927  0.074318  -0.002433  3.932256  -0.003
C  C34  1  0.44825054  0.79403429  0.19871161  1  -0.15876  -0.008251  3.699547  -0.011  0.000861  -0.000517  -0.178318  -0.000185  3.94943  0.0  -0.186286  -0.000242  3.968026  0.0  -0.085397  -0.17265  -0.000165  3.937612  0.0
C  C35  1  0.94824472  0.70596295  0.80129108  1  -0.158748  0.008253  3.699548  0.011  0.000891  0.000516  -0.178303  0.000186  3.949441  0.0  -0.186272  0.00024  3.968045  0.0  -0.085393  -0.172628  0.000165  3.937616  0.0
C  C36  1  0.55175393  0.20596147  0.80128931  1  -0.158804  -0.008254  3.699493  -0.011  0.000872  -0.000516  -0.178379  -0.000185  3.949431  0.0  -0.186346  -0.000242  3.968026  0.0  -0.08542  -0.17271  -0.000165  3.937607  0.0
C  C37  1  0.05175513  0.29404155  0.19870892  1  -0.158637  0.008251  3.699466  0.011  0.00095  0.000517  -0.178214  0.000186  3.949393  0.0  -0.186178  0.000241  3.967994  0.0  -0.085393  -0.172534  0.000165  3.937561  0.0
C  C38  1  0.14404937  0.65141702  0.13827600  1  -0.142871  -0.00796  3.696721  -0.01  -0.009563  -0.00075  -0.163621  -0.000362  3.946761  0.0  -0.171286  -0.000324  3.965721  0.0  -0.085104  -0.159115  -0.000311  3.93595  -0.001
C  C39  1  0.64404609  0.84858217  0.86172176  1  -0.1428  0.00796  3.696686  0.01  -0.009905  0.00075  -0.163517  0.000362  3.946708  0.0  -0.171182  0.000323  3.965664  0.0  -0.085064  -0.159004  0.000311  3.935883  0.001
C  C40  1  0.85594895  0.34858527  0.86172049  1  -0.142884  -0.007963  3.69669  -0.01  -0.009891  -0.000751  -0.163542  -0.000362  3.946711  0.0  -0.171223  -0.000324  3.965641  0.0  -0.085086  -0.159038  -0.000311  3.935901  -0.001
C  C41  1  0.35594915  0.15141251  0.13827973  1  -0.142937  0.007961  3.696681  0.01  -0.009811  0.000751  -0.163602  0.000362  3.946698  0.0  -0.171273  0.000323  3.965634  0.0  -0.085127  -0.159092  0.000311  3.935879  0.001
C  C42  1  0.34876146  0.67148046  0.10924975  1  0.092096  0.010017  3.701777  0.013  -0.039769  0.003424  0.10493  0.00179  3.937846  0.002  0.111509  0.001049  3.956085  0.001  0.005709  0.099743  0.00263  3.92578  0.003
C  C43  1  0.84875928  0.82852071  0.89075080  1  0.09204  -0.010018  3.701825  -0.013  -0.039783  -0.003425  0.104877  -0.00179  3.937856  -0.002  0.111458  -0.001049  3.956092  -0.001  0.0057  0.099696  -0.00263  3.925785  -0.003
C  C44  1  0.65123379  0.32851858  0.89075035  1  0.092183  0.01002  3.70172  0.013  -0.039352  0.003425  0.104896  0.001791  3.93784  0.002  0.111473  0.001051  3.956081  0.001  0.005705  0.099707  0.00263  3.925773  0.003
C  C45  1  0.15123443  0.17148160  0.10924944  1  0.092208  -0.010017  3.701731  -0.013  -0.03948  -0.003425  0.104935  -0.00179  3.937933  -0.002  0.111517  -0.001048  3.956174  -0.001  0.005766  0.099759  -0.00263  3.925852  -0.003
C  C46  1  0.45214646  0.56623812  0.98554619  1  0.148746  0.000172  3.635419  0.0  0.513472  0.000166  0.12159  0.000114  3.882811  0.0  0.126902  5.5e-05  3.889922  0.0  -0.000169  0.117952  0.000194  3.878308  0.0
C  C47  1  0.95213838  0.93376240  0.01445475  1  0.148698  -0.000171  3.635684  0.0  0.534053  -0.000163  0.121665  -0.000114  3.883032  0.0  0.126993  -5.6e-05  3.890117  0.0  -0.000191  0.118015  -0.000194  3.878526  0.0
C  C48  1  0.54785186  0.43375873  0.01445508  1  0.14862  0.000172  3.635526  0.0  0.533337  0.000164  0.12167  0.000114  3.882726  0.0  0.126987  5.7e-05  3.889829  0.0  -0.000174  0.118027  0.000194  3.878221  0.0
C  C49  1  0.04785686  0.06624102  0.98554771  1  0.148631  -0.000172  3.635512  0.0  0.51303  -0.000166  0.121526  -0.000114  3.882959  0.0  0.126837  -5.6e-05  3.890078  0.0  -0.000219  0.117886  -0.000194  3.878453  0.0
N  N50  1  0.14549059  0.86922686  0.33697699  1  -0.315128  -0.041895  3.382676  -0.066  -1.245027  0.009197  -0.19849  0.004008  3.616482  0.006  -0.225912  0.004123  3.636382  0.007  -0.324538  -0.183245  0.002902  3.604506  0.004
N  N51  1  0.64549429  0.63077233  0.66302170  1  -0.315066  0.041896  3.382453  0.066  -1.244955  -0.009199  -0.198496  -0.004009  3.61636  -0.006  -0.225863  -0.004123  3.636198  -0.007  -0.324525  -0.183209  -0.002902  3.604333  -0.004
N  N52  1  0.85451081  0.13077217  0.66302312  1  -0.315044  -0.041899  3.382468  -0.066  -1.24505  0.009197  -0.19839  0.004008  3.616265  0.006  -0.22581  0.004122  3.636162  0.007  -0.324461  -0.183143  0.002901  3.604283  0.004
N  N53  1  0.35451478  0.36922450  0.33697582  1  -0.314917  0.041895  3.382291  0.066  -1.245013  -0.009198  -0.198274  -0.004009  3.616075  -0.006  -0.225638  -0.004122  3.635917  -0.007  -0.324418  -0.182983  -0.002901  3.604043  -0.004
N  N54  1  0.25704874  0.15733116  0.52481244  1  -0.371938  0.070638  2.65824  0.102  -0.092548  -0.019587  -0.367634  -0.01369  2.959286  -0.015  -0.382845  -0.010273  2.965814  -0.01  -0.184839  -0.358283  -0.016342  2.954028  -0.019
N  N55  1  0.75704688  0.34267278  0.47519196  1  -0.371888  -0.070634  2.658271  -0.102  -0.092588  0.019584  -0.367525  0.013688  2.959277  0.015  -0.382754  0.01027  2.965788  0.01  -0.184782  -0.358194  0.016343  2.954024  0.019
N  N56  1  0.74295572  0.84266567  0.47518508  1  -0.371872  0.070623  2.658337  0.102  -0.092459  -0.019586  -0.367598  -0.01369  2.959386  -0.015  -0.382805  -0.010272  2.965914  -0.01  -0.184773  -0.358251  -0.016342  2.954132  -0.019
N  N57  1  0.24296372  0.65732952  0.52480640  1  -0.371834  -0.070635  2.658311  -0.102  -0.092555  0.01958  -0.367522  0.013686  2.959356  0.015  -0.382741  0.010268  2.965862  0.01  -0.184787  -0.358196  0.01634  2.95411  0.019
N  N58  1  0.35529272  0.40763468  0.60986016  1  -0.495133  -0.005993  2.803791  -0.013  -0.261642  -0.032608  -0.488536  -0.016243  3.141063  -0.024  -0.516674  -0.015122  3.148846  -0.023  -0.280974  -0.469508  -0.018414  3.133191  -0.027
N  N59  1  0.85530123  0.09236636  0.39013832  1  -0.494988  0.005998  2.80359  0.013  -0.261688  0.032612  -0.48835  0.016246  3.140833  0.024  -0.516507  0.015124  3.148655  0.023  -0.280944  -0.469327  0.018416  3.132965  0.027
N  N60  1  0.64471328  0.59236106  0.39013795  1  -0.495217  -0.005973  2.803582  -0.013  -0.262209  -0.032611  -0.48862  -0.016245  3.140818  -0.024  -0.516768  -0.015124  3.148608  -0.023  -0.281023  -0.46959  -0.018415  3.132945  -0.027
N  N61  1  0.14470016  0.90764033  0.60986239  1  -0.495128  0.005981  2.803385  0.013  -0.261908  0.032617  -0.488511  0.016248  3.140616  0.024  -0.516676  0.015127  3.148445  0.023  -0.280994  -0.46948  0.018419  3.132743  0.027
N  N62  1  0.30472066  0.28108047  0.56334492  1  0.387439  -0.002372  4.141708  -0.008  -0.313907  -0.007884  0.418922  -0.003423  4.43964  -0.006  0.436784  -0.002657  4.47263  -0.005  0.087027  0.407206  -0.003683  4.416376  -0.006
N  N63  1  0.80472243  0.21892366  0.43665846  1  0.387252  0.002365  4.141535  0.008  -0.313895  0.007887  0.418702  0.003424  4.439504  0.006  0.436565  0.002661  4.472505  0.005  0.086946  0.406987  0.003684  4.416246  0.006
N  N64  1  0.69528841  0.71892293  0.43665567  1  0.387456  -0.002365  4.141548  -0.008  -0.313412  -0.007882  0.418987  -0.003422  4.43939  -0.006  0.436847  -0.002658  4.472385  -0.005  0.087028  0.40727  -0.003682  4.416131  -0.006
N  N65  1  0.19528818  0.78107208  0.56333871  1  0.387329  0.002357  4.141306  0.008  -0.313655  0.007885  0.418826  0.003423  4.439209  0.006  0.436688  0.00266  4.472212  0.005  0.087005  0.407108  0.003682  4.415957  0.006
O  O66  1  0.30020142  0.51763397  0.88370024  1  -0.557483  -0.000705  2.100975  -0.001  -1.198504  -0.000225  -0.513498  -0.000158  2.334956  0.0  -0.530011  -0.000116  2.326098  0.0  -0.394241  -0.501471  -0.000174  2.340228  0.0
O  O67  1  0.80019459  0.98237029  0.11630240  1  -0.55743  0.000705  2.101052  0.001  -1.198563  0.000225  -0.513445  0.000158  2.334983  0.0  -0.529969  0.000118  2.326127  0.0  -0.394217  -0.501416  0.000174  2.340241  0.0
O  O68  1  0.69979690  0.48236398  0.11630045  1  -0.557493  -0.000705  2.101008  -0.001  -1.198496  -0.000224  -0.513583  -0.000158  2.334968  0.0  -0.530096  -0.000116  2.3261  0.0  -0.394291  -0.501547  -0.000174  2.34022  0.0
O  O69  1  0.19979759  0.01763313  0.88369912  1  -0.55753  0.000705  2.101013  0.001  -1.198496  0.000225  -0.513536  0.000158  2.334981  0.0  -0.530054  0.000117  2.326131  0.0  -0.394308  -0.501514  0.000174  2.340256  0.0
