# generated using pymatgen
data_CuH20C26(N3O2)2
_symmetry_space_group_name_H-M   'P 1'
_cell_length_a   7.95393525
_cell_length_b   11.03288461
_cell_length_c   14.18750523
_cell_angle_alpha   92.99257652
_cell_angle_beta   106.24729825
_cell_angle_gamma   92.18604277
_symmetry_Int_Tables_number   1
_chemical_formula_structural   CuH20C26(N3O2)2
_chemical_formula_sum   'Cu2 H40 C52 N12 O8'
_cell_volume   1191.86184053
_cell_formula_units_Z   2
loop_
 _symmetry_equiv_pos_site_id
 _symmetry_equiv_pos_as_xyz
  1  'x, y, z'
loop_
 _atom_site_type_symbol
 _atom_site_label
 _atom_site_symmetry_multiplicity
 _atom_site_fract_x
 _atom_site_fract_y
 _atom_site_fract_z
 _atom_site_occupancy
 _atom_site_pbe_bader_charge
 _atom_site_pbe_bader_spin_density
 _atom_site_pbe_cm5_charge
 _atom_site_pbe_ddec_charge
 _atom_site_pbe_ddec_spin_density
 _atom_site_pbe_ddec_sum_bond_order
 _atom_site_pbe_magmom
Cu  Cu0  1  0.50000335  0.00000148  0.00000034  1  1.045259  0.561352  0.728099  0.753886  0.748229  2.232437  0.562
Cu  Cu1  1  0.50000064  0.00000072  0.49999945  1  1.049377  -0.5511  0.743586  0.775508  -0.739615  2.17899  -0.552
H  H2  1  0.61083301  0.29114359  0.05593385  1  0.13323  4.7e-05  0.13807  0.107035  -5.2e-05  0.987264  0.0
H  H3  1  0.38917120  0.70886027  0.94406724  1  0.13319  4.7e-05  0.138067  0.107098  -5.2e-05  0.987228  0.0
H  H4  1  0.27392201  0.11337079  0.79681235  1  0.256638  8.9e-05  0.140515  0.116933  -0.000124  1.056372  0.0
H  H5  1  0.72607950  0.88663217  0.20318899  1  0.25657  8.9e-05  0.140521  0.116961  -0.000124  1.056352  0.0
H  H6  1  0.18749902  0.44351822  0.80012826  1  0.080997  0.000278  0.119839  0.108885  0.000158  0.974423  0.0
H  H7  1  0.81250258  0.55648562  0.19987524  1  0.081104  0.000278  0.119786  0.10879  0.000158  0.974574  0.0
H  H8  1  0.12048425  0.30270364  0.72972793  1  0.099167  -1.5e-05  0.11868  0.106336  -2.9e-05  0.985691  0.0
H  H9  1  0.87950953  0.69730021  0.27027859  1  0.099255  -1.5e-05  0.1187  0.106363  -2.9e-05  0.985629  0.0
H  H10  1  0.32996563  0.59551918  0.73375075  1  0.053993  -2.4e-05  0.09373  0.092496  -1.5e-05  1.045512  0.0
H  H11  1  0.67003556  0.40448014  0.26625037  1  0.054004  -2.4e-05  0.093715  0.0925  -1.5e-05  1.045535  0.0
H  H12  1  0.45070211  0.66228352  0.60353913  1  0.085463  -0.000295  0.098722  0.108076  -0.000376  1.045476  0.0
H  H13  1  0.54929211  0.33771131  0.39645718  1  0.085317  -0.000296  0.098715  0.108053  -0.000376  1.045488  0.0
H  H14  1  0.48414888  0.28666597  0.51002125  1  0.08737  0.000135  0.098297  0.10581  0.00012  1.058144  0.0
H  H15  1  0.51583579  0.71332433  0.48997760  1  0.08747  0.000135  0.098268  0.105821  0.00012  1.05819  0.0
H  H16  1  0.35706186  0.22103845  0.63793694  1  0.129783  3.2e-05  0.097114  0.113386  2.6e-05  1.051084  0.0
H  H17  1  0.64292454  0.77895636  0.36206591  1  0.129195  3.2e-05  0.097131  0.113355  2.6e-05  1.051158  0.0
H  H18  1  0.07078693  0.92629400  0.43828705  1  0.155763  -0.000122  0.138086  0.10647  4e-06  0.997803  0.0
H  H19  1  0.92921212  0.07371080  0.56171258  1  0.155837  -0.000122  0.13808  0.106442  4e-06  0.997866  0.0
H  H20  1  0.40196863  0.03947300  0.26863786  1  0.263843  -0.000173  0.141222  0.136053  3.9e-05  1.061294  0.0
H  H21  1  0.59803271  0.96052815  0.73136195  1  0.26386  -0.000173  0.14119  0.135974  3.9e-05  1.06131  0.0
H  H22  1  0.19954348  0.98817381  0.10402210  1  0.094258  -0.000222  0.120235  0.109215  -0.000204  0.994674  0.0
H  H23  1  0.80045901  0.01182551  0.89597781  1  0.094268  -0.000222  0.12026  0.109234  -0.000204  0.994641  0.0
H  H24  1  0.97175146  0.99472484  0.09754550  1  0.126282  0.000185  0.116936  0.120158  0.000263  1.010036  0.0
H  H25  1  0.02825234  0.00527448  0.90245391  1  0.126289  0.000185  0.11693  0.120214  0.000263  1.009963  0.0
H  H26  1  0.28801449  0.75410790  0.19975470  1  0.078202  -1.1e-05  0.100029  0.101503  -3e-06  1.011401  0.0
H  H27  1  0.71198915  0.24588959  0.80024602  1  0.077869  -1.1e-05  0.09996  0.101423  -3e-06  1.011412  0.0
H  H28  1  0.24764899  0.54241829  0.13831938  1  0.067475  7e-06  0.100561  0.098088  8e-06  1.029959  0.0
H  H29  1  0.75235611  0.45758105  0.86167812  1  0.067501  7e-06  0.100541  0.098055  8e-06  1.029995  0.0
H  H30  1  0.78243943  0.62552338  0.91269643  1  0.082122  -9e-06  0.103933  0.10501  -3e-06  1.010766  0.0
H  H31  1  0.21756429  0.37447503  0.08730364  1  0.082112  -9e-06  0.103923  0.105015  -3e-06  1.010743  0.0
H  H32  1  0.82604469  0.83748936  0.97397059  1  0.058671  -0.000102  0.10011  0.099916  -0.000101  1.031397  0.0
H  H33  1  0.17395634  0.16250813  0.02603183  1  0.058634  -0.000102  0.100122  0.099919  -0.000101  1.031321  0.0
H  H34  1  0.07391575  0.73755500  0.50074320  1  0.046243  0.000101  0.103818  0.104747  3.7e-05  1.001975  0.0
H  H35  1  0.92608150  0.26244435  0.49925519  1  0.046271  0.000101  0.103832  0.104732  3.7e-05  1.002011  0.0
H  H36  1  0.86461361  0.59755452  0.54784692  1  0.08899  -5.9e-05  0.100769  0.101424  -1.7e-05  1.028485  0.0
H  H37  1  0.13539249  0.40244113  0.45215480  1  0.088972  -5.9e-05  0.100779  0.101436  -1.7e-05  1.028458  0.0
H  H38  1  0.85429939  0.60092880  0.72206923  1  0.067576  1.1e-05  0.100511  0.098973  -1e-06  1.006576  0.0
H  H39  1  0.14570843  0.39907138  0.27793437  1  0.067532  1.1e-05  0.100514  0.098989  -1e-06  1.006552  0.0
H  H40  1  0.06550218  0.73931373  0.84939514  1  0.078649  5.4e-05  0.09695  0.099049  0.000123  1.045301  0.0
H  H41  1  0.93449972  0.26069379  0.15060294  1  0.078595  5.4e-05  0.096963  0.099083  0.000123  1.045269  0.0
C  C42  1  0.51760659  0.27363572  0.98409714  1  0.981844  -0.000187  0.147723  0.148592  0.00042  3.986024  0.001
C  C43  1  0.48239369  0.72636815  0.01590334  1  0.981802  -0.000186  0.147656  0.148351  0.000421  3.985835  0.001
C  C44  1  0.34932183  0.17962202  0.85363150  1  0.936419  -0.000773  0.164672  0.092574  3e-05  3.871706  0.0
C  C45  1  0.65067846  0.82038184  0.14637110  1  0.93636  -0.000773  0.1646  0.092454  3e-05  3.871692  0.0
C  C46  1  0.23404294  0.36488656  0.76610227  1  0.289384  0.000783  -0.037977  -0.12976  0.000597  3.888071  0.001
C  C47  1  0.76595213  0.63511730  0.23390163  1  0.289302  0.000783  -0.037897  -0.129715  0.000597  3.888051  0.001
C  C48  1  0.33004515  0.40406815  0.69395279  1  0.009044  -3.6e-05  -0.021294  0.078726  -3.3e-05  3.99713  0.0
C  C49  1  0.66995081  0.59593118  0.30604892  1  0.008979  -3.6e-05  -0.021365  0.078675  -3.3e-05  3.997235  0.0
C  C50  1  0.36357658  0.52739346  0.68447495  1  -0.055529  0.000123  -0.096841  -0.133481  9.2e-05  4.012611  0.0
C  C51  1  0.63641914  0.47260315  0.31552590  1  -0.055822  0.000123  -0.096797  -0.13349  9.2e-05  4.012602  0.0
C  C52  1  0.43267634  0.56508433  0.61007040  1  -0.097424  -0.000427  -0.093919  -0.128549  -0.000293  3.966305  0.0
C  C53  1  0.56731912  0.43490956  0.38992888  1  -0.097222  -0.000427  -0.093869  -0.128436  -0.000293  3.966264  0.0
C  C54  1  0.47136271  0.48021702  0.54257182  1  0.019393  0.000115  -0.011473  0.057215  7.1e-05  3.989591  0.0
C  C55  1  0.52862997  0.51977507  0.45742694  1  -0.02068  0.000115  -0.01148  0.057231  7.1e-05  3.989725  0.0
C  C56  1  0.45010905  0.35592149  0.55799832  1  -0.123162  4.6e-05  -0.092843  -0.127666  6.2e-05  3.97334  0.0
C  C57  1  0.54987987  0.64407243  0.44200135  1  -0.123116  4.6e-05  -0.092786  -0.127726  6.2e-05  3.973577  0.0
C  C58  1  0.37917605  0.31826635  0.63158069  1  -0.037307  5.1e-05  -0.100298  -0.146906  7.5e-05  3.986708  0.0
C  C59  1  0.62081288  0.68172755  0.36842040  1  -0.036617  5.1e-05  -0.100345  -0.14685  7.5e-05  3.986958  0.0
C  C60  1  0.12286934  0.94365102  0.37721239  1  0.97672  -0.000292  0.151731  0.153309  -0.000816  3.970228  -0.001
C  C61  1  0.87712955  0.05635196  0.62278713  1  0.976615  -0.000292  0.151764  0.153421  -0.000815  3.970235  -0.001
C  C62  1  0.29444080  0.00256630  0.29384382  1  0.944789  6.3e-05  0.166473  0.091189  -0.000418  3.839911  0.0
C  C63  1  0.70556062  0.99743576  0.70615605  1  0.944822  6.3e-05  0.166502  0.091243  -0.000418  3.839837  0.0
C  C64  1  0.09059526  0.94496484  0.12596688  1  0.29857  -0.000319  -0.042182  -0.146968  -0.000284  3.875294  0.0
C  C65  1  0.90940732  0.05503538  0.87403380  1  0.298584  -0.00032  -0.042205  -0.146984  -0.000284  3.875251  0.0
C  C66  1  0.06187254  0.81258704  0.09041226  1  -0.037875  -0.00018  -0.014202  0.091901  -0.000149  3.979593  0.0
C  C67  1  0.93812995  0.18741228  0.90958765  1  -0.037292  -0.00018  -0.014154  0.09185  -0.000149  3.979737  0.0
C  C68  1  0.17686917  0.72651605  0.13614634  1  -0.076386  -0.000146  -0.096489  -0.134977  -9.8e-05  3.996054  0.0
C  C69  1  0.82313578  0.27348145  0.86385387  1  -0.07668  -0.000146  -0.096443  -0.134836  -9.8e-05  3.996094  0.0
C  C70  1  0.15243290  0.60515771  0.10124123  1  0.029458  7e-06  -0.089823  -0.121635  0.0  3.985093  0.0
C  C71  1  0.84757343  0.39484069  0.89875783  1  0.029496  7e-06  -0.089812  -0.121665  0.0  3.985087  0.0
C  C72  1  0.01216179  0.56450309  0.01905126  1  -0.089543  -0.000141  -0.009755  0.057919  -9.1e-05  3.993104  0.0
C  C73  1  0.98784593  0.43549621  0.98094806  1  -0.046792  -0.00014  -0.009754  0.05792  -9.1e-05  3.993142  0.0
C  C74  1  0.89595749  0.65177194  0.97486465  1  -0.112479  -3.6e-05  -0.088925  -0.117671  -3.2e-05  3.975392  0.0
C  C75  1  0.10404507  0.34822830  0.02513461  1  -0.112288  -3.6e-05  -0.088929  -0.117696  -3.2e-05  3.975368  0.0
C  C76  1  0.92047626  0.77330815  0.00975135  1  0.017969  -0.000313  -0.09414  -0.134203  -0.000228  3.990527  0.0
C  C77  1  0.07952746  0.22669024  0.99025012  1  0.01797  -0.000313  -0.094143  -0.134166  -0.000228  3.990348  0.0
C  C78  1  0.18724964  0.81813623  0.64750616  1  -0.012553  -0.008392  -0.007179  -0.03201  -0.006155  3.921817  -0.007
C  C79  1  0.81275038  0.18186495  0.35249063  1  -0.012543  -0.008391  -0.007151  -0.031851  -0.006155  3.921881  -0.007
C  C80  1  0.07094756  0.73831718  0.57715623  1  -0.020721  -0.001255  -0.084588  -0.102749  -0.000858  3.969239  -0.001
C  C81  1  0.92905108  0.26168308  0.42284242  1  -0.020821  -0.001255  -0.084588  -0.102749  -0.000858  3.969177  -0.001
C  C82  1  0.95302266  0.65943646  0.60369697  1  -0.017827  0.001198  -0.085222  -0.064256  0.0008  3.987977  0.001
C  C83  1  0.04697983  0.34056286  0.39630294  1  -0.017773  0.001199  -0.085244  -0.064297  0.000801  3.98795  0.001
C  C84  1  0.94814456  0.66106448  0.70130044  1  -0.08054  -0.002267  -0.090989  -0.080619  -0.001542  4.002326  -0.001
C  C85  1  0.05185818  0.33893756  0.29870034  1  -0.080519  -0.002267  -0.09096  -0.080586  -0.001542  4.00214  -0.001
C  C86  1  0.06538181  0.73901570  0.77249768  1  -0.048038  0.000296  -0.091641  -0.111904  0.000255  3.983934  0.0
C  C87  1  0.93461985  0.26098909  0.22750094  1  -0.048086  0.000296  -0.091619  -0.111832  0.000256  3.983761  0.0
C  C88  1  0.18743960  0.81598589  0.74681138  1  -0.034293  0.006503  -0.014745  -0.051705  0.004899  3.946806  0.006
C  C89  1  0.81256197  0.18401800  0.25318578  1  -0.034259  0.006503  -0.0148  -0.051968  0.004899  3.947166  0.006
C  C90  1  0.32769001  0.88426393  0.82713398  1  1.539456  -0.001993  0.19612  0.554566  -0.000499  4.222801  -0.004
C  C91  1  0.67231403  0.11573812  0.17286559  1  1.539356  -0.001993  0.196077  0.554598  -0.000499  4.222859  -0.004
C  C92  1  0.29869453  0.91061696  0.61396480  1  1.57019  0.001508  0.197182  0.551353  -0.000149  4.247604  0.003
C  C93  1  0.70130819  0.08938511  0.38603245  1  1.570148  0.001508  0.197115  0.551167  -0.000149  4.247706  0.003
N  N94  1  0.46067421  0.15953414  0.94116113  1  -1.192624  0.074393  -0.375395  -0.341996  0.051532  3.619222  0.065
N  N95  1  0.53932861  0.84046881  0.05884041  1  -1.192564  0.074393  -0.375274  -0.341734  0.051531  3.61895  0.065
N  N96  1  0.44732279  0.36162660  0.92856030  1  -0.678414  0.007896  -0.217643  -0.257872  0.005282  3.101379  0.006
N  N97  1  0.55267743  0.63837635  0.07144225  1  -0.678555  0.007897  -0.217629  -0.257829  0.005283  3.101309  0.006
N  N98  1  0.34120694  0.29990146  0.84659392  1  -0.796706  0.00228  -0.128858  0.177082  0.001513  3.737534  0.002
N  N99  1  0.65879196  0.70010149  0.15340913  1  -0.796371  0.00228  -0.128859  0.177133  0.001513  3.737444  0.002
N  N100  1  0.28828035  0.99223074  0.38664826  1  -1.197844  -0.07181  -0.373908  -0.325855  -0.05003  3.600422  -0.062
N  N101  1  0.71171984  0.00777223  0.61335075  1  -1.197826  -0.07181  -0.373895  -0.325817  -0.050029  3.60033  -0.062
N  N102  1  0.02890129  0.92229813  0.28441636  1  -0.678214  -0.007371  -0.209547  -0.250366  -0.004894  3.140223  -0.006
N  N103  1  0.97109883  0.07770393  0.71558331  1  -0.678224  -0.007372  -0.209576  -0.250501  -0.004895  3.140293  -0.006
N  N104  1  0.14022627  0.96026808  0.23297187  1  -0.841765  -0.002143  -0.130502  0.181372  -0.001412  3.734398  -0.002
N  N105  1  0.85977499  0.03973216  0.76702859  1  -0.841795  -0.002142  -0.130526  0.181358  -0.001412  3.734419  -0.002
O  O106  1  0.28106310  0.92719649  0.90239728  1  -1.116813  0.118927  -0.323587  -0.533306  0.078605  2.313574  0.108
O  O107  1  0.71893685  0.07280376  0.09760157  1  -1.116794  0.118934  -0.323581  -0.533304  0.07861  2.313626  0.108
O  O108  1  0.48305919  0.89198122  0.82233755  1  -1.177909  0.000719  -0.323261  -0.563295  0.000253  2.178545  0.002
O  O109  1  0.51694468  0.10801902  0.17766050  1  -1.177819  0.000719  -0.323251  -0.563287  0.000253  2.178537  0.002
O  O110  1  0.38791819  0.86733544  0.55717813  1  -1.109253  -0.120504  -0.32211  -0.540847  -0.080069  2.330216  -0.109
O  O111  1  0.61208559  0.13266389  0.44281987  1  -1.109207  -0.120498  -0.322036  -0.540723  -0.080066  2.330188  -0.109
O  O112  1  0.29415098  0.02116924  0.63705607  1  -1.163524  -0.001361  -0.31854  -0.561489  -0.000602  2.178097  -0.002
O  O113  1  0.70584895  0.97883104  0.36293926  1  -1.163459  -0.001361  -0.318579  -0.56149  -0.000602  2.178056  -0.002
