# generated using pymatgen
data_Zn3TeMo6H60C32(NO5)8
_symmetry_space_group_name_H-M   'P 1'
_cell_length_a   9.55570414
_cell_length_b   13.65851682
_cell_length_c   13.92500000
_cell_angle_alpha   115.97980347
_cell_angle_beta   95.52164566
_cell_angle_gamma   97.14410255
_symmetry_Int_Tables_number   1
_chemical_formula_structural   Zn3TeMo6H60C32(NO5)8
_chemical_formula_sum   'Zn3 Te1 Mo6 H60 C32 N8 O40'
_cell_volume   1597.80144932
_cell_formula_units_Z   1
loop_
 _symmetry_equiv_pos_site_id
 _symmetry_equiv_pos_as_xyz
  1  'x, y, z'
loop_
 _atom_site_type_symbol
 _atom_site_label
 _atom_site_symmetry_multiplicity
 _atom_site_fract_x
 _atom_site_fract_y
 _atom_site_fract_z
 _atom_site_occupancy
 _atom_site_hle17_bader_spin_density
 _atom_site_hle17_ddec_charge
 _atom_site_hle17_ddec_spin_density
 _atom_site_hle17_ddec_sum_bond_order
 _atom_site_hle17_magmom
 _atom_site_hse06_10hf_bader_spin_density
 _atom_site_hse06_10hf_ddec_charge
 _atom_site_hse06_10hf_ddec_spin_density
 _atom_site_hse06_10hf_ddec_sum_bond_order
 _atom_site_hse06_10hf_magmom
 _atom_site_hse06_bader_spin_density
 _atom_site_hse06_ddec_charge
 _atom_site_hse06_ddec_spin_density
 _atom_site_hse06_ddec_sum_bond_order
 _atom_site_hse06_magmom
 _atom_site_pbe_bader_charge
 _atom_site_pbe_bader_spin_density
 _atom_site_pbe_cm5_charge
 _atom_site_pbe_ddec_charge
 _atom_site_pbe_ddec_spin_density
 _atom_site_pbe_ddec_sum_bond_order
 _atom_site_pbe_magmom
Zn  Zn0  1  0.36280906  0.26018381  0.41669482  1  0  1.187219  0  1.706585  0  0  1.032704  0  2.151348  0  0  1.0765  0  2.094079  0  1.364797  0  0.677564  1.002455  0  2.190312  0
Zn  Zn1  1  0.63993417  0.73700550  0.58773207  1  0  1.174799  0  1.718458  0  0  1.024373  0  2.160663  0  0  1.068084  0  2.103236  0  1.36143  0  0.669959  0.994204  0  2.199646  0
Zn  Zn2  1  0.49913605  0.50069391  0.99754807  1  0  1.104402  0  1.702472  0  0  0.932655  0  2.139711  0  0  0.974655  0  2.090719  0  1.327478  0  0.698462  0.903124  0  2.173485  0
Te  Te3  1  0.00131201  0.49836297  0.49877973  1  0  2.073507  0  4.943447  0  0  1.969136  0  5.531204  0  0  2.034092  0  5.494828  0  3.02226  0  0.962199  1.921926  0  5.554551  0
Mo  Mo4  1  0.76545160  0.27831986  0.43843038  1  0  2.21865  0  4.097688  0  0  2.212078  0  4.626425  0  0  2.310913  0  4.597791  0  2.625379  0  1.532021  2.140215  0  4.652508  0
Mo  Mo5  1  0.23457226  0.72069226  0.56144612  1  0  2.212774  0  4.107133  0  0  2.206373  0  4.63656  0  0  2.304955  0  4.608091  0  2.631207  0  1.528582  2.13399  0  4.663646  0
Mo  Mo6  1  0.99526473  0.38292853  0.66848405  1  0  2.174127  0  4.078353  0  0  2.164547  0  4.625537  0  0  2.261999  0  4.592747  0  2.586394  0  1.486862  2.093481  0  4.654743  0
Mo  Mo7  1  0.00602316  0.61617228  0.33178763  1  0  2.173277  0  4.086953  0  0  2.164013  0  4.634191  0  0  2.261844  0  4.601014  0  2.588835  0  1.481727  2.092867  0  4.663303  0
Mo  Mo8  1  0.22562658  0.61552820  0.73798473  1  0  2.194554  0  4.091089  0  0  2.184349  0  4.638784  0  0  2.282568  0  4.607291  0  2.624794  0  1.491961  2.11096  0  4.669609  0
Mo  Mo9  1  0.76927075  0.38711626  0.26622996  1  0  2.20126  0  4.089982  0  0  2.194765  0  4.632053  0  0  2.292708  0  4.602018  0  2.616589  0  1.489665  2.120894  0  4.662867  0
H  H10  1  0.08313263  0.27175311  0.40449072  1  0  0.455904  0  0.843962  0  0  0.421385  0  0.911541  0  0  0.434144  0  0.893003  0  0.653674  0  0.285777  0.412413  0  0.924516  0
H  H11  1  0.92047260  0.72826283  0.59755447  1  0  0.453073  0  0.84602  0  0  0.419534  0  0.911977  0  0  0.431973  0  0.893911  0  0.654371  0  0.287108  0.410763  0  0.924663  0
H  H12  1  0.14048011  0.23490905  0.29207670  1  0  0.426167  0  0.81795  0  0  0.410103  0  0.868726  0  0  0.41904  0  0.858472  0  0.62535  0  0.317687  0.403704  0  0.876226  0
H  H13  1  0.86393295  0.76450012  0.70961174  1  0  0.43085  0  0.808825  0  0  0.41526  0  0.858207  0  0  0.424016  0  0.848376  0  0.617071  0  0.320961  0.409006  0  0.86537  0
H  H14  1  0.16031206  0.09878797  0.45962061  1  0  0.097416  0  0.920343  0  0  0.1075  0  0.97985  0  0  0.110411  0  0.976797  0  0.109444  0  0.125419  0.105156  0  0.98245  0
H  H15  1  0.83984569  0.89800678  0.54087392  1  0  0.097692  0  0.920845  0  0  0.107997  0  0.979933  0  0  0.110826  0  0.97696  0  0.142585  0  0.125313  0.105731  0  0.982452  0
H  H16  1  0.30950156  0.47376877  0.47268700  1  0  0.456589  0  0.839703  0  0  0.421396  0  0.908001  0  0  0.434313  0  0.889243  0  0.651605  0  0.289359  0.412203  0  0.921399  0
H  H17  1  0.69944111  0.53568117  0.53849951  1  0  0.442783  0  0.855528  0  0  0.412546  0  0.916401  0  0  0.424452  0  0.899019  0  0.643291  0  0.284651  0.404063  0  0.928813  0
H  H18  1  0.41073066  0.44136857  0.37923500  1  0  0.434876  0  0.805004  0  0  0.415746  0  0.85759  0  0  0.42467  0  0.847624  0  0.624765  0  0.324198  0.409147  0  0.865358  0
H  H19  1  0.53608965  0.52971374  0.54193502  1  0  0.423283  0  0.870214  0  0  0.395551  0  0.930063  0  0  0.405961  0  0.914897  0  0.643248  0  0.293901  0.3881  0  0.940962  0
H  H20  1  0.13653355  0.90392447  0.43937046  1  0  0.132007  0  0.95519  0  0  0.142278  0  1.010228  0  0  0.146184  0  1.008368  0  0.163665  0  0.113167  0.139605  0  1.011127  0
H  H21  1  0.86256556  0.09179847  0.55844069  1  0  0.129616  0  0.952707  0  0  0.140892  0  1.006682  0  0  0.144727  0  1.004947  0  0.136501  0  0.113183  0.138269  0  1.007491  0
H  H22  1  0.44767545  0.26701332  0.24108721  1  0  0.432466  0  0.866016  0  0  0.405878  0  0.923128  0  0  0.416147  0  0.908275  0  0.639481  0  0.288222  0.398553  0  0.933734  0
H  H23  1  0.55992929  0.73183881  0.76077372  1  0  0.439354  0  0.852779  0  0  0.413628  0  0.907872  0  0  0.423745  0  0.893206  0  0.647378  0  0.292251  0.406395  0  0.918389  0
H  H24  1  0.37721735  0.14034032  0.20300963  1  0  0.431135  0  0.87045  0  0  0.399984  0  0.935136  0  0  0.410832  0  0.919237  0  0.659545  0  0.292664  0.392353  0  0.946294  0
H  H25  1  0.61960187  0.86106988  0.80073125  1  0  0.42784  0  0.874328  0  0  0.396669  0  0.939208  0  0  0.407335  0  0.923552  0  0.672938  0  0.292733  0.389162  0  0.950204  0
H  H26  1  0.18535256  0.77784581  0.99918570  1  0  0.311536  0  0.920382  0  0  0.299667  0  0.974657  0  0  0.30808  0  0.967631  0  0.533656  0  0.302873  0.29347  0  0.980105  0
H  H27  1  0.81484624  0.22517250  0.00109659  1  0  0.311035  0  0.915373  0  0  0.300284  0  0.96783  0  0  0.308521  0  0.960916  0  0.526319  0  0.304519  0.294188  0  0.973246  0
H  H28  1  0.32992025  0.79729736  0.37120848  1  0  0.119181  0  0.943007  0  0  0.126092  0  1.008156  0  0  0.130324  0  1.003986  0  0.136335  0  0.114996  0.122844  0  1.011319  0
H  H29  1  0.66963204  0.19898593  0.62689060  1  0  0.119173  0  0.942716  0  0  0.126397  0  1.007458  0  0  0.130671  0  1.00328  0  0.124743  0  0.115176  0.123134  0  1.01059  0
H  H30  1  0.30116247  0.37709041  0.62215840  1  0  0.449727  0  0.845728  0  0  0.418915  0  0.908075  0  0  0.430754  0  0.89089  0  0.659753  0  0.288744  0.410489  0  0.920295  0
H  H31  1  0.69687083  0.62277384  0.38056249  1  0  0.445838  0  0.852075  0  0  0.415254  0  0.914619  0  0  0.427187  0  0.897192  0  0.653268  0  0.285862  0.406761  0  0.926992  0
H  H32  1  0.38901943  0.28484350  0.62150579  1  0  0.42356  0  0.87634  0  0  0.393694  0  0.938092  0  0  0.403796  0  0.923458  0  0.645436  0  0.295717  0.386587  0  0.948402  0
H  H33  1  0.60639169  0.71295922  0.38065887  1  0  0.422943  0  0.87682  0  0  0.393861  0  0.937053  0  0  0.403897  0  0.922549  0  0.64395  0  0.293674  0.386787  0  0.947307  0
H  H34  1  0.71308422  0.00472404  0.33756425  1  0  0.307245  0  0.94024  0  0  0.292862  0  0.998579  0  0  0.301235  0  0.991918  0  0.506414  0  0.302329  0.28688  0  1.003388  0
H  H35  1  0.28731098  0.99369373  0.66268248  1  0  0.307784  0  0.941293  0  0  0.293318  0  0.999561  0  0  0.301748  0  0.992845  0  0.539493  0  0.302633  0.287293  0  1.004438  0
H  H36  1  0.43924818  0.52405301  0.19334101  1  0  0.433994  0  0.806707  0  0  0.415607  0  0.861965  0  0  0.423989  0  0.85237  0  0.598472  0  0.325652  0.409489  0  0.869201  0
H  H37  1  0.57253660  0.47503453  0.80186440  1  0  0.445611  0  0.788736  0  0  0.428353  0  0.840403  0  0  0.436602  0  0.83107  0  0.642943  0  0.333127  0.422327  0  0.847465  0
H  H38  1  0.46030624  0.64333781  0.20221954  1  0  0.440965  0  0.859643  0  0  0.406413  0  0.928244  0  0  0.417493  0  0.912176  0  0.661935  0  0.297648  0.398654  0  0.939482  0
H  H39  1  0.54140547  0.35678755  0.79571388  1  0  0.441584  0  0.858158  0  0  0.406812  0  0.927121  0  0  0.417868  0  0.911044  0  0.659605  0  0.298729  0.399052  0  0.938395  0
H  H40  1  0.54031122  0.07837652  0.34012341  1  0  0.080071  0  0.989695  0  0  0.082796  0  1.064529  0  0  0.08615  0  1.060414  0  0.129178  0  0.119184  0.080413  0  1.067324  0
H  H41  1  0.46193771  0.92048391  0.66324453  1  0  0.07995  0  0.985478  0  0  0.08359  0  1.059284  0  0  0.086916  0  1.055194  0  0.128094  0  0.119549  0.081149  0  1.062132  0
H  H42  1  0.26746028  0.45384721  0.82811396  1  0  0.433318  0  0.860043  0  0  0.400199  0  0.930035  0  0  0.411612  0  0.913318  0  0.655877  0  0.294184  0.392191  0  0.941704  0
H  H43  1  0.73164490  0.54865385  0.17063150  1  0  0.431729  0  0.855328  0  0  0.398854  0  0.928657  0  0  0.409933  0  0.912379  0  0.634838  0  0.296159  0.391074  0  0.940029  0
H  H44  1  0.18937143  0.47093218  0.92480855  1  0  0.443562  0  0.799464  0  0  0.427284  0  0.851346  0  0  0.435602  0  0.841702  0  0.621366  0  0.323926  0.42133  0  0.858357  0
H  H45  1  0.81212432  0.53053935  0.07530914  1  0  0.442754  0  0.800691  0  0  0.426363  0  0.852903  0  0  0.434742  0  0.843137  0  0.64059  0  0.322847  0.420375  0  0.859982  0
H  H46  1  0.75906331  0.77829757  0.19694376  1  0  0.065516  0  0.945145  0  0  0.078122  0  1.014987  0  0  0.07848  0  1.015021  0  0.080085  0  0.102355  0.077951  0  1.015111  0
H  H47  1  0.24187908  0.22080490  0.80263364  1  0  0.064868  0  0.945116  0  0  0.078048  0  1.014176  0  0  0.078339  0  1.014269  0  0.069916  0  0.102355  0.077881  0  1.014278  0
H  H48  1  0.86958142  0.85000041  0.32370126  1  0  0.082149  0  0.95126  0  0  0.103514  0  1.005446  0  0  0.103545  0  1.005589  0  0.10813  0  0.105363  0.104135  0  1.004494  0
H  H49  1  0.13130967  0.14813138  0.67600506  1  0  0.080795  0  0.951512  0  0  0.102319  0  1.006304  0  0  0.102343  0  1.006362  0  0.120363  0  0.105011  0.102969  0  1.005344  0
H  H50  1  0.96001757  0.00529434  0.28396922  1  0  0.081974  0  0.935882  0  0  0.099106  0  0.997117  0  0  0.099985  0  0.997109  0  0.074985  0  0.093263  0.098225  0  0.997436  0
H  H51  1  0.04058064  0.99416539  0.71769013  1  0  0.083075  0  0.936745  0  0  0.099818  0  0.99791  0  0  0.10068  0  0.997964  0  0.042988  0  0.093608  0.098924  0  0.998232  0
H  H52  1  0.83610054  0.94735931  0.16306288  1  0  0.061541  0  0.952027  0  0  0.08002  0  1.012536  0  0  0.080211  0  1.013739  0  0.006046  0  0.087202  0.080101  0  1.011339  0
H  H53  1  0.16409895  0.05346483  0.83891439  1  0  0.061361  0  0.951302  0  0  0.079651  0  1.011538  0  0  0.079877  0  1.012674  0  0.002274  0  0.086733  0.079735  0  1.010358  0
H  H54  1  0.07906533  0.83925755  0.21208475  1  0  0.074831  0  0.945937  0  0  0.093106  0  1.005838  0  0  0.093068  0  1.008113  0  0.038606  0  0.092913  0.093303  0  1.003776  0
H  H55  1  0.92137585  0.16029254  0.78707020  1  0  0.075226  0  0.946197  0  0  0.093089  0  1.006448  0  0  0.093121  0  1.00867  0  0.056346  0  0.092827  0.093246  0  1.004413  0
H  H56  1  0.95181770  0.77603378  0.09242647  1  0  0.063072  0  0.934391  0  0  0.082569  0  0.992565  0  0  0.08268  0  0.993478  0  -0.009147  0  0.09035  0.082492  0  0.991845  0
H  H57  1  0.04827872  0.22488652  0.90684420  1  0  0.062021  0  0.935533  0  0  0.081402  0  0.99402  0  0  0.081554  0  0.994889  0  0.035634  0  0.089473  0.081298  0  0.993325  0
H  H58  1  0.03377562  0.92588187  0.04375627  1  0  0.046402  0  0.914699  0  0  0.064495  0  0.975628  0  0  0.064462  0  0.975225  0  0.023409  0  0.100247  0.065225  0  0.974973  0
H  H59  1  0.96586041  0.07665815  0.95784529  1  0  0.046161  0  0.915219  0  0  0.064176  0  0.97602  0  0  0.064133  0  0.975631  0  0.028711  0  0.099856  0.064902  0  0.97538  0
H  H60  1  0.15203117  0.00068884  0.16929688  1  0  0.074915  0  0.925916  0  0  0.092394  0  0.985489  0  0  0.09308  0  0.985417  0  0.070859  0  0.112248  0.091692  0  0.985939  0
H  H61  1  0.84703283  0.00112402  0.83273493  1  0  0.077745  0  0.92484  0  0  0.095096  0  0.984032  0  0  0.095807  0  0.983982  0  0.094313  0  0.113593  0.094385  0  0.984462  0
H  H62  1  0.60032359  0.94961730  0.02237353  1  0  0.112409  0  0.933523  0  0  0.122297  0  0.991811  0  0  0.125584  0  0.988749  0  0.110579  0  0.116655  0.119671  0  0.994216  0
H  H63  1  0.40089609  0.05532660  0.98212419  1  0  0.111761  0  0.934896  0  0  0.12218  0  0.992879  0  0  0.125523  0  0.989763  0  0.120705  0  0.116675  0.119489  0  0.995372  0
H  H64  1  0.77703781  0.82195788  0.95626973  1  0  0.108493  0  0.933819  0  0  0.120489  0  0.986159  0  0  0.123691  0  0.985005  0  0.096664  0  0.116757  0.118675  0  0.986348  0
H  H65  1  0.22329945  0.18274398  0.04553286  1  0  0.108519  0  0.93343  0  0  0.120435  0  0.986025  0  0  0.123614  0  0.984953  0  0.085669  0  0.115912  0.11863  0  0.986173  0
H  H66  1  0.72648442  0.63535858  0.95035606  1  0  0.090482  0  0.919105  0  0  0.104233  0  0.971979  0  0  0.106128  0  0.970269  0  0.104769  0  0.130351  0.102736  0  0.973418  0
H  H67  1  0.27282018  0.36773185  0.04757214  1  0  0.089553  0  0.922153  0  0  0.103102  0  0.975722  0  0  0.10517  0  0.973767  0  0.126385  0  0.128639  0.101518  0  0.977285  0
H  H68  1  0.33857565  0.68882921  0.05483036  1  0  0.090691  0  0.923982  0  0  0.101784  0  0.983647  0  0  0.104306  0  0.981056  0  0.12019  0  0.12807  0.099867  0  0.985672  0
H  H69  1  0.66071345  0.31291007  0.94368754  1  0  0.090528  0  0.923683  0  0  0.100872  0  0.98408  0  0  0.103556  0  0.981211  0  0.118887  0  0.128098  0.098848  0  0.986279  0
C  C70  1  0.24057621  0.04786876  0.42855863  1  0  0.14218  0  3.66132  0  0  0.107779  0  3.917579  0  0  0.116483  0  3.933811  0  0.477349  0  0.056113  0.101698  0  3.907  0
C  C71  1  0.75963304  0.94900473  0.57181803  1  0  0.140424  0  3.66185  0  0  0.10612  0  3.918491  0  0  0.114855  0  3.93475  0  0.408234  0  0.055471  0.1  0  3.90786  0
C  C72  1  0.22833011  0.94091442  0.41801974  1  0  -0.114919  0  3.699265  0  0  -0.126407  0  3.9562  0  0  -0.134152  0  3.97584  0  -0.046363  0  -0.078856  -0.121172  0  3.941978  0
C  C73  1  0.77137542  0.05545094  0.58092903  1  0  -0.114028  0  3.700479  0  0  -0.126119  0  3.957863  0  0  -0.133872  0  3.977635  0  -0.015756  0  -0.078629  -0.120865  0  3.943538  0
C  C74  1  0.33602196  0.88106935  0.37970058  1  0  -0.000882  0  3.649139  0  0  -0.035015  0  3.904451  0  0  -0.028559  0  3.919694  0  -0.028204  0  -0.054707  -0.038284  0  3.893228  0
C  C75  1  0.66395755  0.11557867  0.61932094  1  0  -0.002955  0  3.655216  0  0  -0.03773  0  3.911234  0  0  -0.031359  0  3.92661  0  0.005964  0  -0.055681  -0.040926  0  3.899902  0
C  C76  1  0.45318074  0.93001986  0.35254101  1  0  -0.121051  0  3.762316  0  0  -0.094838  0  4.005967  0  0  -0.107978  0  4.031449  0  -0.04433  0  -0.013694  -0.086666  0  3.98869  0
C  C77  1  0.54759338  0.06745875  0.64796491  1  0  -0.122108  0  3.760427  0  0  -0.095503  0  4.004151  0  0  -0.108631  0  4.029649  0  -0.017023  0  -0.01359  -0.087337  0  3.986833  0
C  C78  1  0.45514509  0.03698580  0.36319808  1  0  0.129006  0  3.68269  0  0  0.087101  0  3.935382  0  0  0.096752  0  3.952161  0  0.511501  0  0.053954  0.080492  0  3.924346  0
C  C79  1  0.54633823  0.96102911  0.63877504  1  0  0.131682  0  3.677251  0  0  0.089496  0  3.929457  0  0  0.099159  0  3.946275  0  0.499465  0  0.054457  0.08294  0  3.918468  0
C  C80  1  0.56951810  0.86658637  0.31278337  1  0  0.549077  0  3.849144  0  0  0.487885  0  4.146927  0  0  0.517421  0  4.149278  0  1.388844  0  0.244288  0.468459  0  4.144471  0
C  C81  1  0.43157829  0.13141528  0.68766407  1  0  0.546322  0  3.848978  0  0  0.485563  0  4.147735  0  0  0.515127  0  4.150141  0  1.397477  0  0.242601  0.466127  0  4.145221  0
C  C82  1  0.80657887  0.86211432  0.26060761  1  0  0.050368  0  3.627791  0  0  -0.008267  0  3.887197  0  0  -0.003023  0  3.899204  0  0.280394  0  -0.066076  -0.011942  0  3.878543  0
C  C83  1  0.19425441  0.13670465  0.73960129  1  0  0.053998  0  3.62597  0  0  -0.005276  0  3.885788  0  0  0.000186  0  3.89763  0  0.26775  0  -0.065132  -0.009058  0  3.87721  0
C  C84  1  0.90259482  0.92578405  0.21735809  1  0  -0.134412  0  3.688402  0  0  -0.175048  0  3.952127  0  0  -0.176919  0  3.967142  0  -0.040026  0  -0.166724  -0.174039  0  3.941926  0
C  C85  1  0.09786629  0.07412910  0.78372079  1  0  -0.136573  0  3.686684  0  0  -0.175436  0  3.948622  0  0  -0.177417  0  3.963724  0  0.019459  0  -0.16667  -0.17438  0  3.938327  0
C  C86  1  0.00907115  0.85727092  0.15674686  1  0  -0.132783  0  3.688427  0  0  -0.172486  0  3.953927  0  0  -0.174658  0  3.969831  0  0.024106  0  -0.163288  -0.171253  0  3.943044  0
C  C87  1  0.99109298  0.14322663  0.84328954  1  0  -0.131593  0  3.687008  0  0  -0.171275  0  3.951753  0  0  -0.173522  0  3.967759  0  -0.051311  0  -0.162535  -0.169992  0  3.940819  0
C  C88  1  0.10119469  0.91693528  0.10738432  1  0  0.073381  0  3.648594  0  0  0.012706  0  3.917845  0  0  0.018509  0  3.929453  0  0.337494  0  -0.056424  0.008609  0  3.909757  0
C  C89  1  0.89856973  0.08506263  0.89380463  1  0  0.070706  0  3.645691  0  0  0.010507  0  3.915141  0  0  0.016235  0  3.926734  0  0.302661  0  -0.057077  0.006423  0  3.907105  0
C  C90  1  0.35219864  0.90522837  0.08354701  1  0  0.543399  0  3.869045  0  0  0.48874  0  4.164737  0  0  0.518632  0  4.16585  0  1.438071  0  0.243555  0.469201  0  4.162627  0
C  C91  1  0.64786159  0.09793086  0.91864377  1  0  0.542768  0  3.869668  0  0  0.488534  0  4.165671  0  0  0.518328  0  4.166711  0  1.418786  0  0.242917  0.46904  0  4.163636  0
C  C92  1  0.45531410  0.82846494  0.04176119  1  0  -0.093387  0  3.736115  0  0  -0.06931  0  3.980024  0  0  -0.081024  0  4.003229  0  -0.005579  0  -0.001716  -0.062043  0  3.96419  0
C  C93  1  0.54488396  0.17492224  0.95982928  1  0  -0.092443  0  3.735904  0  0  -0.068556  0  3.979506  0  0  -0.080129  0  4.002474  0  0.047439  0  -0.000784  -0.061343  0  3.963761  0
C  C94  1  0.58162839  0.86649685  0.01583611  1  0  0.008474  0  3.648696  0  0  -0.024408  0  3.89862  0  0  -0.017134  0  3.912261  0  -0.027897  0  -0.04675  -0.028178  0  3.888641  0
C  C95  1  0.41910952  0.13777645  0.98697218  1  0  0.009295  0  3.649209  0  0  -0.024196  0  3.899511  0  0  -0.016982  0  3.913213  0  -0.034211  0  -0.047544  -0.027931  0  3.88952  0
C  C96  1  0.67990931  0.79664251  0.98071335  1  0  -0.092583  0  3.726108  0  0  -0.103723  0  3.98354  0  0  -0.110483  0  4.002489  0  0.04966  0  -0.068877  -0.099869  0  3.970488  0
C  C97  1  0.32045077  0.20758106  0.02074306  1  0  -0.09641  0  3.730317  0  0  -0.107631  0  3.988709  0  0  -0.114511  0  4.008  0  0.0326  0  -0.071148  -0.103693  0  3.975442  0
C  C98  1  0.65170373  0.69232396  0.97595428  1  0  0.144216  0  3.667017  0  0  0.106999  0  3.920603  0  0  0.115822  0  3.937363  0  0.442869  0  0.060074  0.10113  0  3.909687  0
C  C99  1  0.34796599  0.31091650  0.02320217  1  0  0.137239  0  3.674758  0  0  0.100723  0  3.928947  0  0  0.10929  0  3.946045  0  0.424084  0  0.056506  0.094996  0  3.917768  0
C  C100  1  0.43410824  0.72194808  0.03389212  1  0  0.133927  0  3.663746  0  0  0.086094  0  3.91984  0  0  0.095707  0  3.93688  0  0.507806  0  0.061498  0.079504  0  3.908667  0
C  C101  1  0.56553377  0.28053806  0.96556604  1  0  0.138265  0  3.662057  0  0  0.091891  0  3.917243  0  0  0.101546  0  3.933955  0  0.472473  0  0.063032  0.085238  0  3.906289  0
N  N102  1  0.35208329  0.09484311  0.40093728  1  0  -0.342089  0  3.258302  0  0  -0.266274  0  3.530056  0  0  -0.285852  0  3.545877  0  -1.234358  0  -0.321491  -0.253359  0  3.519736  0
N  N103  1  0.64907857  0.90276149  0.60092306  1  0  -0.339389  0  3.248006  0  0  -0.264071  0  3.518386  0  0  -0.283615  0  3.534378  0  -1.243919  0  -0.318743  -0.251198  0  3.507971  0
N  N104  1  0.53117102  0.65595985  0.00285780  1  0  -0.342637  0  3.314032  0  0  -0.256338  0  3.585388  0  0  -0.277212  0  3.602655  0  -1.240833  0  -0.327777  -0.242411  0  3.573882  0
N  N105  1  0.46835643  0.34652215  0.99551310  1  0  -0.341869  0  3.309528  0  0  -0.257514  0  3.582129  0  0  -0.278336  0  3.599556  0  -1.237015  0  -0.328545  -0.243559  0  3.570446  0
N  N106  1  0.21370861  0.85755607  0.06178624  1  0  -0.422236  0  3.30091  0  0  -0.358903  0  3.542989  0  0  -0.381739  0  3.552247  0  -1.277885  0  -0.411042  -0.343872  0  3.536495  0
N  N107  1  0.78645183  0.14532879  0.93912629  1  0  -0.420973  0  3.29707  0  0  -0.35884  0  3.539628  0  0  -0.38149  0  3.54871  0  -1.261601  0  -0.410432  -0.343948  0  3.53332  0
N  N108  1  0.69031995  0.91906893  0.30313565  1  0  -0.408674  0  3.31236  0  0  -0.345809  0  3.558583  0  0  -0.369731  0  3.570911  0  -1.245493  0  -0.404621  -0.330062  0  3.549989  0
N  N109  1  0.31052267  0.07939941  0.69756666  1  0  -0.410113  0  3.311488  0  0  -0.347762  0  3.560002  0  0  -0.371873  0  3.57231  0  -1.283821  0  -0.405215  -0.331918  0  3.55143  0
O  O110  1  0.58090181  0.27186004  0.42455264  1  0  -0.783371  0  1.690044  0  0  -0.759123  0  1.993562  0  0  -0.791504  0  1.980264  0  -0.91935  0  -0.530683  -0.736261  0  2.003273  0
O  O111  1  0.41869005  0.72548510  0.57686275  1  0  -0.779076  0  1.677916  0  0  -0.755947  0  1.978861  0  0  -0.787898  0  1.965622  0  -0.914074  0  -0.528458  -0.73322  0  1.9886  0
O  O112  1  0.14382519  0.22096405  0.35503472  1  0  -0.828155  0  1.861363  0  0  -0.770445  0  2.073393  0  0  -0.791638  0  2.04102  0  -1.24922  0  -0.570026  -0.755821  0  2.095822  0
O  O113  1  0.86199780  0.77989823  0.64751122  1  0  -0.822126  0  1.846993  0  0  -0.76445  0  2.052817  0  0  -0.785281  0  2.02112  0  -1.240631  0  -0.569651  -0.750009  0  2.074762  0
O  O114  1  0.79441691  0.45520250  0.45794435  1  0  -0.947212  0  1.800509  0  0  -0.900609  0  2.048091  0  0  -0.932184  0  2.037644  0  -1.159705  0  -0.490964  -0.876626  0  2.054755  0
O  O115  1  0.20832413  0.54246344  0.54054716  1  0  -0.952119  0  1.797917  0  0  -0.903339  0  2.046159  0  0  -0.934738  0  2.034972  0  -1.16947  0  -0.490998  -0.879651  0  2.053476  0
O  O116  1  0.38866306  0.43064063  0.44127754  1  0  -0.823731  0  1.882396  0  0  -0.749216  0  2.076227  0  0  -0.771724  0  2.044465  0  -1.246327  0  -0.550562  -0.733473  0  2.099061  0
O  O117  1  0.62932532  0.57969212  0.57968126  1  0  -0.824935  0  1.860298  0  0  -0.758958  0  2.052122  0  0  -0.78039  0  2.015935  0  -1.26232  0  -0.586784  -0.744061  0  2.077645  0
O  O118  1  0.79462075  0.26789447  0.29738429  1  0  -0.876218  0  1.667503  0  0  -0.876534  0  1.938773  0  0  -0.916192  0  1.931629  0  -0.997023  0  -0.598748  -0.846947  0  1.944175  0
O  O119  1  0.20022382  0.73113423  0.70105214  1  0  -0.87911  0  1.682691  0  0  -0.879172  0  1.957298  0  0  -0.919188  0  1.949959  0  -0.998845  0  -0.59974  -0.849348  0  1.962888  0
O  O120  1  0.36417766  0.21809431  0.24447721  1  0  -0.861045  0  1.878804  0  0  -0.805996  0  2.067064  0  0  -0.827947  0  2.033495  0  -1.275013  0  -0.581966  -0.790519  0  2.090553  0
O  O121  1  0.63904115  0.78543793  0.75953303  1  0  -0.849052  0  1.887147  0  0  -0.793867  0  2.07471  0  0  -0.816028  0  2.041763  0  -1.287697  0  -0.578264  -0.778202  0  2.097655  0
O  O122  1  0.20055473  0.45626601  0.70036061  1  0  -0.995616  0  1.812517  0  0  -0.963495  0  2.077315  0  0  -1.006444  0  2.071632  0  -1.106079  0  -0.590011  -0.931607  0  2.081378  0
O  O123  1  0.80052236  0.54584794  0.30358463  1  0  -0.99057  0  1.813976  0  0  -0.959119  0  2.079209  0  0  -1.002161  0  2.073962  0  -1.103565  0  -0.591894  -0.927093  0  2.083033  0
O  O124  1  0.36897611  0.32890583  0.58309167  1  0  -0.833575  0  1.856806  0  0  -0.767444  0  2.053995  0  0  -0.78867  0  2.017621  0  -1.276853  0  -0.578357  -0.752597  0  2.07949  0
O  O125  1  0.62518339  0.66763443  0.41790500  1  0  -0.841916  0  1.856428  0  0  -0.78262  0  2.05629  0  0  -0.803102  0  2.019417  0  -1.27775  0  -0.581178  -0.768239  0  2.082185  0
O  O126  1  0.99923411  0.34885972  0.48165964  1  0  -0.958005  0  1.859252  0  0  -0.906681  0  2.108423  0  0  -0.938202  0  2.096539  0  -1.166904  0  -0.49561  -0.8828  0  2.115224  0
O  O127  1  0.00262760  0.64813065  0.51637366  1  0  -0.954858  0  1.859427  0  0  -0.903646  0  2.107427  0  0  -0.935637  0  2.096607  0  -1.161984  0  -0.496005  -0.87943  0  2.11358  0
O  O128  1  0.42024671  0.56355046  0.15113984  1  0  -0.822396  0  1.845944  0  0  -0.765647  0  2.042638  0  0  -0.78548  0  2.012976  0  -1.220075  0  -0.56746  -0.751695  0  2.063378  0
O  O129  1  0.58146153  0.43655169  0.84627781  1  0  -0.826442  0  1.835821  0  0  -0.76835  0  2.032725  0  0  -0.788182  0  2.002742  0  -1.256632  0  -0.566021  -0.754405  0  2.053685  0
O  O130  1  0.79075434  0.14504115  0.40746202  1  0  -0.716153  0  1.50855  0  0  -0.705822  0  1.757146  0  0  -0.731605  0  1.748199  0  -0.871552  0  -0.518532  -0.687447  0  1.764335  0
O  O131  1  0.21128732  0.85403313  0.59094283  1  0  -0.715349  0  1.515266  0  0  -0.705627  0  1.765197  0  0  -0.731391  0  1.756293  0  -0.875615  0  -0.518182  -0.687046  0  1.772353  0
O  O132  1  0.28012785  0.45527213  0.90047180  1  0  -0.832204  0  1.859234  0  0  -0.78394  0  2.065821  0  0  -0.802186  0  2.034997  0  -1.252429  0  -0.567882  -0.770891  0  2.087251  0
O  O133  1  0.72074284  0.54659977  0.09826138  1  0  -0.8295  0  1.848715  0  0  -0.782348  0  2.054677  0  0  -0.800242  0  2.024353  0  -1.251174  0  -0.567803  -0.769533  0  2.075751  0
O  O134  1  0.80138509  0.34674844  0.59359804  1  0  -0.866685  0  1.686941  0  0  -0.86554  0  1.965918  0  0  -0.907029  0  1.959955  0  -0.986962  0  -0.590793  -0.835371  0  1.970799  0
O  O135  1  0.20061741  0.65107748  0.40551164  1  0  -0.878439  0  1.681753  0  0  -0.877099  0  1.960144  0  0  -0.918499  0  1.95409  0  -1.003955  0  -0.595029  -0.846959  0  1.965283  0
O  O136  1  0.17668127  0.66584561  0.86505576  1  0  -0.739091  0  1.4789  0  0  -0.734679  0  1.724321  0  0  -0.761313  0  1.713541  0  -0.87689  0  -0.535312  -0.715101  0  1.73319  0
O  O137  1  0.81161000  0.33624182  0.13716562  1  0  -0.7362  0  1.482113  0  0  -0.732294  0  1.727799  0  0  -0.758594  0  1.717611  0  -0.876367  0  -0.532887  -0.712738  0  1.736323  0
O  O138  1  0.99874941  0.53948014  0.65223695  1  0  -0.91269  0  1.707724  0  0  -0.88353  0  1.967257  0  0  -0.914616  0  1.954953  0  -1.132664  0  -0.509171  -0.860038  0  1.97566  0
O  O139  1  0.00183507  0.45740164  0.34503267  1  0  -0.919968  0  1.694105  0  0  -0.892359  0  1.953463  0  0  -0.923001  0  1.940858  0  -1.132613  0  -0.510864  -0.868949  0  1.962174  0
O  O140  1  0.03391879  0.25141544  0.62240065  1  0  -0.701539  0  1.453691  0  0  -0.701842  0  1.704817  0  0  -0.728102  0  1.695838  0  -0.845696  0  -0.52623  -0.68308  0  1.711488  0
O  O141  1  0.96933704  0.74826645  0.37763880  1  0  -0.700332  0  1.457215  0  0  -0.699471  0  1.706909  0  0  -0.72588  0  1.698137  0  -0.84763  0  -0.524462  -0.680615  0  1.713379  0
O  O142  1  0.41122701  0.63529806  0.75901165  1  0  -0.734528  0  1.456075  0  0  -0.726439  0  1.699911  0  0  -0.753883  0  1.691195  0  -0.904762  0  -0.532757  -0.706339  0  1.707202  0
O  O143  1  0.58276764  0.37347962  0.25187996  1  0  -0.775285  0  1.453827  0  0  -0.766691  0  1.700184  0  0  -0.79473  0  1.690325  0  -0.920873  0  -0.546431  -0.745938  0  1.708472  0
O  O144  1  0.40058704  0.00715528  0.13732049  1  0  -0.586985  0  1.990495  0  0  -0.538053  0  2.21988  0  0  -0.561348  0  2.212296  0  -1.190182  0  -0.29871  -0.521837  0  2.224233  0
O  O145  1  0.59916749  0.99607938  0.86624912  1  0  -0.582635  0  1.992472  0  0  -0.534552  0  2.222181  0  0  -0.557679  0  2.214676  0  -1.171308  0  -0.296746  -0.51845  0  2.226491  0
O  O146  1  0.55165790  0.76446862  0.28904405  1  0  -0.627951  0  2.042645  0  0  -0.561577  0  2.267828  0  0  -0.585185  0  2.25864  0  -1.203129  0  -0.306921  -0.545256  0  2.273693  0
O  O147  1  0.44998330  0.23345512  0.71097931  1  0  -0.626575  0  2.041337  0  0  -0.561598  0  2.268192  0  0  -0.585197  0  2.259096  0  -1.206679  0  -0.306009  -0.545273  0  2.273975  0
O  O148  1  0.96859391  0.42417833  0.80003821  1  0  -0.708334  0  1.347248  0  0  -0.706005  0  1.56471  0  0  -0.73013  0  1.552771  0  -0.839678  0  -0.545989  -0.688639  0  1.574286  0
O  O149  1  0.03030709  0.57312703  0.19941788  1  0  -0.711913  0  1.347128  0  0  -0.709554  0  1.564419  0  0  -0.733805  0  1.552337  0  -0.842887  0  -0.548292  -0.692175  0  1.574066  0
