# generated using pymatgen
data_Zn4H30(C18O5)3
_symmetry_space_group_name_H-M   'P 1'
_cell_length_a   16.03355291
_cell_length_b   17.97754576
_cell_length_c   17.84437920
_cell_angle_alpha   63.78145742
_cell_angle_beta   75.95808221
_cell_angle_gamma   80.63973593
_symmetry_Int_Tables_number   1
_chemical_formula_structural   Zn4H30(C18O5)3
_chemical_formula_sum   'Zn4 H30 C54 O15'
_cell_volume   4467.36580981
_cell_formula_units_Z   1
loop_
 _symmetry_equiv_pos_site_id
 _symmetry_equiv_pos_as_xyz
  1  'x, y, z'
loop_
 _atom_site_type_symbol
 _atom_site_label
 _atom_site_symmetry_multiplicity
 _atom_site_fract_x
 _atom_site_fract_y
 _atom_site_fract_z
 _atom_site_occupancy
 _atom_site_pbe_bader_charge
 _atom_site_pbe_bader_spin_density
 _atom_site_pbe_cm5_charge
 _atom_site_pbe_ddec_charge
 _atom_site_pbe_ddec_spin_density
 _atom_site_pbe_ddec_sum_bond_order
 _atom_site_pbe_magmom
Zn  Zn0  1  0.56432101  0.41381027  0.58349775  1  1.317376  0  0.674621  0.966911  0  2.376268  0
Zn  Zn1  1  0.40686811  0.54920030  0.56452827  1  1.319439  0  0.673953  0.970228  0  2.353427  0
Zn  Zn2  1  0.45020628  0.44330349  0.44950439  1  1.319979  0  0.677441  0.969724  0  2.377913  0
Zn  Zn3  1  0.57197557  0.58349273  0.41360178  1  1.310897  0  0.675527  0.951959  0  2.388969  0
H  H4  1  0.00599864  0.57087983  0.43031061  1  0.102009  0  0.123172  0.127187  0  0.95459  0
H  H5  1  0.50793607  0.62471603  0.83074670  1  0.043674  0  0.101615  0.100991  0  1.01376  0
H  H6  1  0.46932652  0.39076165  0.16940464  1  0.086865  0  0.104322  0.107857  0  1.020948  0
H  H7  1  0.42671318  0.25716077  0.00713925  1  0.067221  0  0.10469  0.104612  0  0.991927  0
H  H8  1  0.66258350  0.90807235  0.62329136  1  0.063475  0  0.105767  0.106558  0  0.989036  0
H  H9  1  0.31789281  0.80788004  0.42718011  1  0.092169  0  0.110201  0.111068  0  1.000431  0
H  H10  1  0.35002172  0.09540328  0.35437123  1  0.14077  0  0.108846  0.114318  0  1.044833  0
H  H11  1  0.69583011  0.02529471  0.64085135  1  0.064517  0  0.104378  0.104263  0  0.993771  0
H  H12  1  0.66346799  0.17295802  0.62145519  1  0.084751  0  0.109807  0.116525  0  0.990059  0
H  H13  1  0.49336534  0.21178891  0.45469710  1  0.102547  0  0.10765  0.116513  0  1.039235  0
H  H14  1  0.39504408  0.21353565  0.31829053  1  0.044879  0  0.099678  0.032849  0  0.965425  0
H  H15  1  0.58646652  0.84944642  0.56037894  1  0.056302  0  0.106861  0.108652  0  1.004638  0
H  H16  1  0.22509719  0.91725143  0.38362979  1  0.041266  0  0.096489  0.025639  0  0.965441  0
H  H17  1  0.70215187  0.77100765  0.15703433  1  0.015732  0  0.084652  0.110794  0  1.004919  0
H  H18  1  0.70094983  0.66188677  0.19245972  1  0.05754  0  0.086324  0.122966  0  1.012232  0
H  H19  1  0.72227308  0.72754078  0.08145165  1  0.005065  0  0.082038  0.106062  0  1.009529  0
H  H20  1  0.57188183  0.79428178  0.09426830  1  0.027977  0  0.088634  0.079713  0  0.982716  0
H  H21  1  0.55062182  0.72934056  0.20456876  1  0.051044  0  0.090631  0.090761  0  1.00021  0
H  H22  1  0.60857445  0.81882931  0.30594659  1  0.043023  0  0.086598  0.120227  0  1.022209  0
H  H23  1  0.64029089  0.91356030  0.29708736  1  0.056749  0  0.085923  0.111696  0  1.002014  0
H  H24  1  0.71170881  0.82284877  0.32398920  1  0.026305  0  0.092527  0.123394  0  0.988531  0
H  H25  1  0.64466967  0.84956298  0.45066437  1  0.041551  0  0.093402  0.092401  0  1.023136  0
H  H26  1  0.54875569  0.72046020  0.87721620  1  0.047606  0  0.100489  0.100393  0  0.998074  0
H  H27  1  0.61576435  0.75325190  0.46301598  1  0.063191  0  0.09729  0.103257  0  0.987659  0
H  H28  1  0.47163646  0.54867732  0.79428398  1  0.065315  0  0.104044  0.106637  0  1.019639  0
H  H29  1  0.43631413  0.29630583  0.85272071  1  0.081632  0  0.106996  0.112375  0  0.990084  0
H  H30  1  0.43837789  0.29262983  0.12101779  1  0.06302  0  0.102283  0.101734  0  1.00084  0
H  H31  1  0.57402912  0.75127232  0.98983461  1  0.063633  0  0.099475  0.100777  0  1.005702  0
H  H32  1  0.48786554  0.47324473  0.20716684  1  0.117611  0  0.108903  0.11585  0  1.017311  0
H  H33  1  0.98328755  0.42128790  0.60695919  1  0.131006  0  0.129163  0.133447  0  0.945525  0
C  C34  1  0.46309756  0.71720527  0.45203764  1  1.58591  0  0.231254  0.610083  0  4.160804  0
C  C35  1  0.55825803  0.08790994  0.49912552  1  0.037364  0  0.001191  0.035318  0  3.924684  0
C  C36  1  0.61413012  0.03494946  0.55631734  1  -0.073018  0  -0.001077  0.087207  0  4.009784  0
C  C37  1  0.55048181  0.28527645  0.52969624  1  1.543386  0  0.229418  0.60833  0  4.158138  0
C  C38  1  0.51931934  0.05414400  0.45642398  1  0.037651  0  0.0093  0.016111  0  3.880911  0
C  C39  1  0.53300502  0.96785944  0.47629249  1  -0.068125  0  -0.001198  0.035008  0  3.954577  0
C  C40  1  0.58399510  0.91650782  0.53849474  1  -0.052055  0  -0.090053  -0.130581  0  4.03806  0
C  C41  1  0.62476766  0.94891026  0.57530787  1  0.000867  0  -0.087694  -0.129453  0  4.026621  0
C  C42  1  0.45907581  0.10144587  0.40059933  1  -0.059661  0  -0.01283  -0.016801  0  3.968416  0
C  C43  1  0.40116190  0.05998770  0.38910977  1  -0.002126  0  -0.06793  -0.140238  0  3.920543  0
C  C44  1  0.40979829  0.97269390  0.41422254  1  -0.070317  0  0.004591  0.069348  0  3.96968  0
C  C45  1  0.88408596  0.51846841  0.49524602  1  -0.425644  0  -0.022611  0.014932  0  4.152034  0
C  C46  1  0.48661914  0.92936409  0.44338932  1  0.028693  0  0.011506  -0.006123  0  3.874259  0
C  C47  1  0.34844588  0.92852036  0.40616316  1  0.008577  0  -0.020768  -0.036888  0  4.01057  0
C  C48  1  0.36658974  0.84449796  0.42603386  1  -0.040742  0  -0.069073  -0.113357  0  3.976997  0
C  C49  1  0.46014467  0.44826576  0.72384589  1  1.53045  0  0.227916  0.612268  0  4.146875  0
C  C50  1  0.51298486  0.85037541  0.44034183  1  -0.026392  0  0.024213  0.099158  0  3.816065  0
C  C51  1  0.53219089  0.58807794  0.18305818  1  -0.023204  0  -0.019219  -0.099081  0  3.94488  0
C  C52  1  0.45399347  0.42562481  0.81573261  1  -0.046346  0  -0.021011  -0.036873  0  4.010054  0
C  C53  1  0.55661542  0.68927486  0.03779830  1  -0.10037  0  -0.093879  -0.202076  0  3.964967  0
C  C54  1  0.55856494  0.66861872  0.12201586  1  0.020536  0  0.00124  0.117827  0  3.923371  0
C  C55  1  0.50801801  0.53320542  0.15742955  1  -0.024022  0  -0.075874  -0.118815  0  3.937713  0
C  C56  1  0.10531801  0.47264360  0.54320549  1  -0.40678  0  -0.013515  0.022189  0  4.119713  0
C  C57  1  0.50888024  0.55307684  0.07169706  1  -0.035227  0  -0.004083  0.027252  0  3.958828  0
C  C58  1  0.53253147  0.63436247  0.01065751  1  0.014503  0  -0.00569  0.089661  0  4.044564  0
C  C59  1  0.48672356  0.49545835  0.04395276  1  -0.017369  0  0.000485  0.03988  0  3.945652  0
C  C60  1  0.48588875  0.52164266  0.95649026  1  -0.003222  0  -0.003484  0.02775  0  3.958299  0
C  C61  1  0.52669408  0.55840555  0.27633243  1  1.522987  0  0.229661  0.611485  0  4.153048  0
C  C62  1  0.50787790  0.60422279  0.89800264  1  -0.006428  0  -0.091115  -0.124812  0  4.028331  0
C  C63  1  0.53090951  0.65815129  0.92357622  1  -0.056404  0  -0.092318  -0.135907  0  4.028364  0
C  C64  1  0.46781731  0.41211393  0.10232373  1  0.01367  0  -0.084293  -0.116633  0  3.996761  0
C  C65  1  0.45082434  0.35657022  0.07552096  1  -0.08309  0  -0.090594  -0.1344  0  4.018201  0
C  C66  1  0.45080388  0.37975849  0.98828691  1  -0.032101  0  -0.00396  0.080928  0  4.017902  0
C  C67  1  0.80741004  0.51573192  0.49957616  1  0.149653  0  -0.042035  -0.198156  0  3.956647  0
C  C68  1  0.46625128  0.46356215  0.92798986  1  -0.008922  0  -0.001666  0.035811  0  3.941814  0
C  C69  1  0.43823682  0.32074826  0.96013417  1  0.013602  0  -0.088093  -0.129992  0  4.00141  0
C  C70  1  0.44259649  0.34212702  0.87514575  1  -0.081235  0  -0.087993  -0.100077  0  4.008733  0
C  C71  1  0.46368793  0.48511664  0.84219720  1  0.045194  0  -0.078741  -0.134031  0  3.935355  0
C  C72  1  0.27308188  0.47972670  0.53022759  1  1.668742  0  0.235526  0.677717  0  4.243754  0
C  C73  1  0.71843788  0.51147838  0.50088531  1  1.661775  0  0.228095  0.675236  0  4.242155  0
C  C74  1  0.18211777  0.47473162  0.53875427  1  0.141706  0  -0.027424  -0.175253  0  3.910986  0
C  C75  1  0.01708501  0.46947373  0.54932234  1  0.130169  0  -0.05047  -0.04053  0  4.040851  0
C  C76  1  0.97233332  0.52272442  0.48805565  1  0.057262  0  -0.063314  -0.062982  0  4.063169  0
C  C77  1  0.45691630  0.19116216  0.34215835  1  0.939046  0  0.096174  0.260256  0  3.998425  0
C  C78  1  0.57544663  0.19919291  0.53667472  1  -0.037886  0  -0.019232  -0.040923  0  3.983452  0
C  C79  1  0.26522656  0.96464742  0.37997632  1  0.940854  0  0.093341  0.267575  0  4.00135  0
C  C80  1  0.58708391  0.73230288  0.14280004  1  -0.007611  0  -0.163772  -0.145229  0  3.986266  0
C  C81  1  0.68394702  0.72246884  0.14346341  1  -0.051994  0  -0.244715  -0.347093  0  3.9598  0
C  C82  1  0.60701437  0.82088585  0.42814704  1  -0.02447  0  -0.164962  -0.165796  0  3.972334  0
C  C83  1  0.64379610  0.84564630  0.33266100  1  -0.05935  0  -0.23881  -0.341315  0  3.935088  0
C  C84  1  0.44905504  0.80659081  0.43828107  1  -0.033335  0  -0.010807  -0.081914  0  3.930954  0
C  C85  1  0.65274649  0.06699742  0.59861464  1  -0.045144  0  -0.090104  -0.139579  0  4.005548  0
C  C86  1  0.63473541  0.14792449  0.58871720  1  0.025976  0  -0.082073  -0.086583  0  3.995306  0
C  C87  1  0.53859403  0.16964975  0.49310709  1  0.01633  0  -0.072118  -0.114894  0  3.910195  0
O  O88  1  0.49708168  0.49868892  0.50217297  1  -1.239822  0  -0.575476  -1.036264  0  2.554772  0
O  O89  1  0.29317751  0.51639466  0.56979573  1  -1.140327  0  -0.307003  -0.534875  0  2.267154  0
O  O90  1  0.68988665  0.56431901  0.43464174  1  -1.144901  0  -0.311598  -0.537691  0  2.274995  0
O  O91  1  0.32306175  0.44737293  0.48379239  1  -1.148055  0  -0.302656  -0.527947  0  2.271476  0
O  O92  1  0.67678559  0.45585936  0.56718243  1  -1.149825  0  -0.313223  -0.544574  0  2.268158  0
O  O93  1  0.51610384  0.23743837  0.31442697  1  -1.081381  0  -0.262815  -0.348199  0  2.122849  0
O  O94  1  0.23849304  0.03790059  0.35552009  1  -1.077403  0  -0.272162  -0.357848  0  2.111004  0
O  O95  1  0.49532364  0.39267568  0.69754779  1  -1.178155  0  -0.32148  -0.557104  0  2.308394  0
O  O96  1  0.57313581  0.59179629  0.30072649  1  -1.162526  0  -0.30759  -0.539876  0  2.390464  0
O  O97  1  0.40217896  0.67156552  0.50331760  1  -1.166276  0  -0.3117  -0.538923  0  2.309938  0
O  O98  1  0.49333774  0.32712512  0.48538796  1  -1.175037  0  -0.313385  -0.543876  0  2.348575  0
O  O99  1  0.53229313  0.69411697  0.41297417  1  -1.174172  0  -0.29995  -0.531154  0  2.37035  0
O  O100  1  0.58798529  0.31027735  0.56931828  1  -1.162416  0  -0.315182  -0.545323  0  2.330353  0
O  O101  1  0.43075843  0.52081919  0.67753327  1  -1.171705  0  -0.319065  -0.551348  0  2.290619  0
O  O102  1  0.47558850  0.50090874  0.32560614  1  -1.176442  0  -0.316418  -0.548278  0  2.349042  0
