# generated using pymatgen
data_AlH6C13Br2O5
_symmetry_space_group_name_H-M   'P 1'
_cell_length_a   6.58322484
_cell_length_b   11.22791956
_cell_length_c   15.18921561
_cell_angle_alpha   82.90732039
_cell_angle_beta   78.47234384
_cell_angle_gamma   71.32363524
_symmetry_Int_Tables_number   1
_chemical_formula_structural   AlH6C13Br2O5
_chemical_formula_sum   'Al2 H12 C26 Br4 O10'
_cell_volume   1040.00837155
_cell_formula_units_Z   2
loop_
 _symmetry_equiv_pos_site_id
 _symmetry_equiv_pos_as_xyz
  1  'x, y, z'
loop_
 _atom_site_type_symbol
 _atom_site_label
 _atom_site_symmetry_multiplicity
 _atom_site_fract_x
 _atom_site_fract_y
 _atom_site_fract_z
 _atom_site_occupancy
 _atom_site_pbe_bader_charge
 _atom_site_pbe_bader_spin_density
 _atom_site_pbe_cm5_charge
 _atom_site_pbe_ddec_charge
 _atom_site_pbe_ddec_spin_density
 _atom_site_pbe_ddec_sum_bond_order
 _atom_site_pbe_magmom
Al  Al0  1  0.50748467  0.49308719  0.49906867  1  2.501764  0  0.386962  1.650058  0  2.565711  0
Al  Al1  1  0.01083115  0.48736256  0.50052651  1  2.500613  0  0.389123  1.644143  0  2.561444  0
H  H2  1  0.32044980  0.34082444  0.55909692  1  0.642861  0  0.322596  0.400219  0  0.921611  0
H  H3  1  0.72256793  0.63629976  0.43507005  1  0.627172  0  0.338628  0.416403  0  0.890551  0
H  H4  1  0.89591325  0.56657585  0.77305062  1  0.100541  0  0.105692  0.109861  0  1.008737  0
H  H5  1  0.79205814  0.57945449  0.93798775  1  0.057035  0  0.100339  0.097446  0  1.023702  0
H  H6  1  0.13793138  0.40873914  0.22642739  1  0.111957  0  0.108821  0.116511  0  0.986976  0
H  H7  1  0.22221389  0.41370970  0.06051887  1  0.043311  0  0.102428  0.102562  0  1.010494  0
H  H8  1  0.58133093  0.61768614  0.22827347  1  0.10292  0  0.098263  0.099632  0  1.035093  0
H  H9  1  0.64816248  0.63695430  0.06244589  1  0.040565  0  0.101474  0.100794  0  1.013131  0
H  H10  1  0.33249911  0.45689174  0.76550443  1  0.078375  0  0.110037  0.11837  0  0.994472  0
H  H11  1  0.22270097  0.47111061  0.93016180  1  0.05547  0  0.099847  0.097048  0  1.024508  0
H  H12  1  0.23729112  0.22235419  0.38513861  1  0.120062  0  0.113395  0.137359  0  1.019118  0
H  H13  1  0.43360000  0.75664534  0.38256954  1  0.07006  0  0.112784  0.12567  0  1.036791  0
C  C14  1  0.87007558  0.26534088  0.49279670  1  1.601926  0  0.269003  0.653396  0  4.096192  0
C  C15  1  0.69010996  0.49453651  0.66075446  1  1.564187  0  0.263012  0.634089  0  4.106859  0
C  C16  1  0.13963010  0.71584217  0.50535732  1  1.584944  0  0.267577  0.652887  0  4.097477  0
C  C17  1  0.31598091  0.50001113  0.33775063  1  1.517092  0  0.260304  0.627829  0  4.113498  0
C  C18  1  0.62255835  0.50875483  0.75928476  1  -0.009998  0  -0.018742  -0.048058  0  3.975386  0
C  C19  1  0.35705603  0.51080099  0.23783171  1  -0.003242  0  -0.022012  -0.055335  0  3.999602  0
C  C20  1  0.74906324  0.54538654  0.80851614  1  -0.053949  0  -0.082694  -0.084222  0  3.983624  0
C  C21  1  0.68845741  0.55309850  0.90119677  1  -0.019781  0  -0.091341  -0.13433  0  3.976057  0
C  C22  1  0.25200891  0.45688430  0.18948800  1  -0.011535  0  -0.083768  -0.087955  0  3.998883  0
C  C23  1  0.29800642  0.46195549  0.09606078  1  -0.03573  0  -0.090779  -0.133996  0  3.980596  0
C  C24  1  0.50149683  0.57453103  0.19073266  1  -0.037067  0  -0.08365  -0.079783  0  3.977451  0
C  C25  1  0.54078149  0.58328250  0.09716403  1  -0.022995  0  -0.090215  -0.130992  0  3.970753  0
C  C26  1  0.43153967  0.48353542  0.80444547  1  0.0132  0  -0.079228  -0.07988  0  3.97203  0
C  C27  1  0.37185072  0.49144233  0.89705468  1  -0.091205  0  -0.090714  -0.133846  0  3.977695  0
C  C28  1  0.50036498  0.52449512  0.94810425  1  -0.014444  0  -0.000558  0.077705  0  3.978201  0
C  C29  1  0.44441066  0.52459080  0.04745277  1  -0.025944  0  -0.002066  0.074223  0  3.981568  0
C  C30  1  0.93920930  0.12388951  0.49571126  1  0.090863  0  -0.007953  -0.111687  0  3.91628  0
C  C31  1  0.13801282  0.05748600  0.44128944  1  0.029985  0  0.001964  0.073777  0  3.963255  0
C  C32  1  0.81245682  0.05759896  0.55140672  1  -0.050954  0  -0.013566  0.040806  0  3.937943  0
C  C33  1  0.27858276  0.12037900  0.38619167  1  0.050833  0  -0.091109  -0.168694  0  3.924228  0
C  C34  1  0.47194947  0.05390334  0.33582852  1  -0.137308  0  -0.020799  0.065805  0  3.981883  0
C  C35  1  0.06474924  0.85737917  0.50084183  1  0.089983  0  -0.009276  -0.109789  0  3.913176  0
C  C36  1  0.87539056  0.92376401  0.55457328  1  -0.051525  0  -0.016032  0.035952  0  3.957483  0
C  C37  1  0.19848068  0.92294625  0.44270490  1  0.003168  0  0.002003  0.079689  0  3.964458  0
C  C38  1  0.39158908  0.85803939  0.38606193  1  0.027823  0  -0.093917  -0.176433  0  3.954584  0
C  C39  1  0.52818162  0.92090037  0.33513917  1  -0.021669  0  -0.021735  0.062222  0  3.984085  0
Br  Br40  1  0.70763612  0.83572450  0.63636189  1  0.000192  0  0.064929  -0.002813  0  1.549864  0
Br  Br41  1  0.56172772  0.14320411  0.63219006  1  -0.017048  0  0.078586  -0.005599  0  1.562009  0
Br  Br42  1  0.65767082  0.14380085  0.26889829  1  -0.028051  0  0.042535  -0.030699  0  1.444014  0
Br  Br43  1  0.79107441  0.82433111  0.26675098  1  -0.040428  0  0.048717  -0.030858  0  1.45158  0
O  O44  1  0.68504436  0.32342308  0.47185032  1  -1.24922  0  -0.230598  -0.582033  0  2.366557  0
O  O45  1  0.87318403  0.50898430  0.62373909  1  -1.264149  0  -0.239134  -0.592385  0  2.358837  0
O  O46  1  0.01481665  0.66070802  0.48632771  1  -1.253388  0  -0.229932  -0.5922  0  2.399346  0
O  O47  1  0.44549615  0.52873010  0.37793808  1  -1.268334  0  -0.240299  -0.599071  0  2.361909  0
O  O48  1  0.32766552  0.66234610  0.52519832  1  -1.249439  0  -0.228353  -0.569872  0  2.326727  0
O  O49  1  0.15256428  0.46442946  0.37669326  1  -1.260449  0  -0.239254  -0.590535  0  2.346907  0
O  O50  1  0.00256816  0.31573208  0.51150827  1  -1.250496  0  -0.225327  -0.573482  0  2.340221  0
O  O51  1  0.56108726  0.46652986  0.62020492  1  -1.269952  0  -0.242905  -0.612697  0  2.39937  0
O  O52  1  0.27653169  0.42926576  0.53812047  1  -1.456917  0  -0.452418  -0.987592  0  2.237953  0
O  O53  1  0.74623364  0.55035454  0.46037474  1  -1.431687  0  -0.450644  -0.989626  0  2.223382  0
