# generated using pymatgen
data_CdH20C18(N3O2)2
_symmetry_space_group_name_H-M   'P 1'
_cell_length_a   9.68945548
_cell_length_b   9.94631407
_cell_length_c   11.30327651
_cell_angle_alpha   66.37865411
_cell_angle_beta   88.64889115
_cell_angle_gamma   70.00665955
_symmetry_Int_Tables_number   1
_chemical_formula_structural   CdH20C18(N3O2)2
_chemical_formula_sum   'Cd2 H40 C36 N12 O8'
_cell_volume   929.74836335
_cell_formula_units_Z   2
loop_
 _symmetry_equiv_pos_site_id
 _symmetry_equiv_pos_as_xyz
  1  'x, y, z'
loop_
 _atom_site_type_symbol
 _atom_site_label
 _atom_site_symmetry_multiplicity
 _atom_site_fract_x
 _atom_site_fract_y
 _atom_site_fract_z
 _atom_site_occupancy
 _atom_site_hle17_bader_spin_density
 _atom_site_hle17_ddec_charge
 _atom_site_hle17_ddec_spin_density
 _atom_site_hle17_ddec_sum_bond_order
 _atom_site_hle17_magmom
 _atom_site_hse06_10hf_bader_spin_density
 _atom_site_hse06_10hf_ddec_charge
 _atom_site_hse06_10hf_ddec_spin_density
 _atom_site_hse06_10hf_ddec_sum_bond_order
 _atom_site_hse06_10hf_magmom
 _atom_site_hse06_bader_spin_density
 _atom_site_hse06_ddec_charge
 _atom_site_hse06_ddec_spin_density
 _atom_site_hse06_ddec_sum_bond_order
 _atom_site_hse06_magmom
 _atom_site_pbe_bader_spin_density
 _atom_site_pbe_cm5_charge
 _atom_site_pbe_ddec_charge
 _atom_site_pbe_ddec_spin_density
 _atom_site_pbe_ddec_sum_bond_order
 _atom_site_pbe_magmom
Cd  Cd0  1  0.13737311  0.33735194  0.65381556  1  0  1.129577  0  1.688934  0  0  0.935221  0  2.135086  0  0  0.995695  0  2.082117  0  0  0.768775  0.892309  0  2.171698  0
Cd  Cd1  1  0.86262777  0.66264817  0.34618285  1  0  1.129542  0  1.688973  0  0  0.935192  0  2.135123  0  0  0.995666  0  2.082152  0  0  0.768756  0.892277  0  2.171739  0
H  H2  1  0.49382015  0.10624257  0.04094696  1  0  0.128773  0  0.949933  0  0  0.138771  0  1.014013  0  0  0.142421  0  1.011325  0  0  0.102042  0.136269  0  1.015814  0
H  H3  1  0.50618155  0.89375519  0.95905403  1  0  0.128738  0  0.950027  0  0  0.138748  0  1.014097  0  0  0.142399  0  1.011408  0  0  0.102016  0.136244  0  1.015898  0
H  H4  1  0.44533035  0.31408911  0.98888518  1  0  0.099008  0  0.952389  0  0  0.113896  0  1.014273  0  0  0.116079  0  1.013263  0  0  0.094185  0.112005  0  1.015624  0
H  H5  1  0.55466746  0.68591101  0.01111772  1  0  0.098992  0  0.952429  0  0  0.113884  0  1.01431  0  0  0.116066  0  1.013301  0  0  0.094179  0.111983  0  1.015673  0
H  H6  1  0.37182513  0.96753792  0.20396419  1  0  0.093381  0  0.975375  0  0  0.100523  0  1.045679  0  0  0.103521  0  1.044078  0  0  0.096361  0.098224  0  1.04716  0
H  H7  1  0.62817327  0.03245748  0.79603862  1  0  0.093364  0  0.975411  0  0  0.100511  0  1.04571  0  0  0.103509  0  1.044111  0  0  0.09636  0.098214  0  1.047186  0
H  H8  1  0.18545971  0.96364907  0.35931475  1  0  0.096842  0  0.960839  0  0  0.10598  0  1.02628  0  0  0.109011  0  1.025005  0  0  0.097968  0.103922  0  1.027041  0
H  H9  1  0.81453458  0.03635219  0.64068341  1  0  0.096781  0  0.960817  0  0  0.105934  0  1.026246  0  0  0.108964  0  1.024974  0  0  0.097965  0.103877  0  1.02701  0
H  H10  1  0.99419430  0.46931003  0.17330541  1  0  0.096268  0  0.990467  0  0  0.102064  0  1.06258  0  0  0.105132  0  1.061328  0  0  0.093977  0.099872  0  1.063621  0
H  H11  1  0.00580680  0.53069245  0.82669391  1  0  0.096254  0  0.990511  0  0  0.102046  0  1.062632  0  0  0.105114  0  1.061383  0  0  0.093974  0.099862  0  1.063652  0
H  H12  1  0.18388570  0.47247225  0.02136884  1  0  0.086453  0  0.983526  0  0  0.095654  0  1.051739  0  0  0.098697  0  1.050509  0  0  0.092994  0.093688  0  1.052393  0
H  H13  1  0.81611909  0.52752554  0.97863295  1  0  0.086435  0  0.983533  0  0  0.095644  0  1.051737  0  0  0.098685  0  1.050507  0  0  0.092996  0.093678  0  1.052386  0
H  H14  1  0.94482836  0.10593624  0.40841302  1  0  0.119831  0  0.958431  0  0  0.130327  0  1.023613  0  0  0.133584  0  1.021286  0  0  0.100301  0.127433  0  1.026361  0
H  H15  1  0.05516861  0.89406621  0.59158465  1  0  0.119813  0  0.958438  0  0  0.130302  0  1.023636  0  0  0.133569  0  1.021294  0  0  0.100283  0.127413  0  1.026389  0
H  H16  1  0.86049839  0.31659081  0.32356695  1  0  0.125123  0  0.946671  0  0  0.138163  0  1.008527  0  0  0.140928  0  1.006863  0  0  0.103131  0.13624  0  1.009748  0
H  H17  1  0.13949796  0.68341047  0.67643205  1  0  0.125086  0  0.946669  0  0  0.13815  0  1.00849  0  0  0.140919  0  1.006827  0  0  0.10313  0.136233  0  1.009716  0
H  H18  1  0.78248434  0.32137292  0.65408430  1  0  0.100511  0  0.93169  0  0  0.108199  0  0.995271  0  0  0.110415  0  0.993057  0  0  0.136718  0.106348  0  0.997332  0
H  H19  1  0.21751408  0.67862837  0.34591552  1  0  0.100487  0  0.931714  0  0  0.10819  0  0.995277  0  0  0.110407  0  0.993062  0  0  0.136715  0.106337  0  0.997337  0
H  H20  1  0.06380441  0.19904704  0.98854492  1  0  0.110095  0  0.946169  0  0  0.117156  0  1.014151  0  0  0.118707  0  1.013404  0  0  0.141668  0.116176  0  1.01444  0
H  H21  1  0.93619382  0.80095779  0.01145452  1  0  0.110168  0  0.94616  0  0  0.117183  0  1.014188  0  0  0.118731  0  1.013443  0  0  0.141675  0.116204  0  1.014476  0
H  H22  1  0.90768486  0.07052984  0.16019292  1  0  0.094642  0  0.91869  0  0  0.109696  0  0.980352  0  0  0.110045  0  0.981551  0  0  0.116037  0.109346  0  0.979702  0
H  H23  1  0.09231540  0.92946910  0.83980681  1  0  0.09464  0  0.918696  0  0  0.109689  0  0.980355  0  0  0.110039  0  0.981555  0  0  0.116031  0.109342  0  0.9797  0
H  H24  1  0.74856154  0.05818533  0.09711760  1  0  0.111494  0  0.947996  0  0  0.122987  0  1.013965  0  0  0.124948  0  1.012352  0  0  0.119393  0.122055  0  1.014423  0
H  H25  1  0.25143831  0.94181479  0.90288172  1  0  0.111492  0  0.948001  0  0  0.122984  0  1.013962  0  0  0.124944  0  1.012351  0  0  0.119391  0.122051  0  1.014424  0
H  H26  1  0.62008312  0.35605273  0.03720154  1  0  0.054979  0  0.958537  0  0  0.072141  0  1.025523  0  0  0.072898  0  1.025604  0  0  0.088005  0.071559  0  1.025772  0
H  H27  1  0.37991983  0.64394740  0.96279858  1  0  0.055017  0  0.958555  0  0  0.072174  0  1.025544  0  0  0.072929  0  1.025626  0  0  0.08802  0.071594  0  1.025792  0
H  H28  1  0.77333598  0.34362592  0.12787270  1  0  0.067285  0  0.961172  0  0  0.084236  0  1.027344  0  0  0.084794  0  1.027989  0  0  0.092024  0.083943  0  1.026894  0
H  H29  1  0.22666491  0.65637421  0.87212836  1  0  0.067235  0  0.961154  0  0  0.084186  0  1.027349  0  0  0.084741  0  1.027995  0  0  0.091998  0.083894  0  1.026901  0
H  H30  1  0.56993225  0.15603890  0.24046743  1  0  0.082823  0  0.930405  0  0  0.103277  0  0.983689  0  0  0.103521  0  0.985393  0  0  0.096548  0.102761  0  0.983009  0
H  H31  1  0.43006783  0.84396358  0.75953193  1  0  0.082826  0  0.930399  0  0  0.103268  0  0.983696  0  0  0.103513  0  0.985401  0  0  0.096539  0.10275  0  0.983017  0
H  H32  1  0.72262396  0.14638154  0.32948324  1  0  0.095996  0  0.94827  0  0  0.111623  0  1.009017  0  0  0.113164  0  1.008573  0  0  0.099593  0.11041  0  1.00971  0
H  H33  1  0.27737612  0.85362095  0.67051699  1  0  0.09599  0  0.948272  0  0  0.111637  0  1.008982  0  0  0.113176  0  1.008542  0  0  0.099604  0.110424  0  1.00967  0
H  H34  1  0.60116069  0.44933404  0.25050649  1  0  0.093201  0  0.945838  0  0  0.104321  0  1.016573  0  0  0.106028  0  1.015132  0  0  0.113385  0.103194  0  1.017434  0
H  H35  1  0.39883937  0.55066844  0.74949198  1  0  0.093238  0  0.945856  0  0  0.104344  0  1.016577  0  0  0.10605  0  1.015137  0  0  0.113394  0.103217  0  1.017435  0
H  H36  1  0.44098108  0.43745048  0.18823675  1  0  0.068578  0  0.934758  0  0  0.081749  0  1.006448  0  0  0.081839  0  1.007368  0  0  0.10744  0.08164  0  1.005847  0
H  H37  1  0.55901877  0.56254964  0.81176345  1  0  0.068609  0  0.934763  0  0  0.081772  0  1.006438  0  0  0.081863  0  1.007359  0  0  0.107446  0.081664  0  1.005835  0
H  H38  1  0.26346696  0.35296573  0.35075115  1  0  0.105834  0  0.954517  0  0  0.113199  0  1.023287  0  0  0.114823  0  1.02228  0  0  0.137681  0.112236  0  1.023585  0
H  H39  1  0.73653433  0.64703321  0.64924943  1  0  0.10583  0  0.954507  0  0  0.113191  0  1.023284  0  0  0.114814  0  1.022276  0  0  0.137669  0.112226  0  1.023582  0
H  H40  1  0.51105273  0.29140076  0.68138556  1  0  0.093974  0  0.935209  0  0  0.10383  0  0.997391  0  0  0.105711  0  0.995152  0  0  0.135764  0.102336  0  0.999335  0
H  H41  1  0.48894774  0.70860054  0.31861332  1  0  0.093943  0  0.935226  0  0  0.103815  0  0.997397  0  0  0.105698  0  0.995158  0  0  0.135768  0.102322  0  0.999344  0
C  C42  1  0.32174951  0.25437750  0.87710726  1  0  0.680571  0  3.873803  0  0  0.637594  0  4.167854  0  0  0.669894  0  4.163612  0  0  0.192862  0.61533  0  4.171257  0
C  C43  1  0.67825076  0.74562144  0.12289335  1  0  0.680481  0  3.873826  0  0  0.637474  0  4.167936  0  0  0.669773  0  4.163696  0  0  0.192791  0.615213  0  4.171332  0
C  C44  1  0.40195381  0.22041530  0.00597657  1  0  -0.308828  0  3.687231  0  0  -0.350869  0  3.925504  0  0  -0.356589  0  3.931744  0  0  -0.166811  -0.34743  0  3.922466  0
C  C45  1  0.59804687  0.77958247  0.99402534  1  0  -0.30877  0  3.687304  0  0  -0.350828  0  3.925579  0  0  -0.356547  0  3.931814  0  0  -0.16677  -0.34738  0  3.922544  0
C  C46  1  0.29256299  0.21975609  0.10350101  1  0  0.101273  0  3.767732  0  0  0.121505  0  4.003769  0  0  0.122056  0  4.027743  0  0  -0.018965  0.1214  0  3.988341  0
C  C47  1  0.70743809  0.78024050  0.89650042  1  0  0.101232  0  3.767757  0  0  0.121492  0  4.003765  0  0  0.122044  0  4.027738  0  0  -0.018958  0.121389  0  3.988331  0
C  C48  1  0.29004633  0.07752727  0.19871987  1  0  -0.126707  0  3.760717  0  0  -0.148426  0  4.012793  0  0  -0.150304  0  4.033113  0  0  -0.098642  -0.146922  0  3.999119  0
C  C49  1  0.70995228  0.92247048  0.80128120  1  0  -0.126597  0  3.760748  0  0  -0.148329  0  4.012822  0  0  -0.150208  0  4.033143  0  0  -0.098584  -0.146829  0  3.999148  0
C  C50  1  0.18438148  0.07573011  0.28498290  1  0  -0.12657  0  3.749985  0  0  -0.147009  0  3.998912  0  0  -0.148974  0  4.019637  0  0  -0.09886  -0.145716  0  3.984175  0
C  C51  1  0.81561466  0.92426881  0.71501694  1  0  -0.126479  0  3.750062  0  0  -0.146926  0  3.998978  0  0  -0.148895  0  4.019707  0  0  -0.098824  -0.145632  0  3.984242  0
C  C52  1  0.07677832  0.21673599  0.27696272  1  0  0.112814  0  3.751399  0  0  0.133533  0  3.984992  0  0  0.133935  0  4.009189  0  0  -0.014558  0.133592  0  3.968896  0
C  C53  1  0.92321928  0.78326765  0.72303539  1  0  0.112733  0  3.751457  0  0  0.133438  0  3.985063  0  0  0.133843  0  4.009266  0  0  -0.014637  0.133501  0  3.968981  0
C  C54  1  0.07872921  0.35936373  0.18124076  1  0  -0.141389  0  3.770787  0  0  -0.15961  0  4.021382  0  0  -0.162194  0  4.04254  0  0  -0.105028  -0.157912  0  4.007687  0
C  C55  1  0.92127270  0.64063640  0.81875938  1  0  -0.141359  0  3.770774  0  0  -0.159577  0  4.021367  0  0  -0.162164  0  4.042531  0  0  -0.104991  -0.157878  0  4.007675  0
C  C56  1  0.18547923  0.36075477  0.09639547  1  0  -0.141678  0  3.777992  0  0  -0.161117  0  4.028887  0  0  -0.163986  0  4.05028  0  0  -0.1072  -0.159829  0  4.014708  0
C  C57  1  0.81452413  0.63924419  0.90360593  1  0  -0.141679  0  3.778048  0  0  -0.161122  0  4.028927  0  0  -0.163991  0  4.050321  0  0  -0.107247  -0.159831  0  4.01474  0
C  C58  1  0.96433031  0.21714009  0.37175816  1  0  -0.322188  0  3.676008  0  0  -0.363456  0  3.911099  0  0  -0.369422  0  3.916966  0  0  -0.168315  -0.359533  0  3.908347  0
C  C59  1  0.03566708  0.78286119  0.62824080  1  0  -0.322065  0  3.675923  0  0  -0.363347  0  3.911014  0  0  -0.369301  0  3.916837  0  0  -0.168273  -0.359466  0  3.908319  0
C  C60  1  0.02190225  0.23895425  0.48431933  1  0  0.704443  0  3.847747  0  0  0.659422  0  4.141243  0  0  0.692558  0  4.135854  0  0  0.199735  0.636367  0  4.145328  0
C  C61  1  0.97809513  0.76104703  0.51567963  1  0  0.704424  0  3.847899  0  0  0.6594  0  4.141386  0  0  0.692538  0  4.135999  0  0  0.199684  0.636364  0  4.145457  0
C  C62  1  0.82540586  0.28356120  0.75472396  1  0  0.186768  0  3.729498  0  0  0.135136  0  4.022899  0  0  0.146294  0  4.037  0  0  0.140872  0.128236  0  4.011781  0
C  C63  1  0.17459256  0.71644009  0.24527586  1  0  0.186897  0  3.72939  0  0  0.135258  0  4.022788  0  0  0.146414  0  4.036893  0  0  0.140933  0.128362  0  4.011664  0
C  C64  1  0.97114016  0.22182227  0.92190617  1  0  0.172447  0  3.624232  0  0  0.098145  0  3.88747  0  0  0.112712  0  3.900117  0  0  0.163726  0.089203  0  3.878079  0
C  C65  1  0.02885600  0.77818254  0.07809156  1  0  0.172316  0  3.624105  0  0  0.098085  0  3.887341  0  0  0.112647  0  3.899989  0  0  0.163696  0.089147  0  3.877947  0
C  C66  1  0.80520381  0.13871332  0.09134322  1  0  -0.028888  0  3.593859  0  0  -0.101231  0  3.849382  0  0  -0.098026  0  3.860061  0  0  -0.051542  -0.103409  0  3.842236  0
C  C67  1  0.19479605  0.86128680  0.90865698  1  0  -0.028928  0  3.593858  0  0  -0.101215  0  3.849365  0  0  -0.098017  0  3.860042  0  0  -0.05154  -0.103388  0  3.842212  0
C  C68  1  0.70745137  0.27580482  0.12054287  1  0  -0.110863  0  3.674514  0  0  -0.153749  0  3.938197  0  0  -0.155408  0  3.952868  0  0  -0.159187  -0.15246  0  3.928058  0
C  C69  1  0.29254952  0.72419530  0.87945818  1  0  -0.11081  0  3.674456  0  0  -0.15372  0  3.938143  0  0  -0.155373  0  3.952813  0  0  -0.159178  -0.152434  0  3.928005  0
C  C70  1  0.63671128  0.22408461  0.24528314  1  0  -0.133127  0  3.651922  0  0  -0.170261  0  3.905433  0  0  -0.172347  0  3.919419  0  0  -0.164002  -0.168548  0  3.896018  0
C  C71  1  0.36328920  0.77591670  0.75471750  1  0  -0.133057  0  3.651859  0  0  -0.170194  0  3.905349  0  0  -0.172288  0  3.919343  0  0  -0.163938  -0.168473  0  3.895923  0
C  C72  1  0.53963496  0.37109568  0.26188321  1  0  -0.017615  0  3.63428  0  0  -0.095733  0  3.899819  0  0  -0.092138  0  3.910876  0  0  -0.050468  -0.098087  0  3.892312  0
C  C73  1  0.46036511  0.62890680  0.73811614  1  0  -0.017813  0  3.634482  0  0  -0.095852  0  3.899894  0  0  -0.092263  0  3.910963  0  0  -0.05053  -0.09821  0  3.892384  0
C  C74  1  0.35087482  0.33855755  0.41827726  1  0  0.169521  0  3.645762  0  0  0.09552  0  3.90277  0  0  0.110032  0  3.915564  0  0  0.162199  0.086371  0  3.893507  0
C  C75  1  0.64912791  0.66144022  0.58172371  1  0  0.169447  0  3.645617  0  0  0.095456  0  3.902622  0  0  0.109964  0  3.915418  0  0  0.162174  0.086307  0  3.893361  0
C  C76  1  0.47983473  0.30655528  0.58404163  1  0  0.204127  0  3.724295  0  0  0.14849  0  4.01958  0  0  0.160274  0  4.033451  0  0  0.145545  0.140954  0  4.009516  0
C  C77  1  0.52016575  0.69344602  0.41595813  1  0  0.204178  0  3.72431  0  0  0.148525  0  4.019607  0  0  0.160309  0  4.033479  0  0  0.145554  0.140992  0  4.009545  0
N  N78  1  0.96094462  0.27824500  0.79182807  1  0  -0.417978  0  3.202454  0  0  -0.346273  0  3.495698  0  0  -0.369251  0  3.509816  0  0  -0.34513  -0.330091  0  3.484567  0
N  N79  1  0.03905402  0.72175866  0.20817178  1  0  -0.418064  0  3.202405  0  0  -0.346368  0  3.495651  0  0  -0.369346  0  3.509769  0  0  -0.345182  -0.330187  0  3.484518  0
N  N80  1  0.75153018  0.23505698  0.85395097  1  0  -0.277034  0  2.833095  0  0  -0.27466  0  3.101755  0  0  -0.283082  0  3.116046  0  0  -0.223597  -0.268326  0  3.091586  0
N  N81  1  0.24847008  0.76494196  0.14604964  1  0  -0.277083  0  2.832989  0  0  -0.274681  0  3.101676  0  0  -0.28311  0  3.115967  0  0  -0.223626  -0.268351  0  3.091511  0
N  N82  1  0.84681812  0.19505826  0.95991545  1  0  0.043332  0  3.551786  0  0  0.161356  0  3.744616  0  0  0.150997  0  3.768238  0  0  -0.131337  0.167016  0  3.730642  0
N  N83  1  0.15318380  0.80494186  0.04008469  1  0  0.043454  0  3.551657  0  0  0.161386  0  3.744563  0  0  0.151048  0  3.768142  0  0  -0.131275  0.167041  0  3.730593  0
N  N84  1  0.48568991  0.33967968  0.38808502  1  0  0.047525  0  3.554201  0  0  0.16935  0  3.739813  0  0  0.159273  0  3.762962  0  0  -0.129807  0.175164  0  3.725513  0
N  N85  1  0.51431242  0.66031927  0.61191553  1  0  0.0476  0  3.554241  0  0  0.169401  0  3.739843  0  0  0.159335  0  3.762972  0  0  -0.129802  0.175213  0  3.72554  0
N  N86  1  0.57033764  0.31854705  0.49344509  1  0  -0.27738  0  2.827222  0  0  -0.275771  0  3.092313  0  0  -0.28459  0  3.10646  0  0  -0.224306  -0.26943  0  3.083065  0
N  N87  1  0.42966387  0.68145426  0.50655465  1  0  -0.2774  0  2.827225  0  0  -0.275802  0  3.09234  0  0  -0.284624  0  3.106485  0  0  -0.224332  -0.269462  0  3.08309  0
N  N88  1  0.34353039  0.31821702  0.54224747  1  0  -0.410724  0  3.198252  0  0  -0.338117  0  3.489623  0  0  -0.361082  0  3.503029  0  0  -0.346619  -0.322199  0  3.479881  0
N  N89  1  0.65647152  0.68178311  0.45775179  1  0  -0.410685  0  3.198085  0  0  -0.33808  0  3.489456  0  0  -0.361045  0  3.502864  0  0  -0.346582  -0.322164  0  3.47972  0
O  O90  1  0.25241359  0.39888488  0.79928434  1  0  -0.663796  0  1.959692  0  0  -0.596018  0  2.202481  0  0  -0.625032  0  2.193859  0  0  -0.336392  -0.576111  0  2.207481  0
O  O91  1  0.74758440  0.60111170  0.20071805  1  0  -0.663713  0  1.959644  0  0  -0.595928  0  2.202446  0  0  -0.62494  0  2.193828  0  0  -0.336345  -0.576017  0  2.207441  0
O  O92  1  0.31995955  0.14054581  0.85339259  1  0  -0.645132  0  1.936888  0  0  -0.583457  0  2.168669  0  0  -0.610696  0  2.160641  0  0  -0.328547  -0.564619  0  2.173187  0
O  O93  1  0.68004605  0.85944961  0.14660825  1  0  -0.645124  0  1.936895  0  0  -0.583423  0  2.168672  0  0  -0.610663  0  2.160641  0  0  -0.328544  -0.564591  0  2.173191  0
O  O94  1  0.00029500  0.38219529  0.46657852  1  0  -0.700615  0  2.056089  0  0  -0.614924  0  2.322568  0  0  -0.649011  0  2.311479  0  0  -0.34862  -0.59087  0  2.331105  0
O  O95  1  0.99970341  0.61780599  0.53341953  1  0  -0.700614  0  2.056098  0  0  -0.61491  0  2.322561  0  0  -0.649005  0  2.311485  0  0  -0.348607  -0.590867  0  2.331106  0
O  O96  1  0.09253347  0.12279714  0.58726861  1  0  -0.62698  0  1.898708  0  0  -0.572399  0  2.12365  0  0  -0.597869  0  2.116153  0  0  -0.321003  -0.554125  0  2.128413  0
O  O97  1  0.90746309  0.87720648  0.41272777  1  0  -0.626997  0  1.898757  0  0  -0.572438  0  2.123736  0  0  -0.597915  0  2.116244  0  0  -0.320973  -0.554156  0  2.128469  0
