# generated using pymatgen
data_ZnH26C26(NO)4
_symmetry_space_group_name_H-M   'P 1'
_cell_length_a   9.14052815
_cell_length_b   10.74407809
_cell_length_c   12.32770657
_cell_angle_alpha   84.81071607
_cell_angle_beta   74.88678681
_cell_angle_gamma   87.73591910
_symmetry_Int_Tables_number   1
_chemical_formula_structural   ZnH26C26(NO)4
_chemical_formula_sum   'Zn2 H52 C52 N8 O8'
_cell_volume   1163.83766520
_cell_formula_units_Z   2
loop_
 _symmetry_equiv_pos_site_id
 _symmetry_equiv_pos_as_xyz
  1  'x, y, z'
loop_
 _atom_site_type_symbol
 _atom_site_label
 _atom_site_symmetry_multiplicity
 _atom_site_fract_x
 _atom_site_fract_y
 _atom_site_fract_z
 _atom_site_occupancy
 _atom_site_hle17_bader_spin_density
 _atom_site_hle17_ddec_charge
 _atom_site_hle17_ddec_spin_density
 _atom_site_hle17_ddec_sum_bond_order
 _atom_site_hle17_magmom
 _atom_site_hse06_10hf_bader_spin_density
 _atom_site_hse06_10hf_ddec_charge
 _atom_site_hse06_10hf_ddec_spin_density
 _atom_site_hse06_10hf_ddec_sum_bond_order
 _atom_site_hse06_10hf_magmom
 _atom_site_hse06_bader_spin_density
 _atom_site_hse06_ddec_charge
 _atom_site_hse06_ddec_spin_density
 _atom_site_hse06_ddec_sum_bond_order
 _atom_site_hse06_magmom
 _atom_site_pbe_bader_spin_density
 _atom_site_pbe_cm5_charge
 _atom_site_pbe_ddec_charge
 _atom_site_pbe_ddec_spin_density
 _atom_site_pbe_ddec_sum_bond_order
 _atom_site_pbe_magmom
Zn  Zn0  1  0.65934743  0.43275676  0.69342138  1  0  1.028039  0  1.857409  0  0  0.833753  0  2.343158  0  0  0.879604  0  2.287989  0  0  0.698473  0.801771  0  2.381262  0
Zn  Zn1  1  0.34064989  0.56724291  0.30658138  1  0  1.028053  0  1.857381  0  0  0.833797  0  2.343108  0  0  0.879628  0  2.287929  0  0  0.69848  0.801806  0  2.381208  0
H  H2  1  0.09772365  0.32502293  0.10930736  1  0  0.104463  0  0.950317  0  0  0.116132  0  1.01005  0  0  0.119705  0  1.007284  0  0  0.100105  0.113323  0  1.012296  0
H  H3  1  0.90226673  0.67497684  0.89069032  1  0  0.10458  0  0.950269  0  0  0.116253  0  1.009982  0  0  0.119825  0  1.007216  0  0  0.100129  0.113443  0  1.012227  0
H  H4  1  0.49959736  0.92799980  0.82034806  1  0  0.095354  0  0.943613  0  0  0.111387  0  0.994235  0  0  0.113763  0  0.993895  0  0  0.10443  0.109491  0  0.994852  0
H  H5  1  0.50040221  0.07199800  0.17965276  1  0  0.095359  0  0.943601  0  0  0.111396  0  0.99422  0  0  0.113772  0  0.99388  0  0  0.104435  0.109501  0  0.994837  0
H  H6  1  0.31545644  0.08490604  0.91829696  1  0  0.107344  0  0.948844  0  0  0.118786  0  1.006273  0  0  0.122124  0  1.004067  0  0  0.105187  0.116397  0  1.007905  0
H  H7  1  0.68454318  0.91508895  0.08170487  1  0  0.107323  0  0.948841  0  0  0.118764  0  1.006283  0  0  0.122103  0  1.004076  0  0  0.105181  0.116376  0  1.007915  0
H  H8  1  0.55697909  0.79228443  0.28177828  1  0  0.105915  0  1.006257  0  0  0.110739  0  1.075078  0  0  0.113519  0  1.07391  0  0  0.111179  0.108531  0  1.076445  0
H  H9  1  0.44301249  0.20771717  0.71822307  1  0  0.105896  0  1.006249  0  0  0.110717  0  1.075076  0  0  0.113495  0  1.073909  0  0  0.111152  0.108492  0  1.076461  0
H  H10  1  0.61169928  0.89848770  0.46547387  1  0  0.11414  0  0.962793  0  0  0.123588  0  1.026526  0  0  0.125744  0  1.026653  0  0  0.121238  0.121904  0  1.026755  0
H  H11  1  0.38829452  0.10151577  0.53452527  1  0  0.11417  0  0.962724  0  0  0.123548  0  1.02655  0  0  0.125696  0  1.026686  0  0  0.121239  0.121864  0  1.026779  0
H  H12  1  0.57694667  0.79319289  0.67355126  1  0  0.090691  0  0.945504  0  0  0.105942  0  1.007464  0  0  0.106891  0  1.006493  0  0  0.115098  0.105113  0  1.008267  0
H  H13  1  0.42305623  0.20681143  0.32644757  1  0  0.09069  0  0.945478  0  0  0.105938  0  1.00742  0  0  0.106909  0  1.006461  0  0  0.115082  0.10511  0  1.008223  0
H  H14  1  0.44030698  0.67832696  0.72216722  1  0  0.109172  0  0.946022  0  0  0.123727  0  1.007979  0  0  0.125479  0  1.006517  0  0  0.119809  0.122265  0  1.009246  0
H  H15  1  0.55969938  0.32167545  0.27783349  1  0  0.109233  0  0.945934  0  0  0.123718  0  1.007947  0  0  0.12549  0  1.006503  0  0  0.1198  0.122256  0  1.009216  0
H  H16  1  0.33790538  0.42670505  0.06827803  1  0  0.125558  0  0.927941  0  0  0.137479  0  0.989889  0  0  0.140523  0  0.987704  0  0  0.104659  0.135739  0  0.990298  0
H  H17  1  0.66208393  0.57329191  0.93172169  1  0  0.125534  0  0.928036  0  0  0.137469  0  0.989975  0  0  0.140508  0  0.987794  0  0  0.104643  0.135728  0  0.990384  0
H  H18  1  0.36637309  0.57691968  0.99210115  1  0  0.107327  0  0.92797  0  0  0.123348  0  0.983526  0  0  0.125276  0  0.983051  0  0  0.097796  0.122302  0  0.983263  0
H  H19  1  0.63361509  0.42307915  0.00789949  1  0  0.107307  0  0.927982  0  0  0.123346  0  0.983524  0  0  0.125272  0  0.983049  0  0  0.097785  0.1223  0  0.98326  0
H  H20  1  0.74369546  0.93162663  0.60906695  1  0  0.078713  0  0.977492  0  0  0.089491  0  1.042447  0  0  0.092334  0  1.040937  0  0  0.092584  0.087485  0  1.043566  0
H  H21  1  0.25630754  0.06837020  0.39093404  1  0  0.078651  0  0.977414  0  0  0.089429  0  1.042376  0  0  0.092261  0  1.040878  0  0  0.092532  0.087423  0  1.043497  0
H  H22  1  0.19383685  0.61499180  0.66373593  1  0  0.13011  0  0.940421  0  0  0.150672  0  0.999816  0  0  0.152569  0  0.999672  0  0  0.100389  0.149308  0  0.999865  0
H  H23  1  0.80617075  0.38500498  0.33626737  1  0  0.130144  0  0.940331  0  0  0.150675  0  0.999794  0  0  0.152571  0  0.99965  0  0  0.100406  0.149314  0  0.999844  0
H  H24  1  0.35248954  0.51354742  0.65624277  1  0  0.132012  0  0.95988  0  0  0.148331  0  1.027196  0  0  0.150949  0  1.026176  0  0  0.098019  0.14662  0  1.027895  0
H  H25  1  0.64752037  0.48645026  0.34376243  1  0  0.132022  0  0.960021  0  0  0.148393  0  1.027265  0  0  0.151015  0  1.02624  0  0  0.098045  0.146682  0  1.027964  0
H  H26  1  0.24099928  0.50514305  0.55809509  1  0  0.154429  0  0.978701  0  0  0.170552  0  1.038262  0  0  0.174127  0  1.036213  0  0  0.102215  0.167841  0  1.039913  0
H  H27  1  0.75900608  0.49485281  0.44190955  1  0  0.154419  0  0.978625  0  0  0.170553  0  1.038179  0  0  0.174126  0  1.036124  0  0  0.102205  0.167842  0  1.039828  0
H  H28  1  0.17400790  0.83005582  0.64577377  1  0  0.092117  0  0.978288  0  0  0.10169  0  1.043047  0  0  0.103916  0  1.043205  0  0  0.100793  0.100082  0  1.042787  0
H  H29  1  0.82599500  0.16994570  0.35422446  1  0  0.092152  0  0.978224  0  0  0.101709  0  1.042999  0  0  0.103942  0  1.043147  0  0  0.100814  0.100101  0  1.042741  0
H  H30  1  0.01922817  0.68332703  0.46901756  1  0  0.109512  0  0.93373  0  0  0.127442  0  0.990909  0  0  0.129597  0  0.990138  0  0  0.101861  0.126386  0  0.990717  0
H  H31  1  0.98077602  0.31666885  0.53098569  1  0  0.109524  0  0.93373  0  0  0.127438  0  0.990947  0  0  0.129593  0  0.990177  0  0  0.101843  0.126378  0  0.990753  0
H  H32  1  0.85034320  0.73561466  0.43905136  1  0  0.100789  0  0.953275  0  0  0.111884  0  1.022896  0  0  0.113662  0  1.02343  0  0  0.095413  0.11109  0  1.021852  0
H  H33  1  0.14966089  0.26437753  0.56094570  1  0  0.100785  0  0.95331  0  0  0.111908  0  1.022913  0  0  0.113686  0  1.023447  0  0  0.095424  0.111111  0  1.021868  0
H  H34  1  0.98048925  0.49873930  0.69346471  1  0  0.100635  0  0.983211  0  0  0.111383  0  1.042243  0  0  0.113016  0  1.04247  0  0  0.119279  0.11016  0  1.042237  0
H  H35  1  0.01950797  0.50126506  0.30653529  1  0  0.10068  0  0.983146  0  0  0.111367  0  1.042253  0  0  0.112994  0  1.042496  0  0  0.11927  0.110143  0  1.04225  0
H  H36  1  0.16936312  0.34479701  0.79552779  1  0  0.124719  0  0.953803  0  0  0.135208  0  1.012803  0  0  0.137244  0  1.013062  0  0  0.126027  0.133732  0  1.012917  0
H  H37  1  0.83063859  0.65520920  0.20446953  1  0  0.124726  0  0.953853  0  0  0.135211  0  1.012854  0  0  0.137247  0  1.013123  0  0  0.126022  0.133752  0  1.012953  0
H  H38  1  0.92529938  0.07954360  0.95811636  1  0  0.077136  0  0.958809  0  0  0.093939  0  1.021767  0  0  0.093713  0  1.023322  0  0  0.112843  0.094045  0  1.020742  0
H  H39  1  0.07470463  0.92046258  0.04188211  1  0  0.077103  0  0.958876  0  0  0.093912  0  1.021838  0  0  0.093675  0  1.023416  0  0  0.112849  0.094017  0  1.020814  0
H  H40  1  0.07522284  0.17428520  0.96615735  1  0  0.092129  0  0.922978  0  0  0.105525  0  0.987469  0  0  0.106663  0  0.986437  0  0  0.117372  0.104575  0  0.988413  0
H  H41  1  0.92478343  0.82571724  0.03383931  1  0  0.092137  0  0.923  0  0  0.105567  0  0.987464  0  0  0.106705  0  0.986432  0  0  0.117408  0.104618  0  0.988407  0
H  H42  1  0.99168458  0.97960154  0.74495367  1  0  0.093387  0  0.967749  0  0  0.1037  0  1.030939  0  0  0.105851  0  1.030844  0  0  0.100182  0.102106  0  1.031089  0
H  H43  1  0.00831713  0.02040187  0.25504304  1  0  0.093457  0  0.967653  0  0  0.103764  0  1.03086  0  0  0.105912  0  1.030762  0  0  0.100205  0.102169  0  1.03101  0
H  H44  1  0.66922203  0.14357358  0.95413221  1  0  0.130406  0  0.940526  0  0  0.149666  0  1.001273  0  0  0.151738  0  1.000837  0  0  0.0993  0.14837  0  1.001421  0
H  H45  1  0.33078207  0.85642885  0.04586895  1  0  0.1304  0  0.940545  0  0  0.149663  0  1.001289  0  0  0.15174  0  1.000845  0  0  0.099302  0.148366  0  1.001438  0
H  H46  1  0.74804706  0.05364768  0.83790688  1  0  0.125098  0  0.938008  0  0  0.14593  0  0.996591  0  0  0.148195  0  0.995235  0  0  0.099578  0.144208  0  0.9977  0
H  H47  1  0.25195701  0.94635661  0.16209415  1  0  0.125141  0  0.937965  0  0  0.145979  0  0.996538  0  0  0.148236  0  0.99519  0  0  0.099617  0.144256  0  0.997651  0
H  H48  1  0.61250054  0.17650094  0.82825637  1  0  0.142419  0  0.96832  0  0  0.16185  0  1.02938  0  0  0.164139  0  1.028333  0  0  0.10329  0.159856  0  1.030735  0
H  H49  1  0.38750242  0.82350150  0.17174503  1  0  0.142415  0  0.968363  0  0  0.161848  0  1.029425  0  0  0.164134  0  1.028379  0  0  0.103281  0.159868  0  1.030768  0
H  H50  1  0.82515449  0.33515608  0.10930028  1  0  0.084313  0  0.958569  0  0  0.097564  0  1.018409  0  0  0.099756  0  1.01874  0  0  0.092538  0.095509  0  1.018716  0
H  H51  1  0.17483591  0.66483810  0.89069618  1  0  0.084237  0  0.958727  0  0  0.097503  0  1.018534  0  0  0.099694  0  1.018865  0  0  0.092567  0.095433  0  1.018856  0
H  H52  1  0.81306262  0.15238372  0.59858360  1  0  0.083556  0  0.979847  0  0  0.093011  0  1.047236  0  0  0.094822  0  1.048192  0  0  0.091896  0.09179  0  1.046288  0
H  H53  1  0.18693929  0.84761124  0.40141937  1  0  0.083533  0  0.979892  0  0  0.092976  0  1.047297  0  0  0.09479  0  1.048249  0  0  0.091881  0.091756  0  1.04635  0
C  C54  1  0.34969456  0.86680368  0.72732631  1  0  0.066508  0  3.759567  0  0  0.083991  0  4.003129  0  0  0.083551  0  4.027458  0  0  -0.012978  0.08435  0  3.98656  0
C  C55  1  0.65030727  0.13319690  0.27267465  1  0  0.066455  0  3.759609  0  0  0.08392  0  4.003168  0  0  0.08351  0  4.027518  0  0  -0.012988  0.084281  0  3.986601  0
C  C56  1  0.05504202  0.40040211  0.05970341  1  0  -0.129991  0  3.763301  0  0  -0.150889  0  4.016427  0  0  -0.152847  0  4.036444  0  0  -0.097867  -0.149542  0  4.003326  0
C  C57  1  0.94494836  0.59959766  0.94029427  1  0  -0.130208  0  3.763699  0  0  -0.151185  0  4.016789  0  0  -0.153144  0  4.036805  0  0  -0.097874  -0.149834  0  4.003687  0
C  C58  1  0.15477451  0.49281756  0.99837875  1  0  0.11375  0  3.77051  0  0  0.133145  0  4.007572  0  0  0.133531  0  4.032417  0  0  -0.014505  0.132707  0  3.99056  0
C  C59  1  0.84521811  0.50717941  0.00161625  1  0  0.113773  0  3.770846  0  0  0.133399  0  4.007582  0  0  0.133788  0  4.03242  0  0  -0.014478  0.132946  0  3.990597  0
C  C60  1  0.38737491  0.93914629  0.80468978  1  0  -0.12489  0  3.768528  0  0  -0.142609  0  4.012869  0  0  -0.146215  0  4.035903  0  0  -0.093068  -0.140236  0  3.997603  0
C  C61  1  0.61262579  0.06085150  0.19531080  1  0  -0.124898  0  3.768526  0  0  -0.14262  0  4.01288  0  0  -0.146224  0  4.035905  0  0  -0.093058  -0.140247  0  3.997616  0
C  C62  1  0.28370456  0.02583603  0.86081177  1  0  -0.122503  0  3.767992  0  0  -0.14043  0  4.015681  0  0  -0.142525  0  4.036577  0  0  -0.092747  -0.139224  0  4.001934  0
C  C63  1  0.71629387  0.97416271  0.13918921  1  0  -0.122481  0  3.767974  0  0  -0.140409  0  4.015664  0  0  -0.142504  0  4.03656  0  0  -0.092758  -0.13921  0  4.001913  0
C  C64  1  0.82846260  0.66952890  0.61078586  1  0  0.691689  0  3.875523  0  0  0.645991  0  4.179905  0  0  0.678455  0  4.172334  0  0  0.199408  0.623985  0  4.184442  0
C  C65  1  0.17153585  0.33046797  0.38921525  1  0  0.691772  0  3.875714  0  0  0.646103  0  4.180093  0  0  0.67857  0  4.172522  0  0  0.199441  0.624089  0  4.184634  0
C  C66  1  0.40974571  0.42219107  0.88860786  1  0  0.698645  0  3.855707  0  0  0.653396  0  4.157338  0  0  0.686037  0  4.150619  0  0  0.205179  0.631906  0  4.160547  0
C  C67  1  0.59025490  0.57781141  0.11138996  1  0  0.698805  0  3.855559  0  0  0.653589  0  4.157144  0  0  0.686248  0  4.150388  0  0  0.205257  0.632098  0  4.160354  0
C  C68  1  0.51235008  0.76964928  0.37152813  1  0  -0.011778  0  3.780728  0  0  -0.048341  0  4.053798  0  0  -0.046453  0  4.073354  0  0  -0.012801  -0.049614  0  4.040984  0
C  C69  1  0.48764380  0.23035136  0.62847363  1  0  -0.011754  0  3.780678  0  0  -0.048307  0  4.053726  0  0  -0.046416  0  4.073282  0  0  -0.0128  -0.049564  0  4.040922  0
C  C70  1  0.54100898  0.82138023  0.46120832  1  0  -0.056738  0  3.681888  0  0  -0.099061  0  3.944947  0  0  -0.09781  0  3.964715  0  0  -0.000934  -0.100122  0  3.931618  0
C  C71  1  0.45898487  0.17862135  0.53879257  1  0  -0.056831  0  3.681811  0  0  -0.099101  0  3.944897  0  0  -0.097843  0  3.964659  0  0  -0.00095  -0.100163  0  3.931565  0
C  C72  1  0.46174103  0.76942163  0.67276605  1  0  -0.051063  0  3.642912  0  0  -0.117198  0  3.888208  0  0  -0.112927  0  3.898025  0  0  -0.048242  -0.11999  0  3.881793  0
C  C73  1  0.53826305  0.23057894  0.32723363  1  0  -0.051057  0  3.642801  0  0  -0.117086  0  3.888022  0  0  -0.112936  0  3.897999  0  0  -0.048189  -0.119888  0  3.881633  0
C  C74  1  0.38483146  0.66123607  0.52470089  1  0  0.388703  0  3.659387  0  0  0.366037  0  3.922189  0  0  0.382665  0  3.936342  0  0  0.225152  0.354681  0  3.91203  0
C  C75  1  0.61517265  0.33876262  0.47529974  1  0  0.388675  0  3.659442  0  0  0.366072  0  3.922201  0  0  0.382702  0  3.936347  0  0  0.225194  0.354719  0  3.912034  0
C  C76  1  0.95976734  0.87277316  0.50484592  1  0  0.122559  0  3.760552  0  0  0.140539  0  3.994983  0  0  0.141565  0  4.018453  0  0  -0.014458  0.139781  0  3.979137  0
C  C77  1  0.04023110  0.12722278  0.49515445  1  0  0.122557  0  3.760545  0  0  0.140538  0  3.995019  0  0  0.141566  0  4.018485  0  0  -0.014513  0.139778  0  3.979171  0
C  C78  1  0.13971031  0.04102204  0.84113608  1  0  0.055653  0  3.7588  0  0  0.074074  0  4.000507  0  0  0.072964  0  4.02434  0  0  -0.017315  0.07484  0  3.984524  0
C  C79  1  0.86029034  0.95897857  0.15886268  1  0  0.055752  0  3.758821  0  0  0.074166  0  4.000561  0  0  0.073055  0  4.024393  0  0  -0.017268  0.074956  0  3.984549  0
C  C80  1  0.32082217  0.48359811  0.99381448  1  0  -0.316282  0  3.70068  0  0  -0.35738  0  3.937883  0  0  -0.363808  0  3.946766  0  0  -0.16623  -0.352439  0  3.930212  0
C  C81  1  0.67916938  0.51640164  0.00618458  1  0  -0.316206  0  3.700918  0  0  -0.357387  0  3.938048  0  0  -0.363812  0  3.946913  0  0  -0.166185  -0.35244  0  3.930379  0
C  C82  1  0.85639414  0.96073006  0.56033801  1  0  -0.124683  0  3.768701  0  0  -0.143779  0  4.018284  0  0  -0.145832  0  4.038285  0  0  -0.098718  -0.142178  0  4.0045  0
C  C83  1  0.14360313  0.03926870  0.43966239  1  0  -0.124669  0  3.768598  0  0  -0.143755  0  4.018176  0  0  -0.1458  0  4.038182  0  0  -0.098678  -0.142154  0  4.004394  0
C  C84  1  0.28717217  0.56872603  0.60499246  1  0  -0.409828  0  3.689109  0  0  -0.488707  0  3.924087  0  0  -0.494051  0  3.92912  0  0  -0.239324  -0.484609  0  3.920343  0
C  C85  1  0.71283320  0.43126889  0.39501224  1  0  -0.409838  0  3.689249  0  0  -0.488768  0  3.924219  0  0  -0.494106  0  3.929238  0  0  -0.239362  -0.484671  0  3.920474  0
C  C86  1  0.20631768  0.88351594  0.70659716  1  0  -0.110482  0  3.744266  0  0  -0.130885  0  3.992318  0  0  -0.133678  0  4.014148  0  0  -0.090326  -0.128657  0  3.977094  0
C  C87  1  0.79368301  0.11648185  0.29340262  1  0  -0.110532  0  3.744308  0  0  -0.130918  0  3.992372  0  0  -0.133709  0  4.014189  0  0  -0.090401  -0.128689  0  3.97715  0
C  C88  1  0.91685555  0.74022913  0.50122297  1  0  -0.316181  0  3.717155  0  0  -0.358188  0  3.956328  0  0  -0.364072  0  3.964433  0  0  -0.168786  -0.354547  0  3.950197  0
C  C89  1  0.08314405  0.25976587  0.49877804  1  0  -0.316107  0  3.71718  0  0  -0.358153  0  3.956379  0  0  -0.364034  0  3.964483  0  0  -0.16871  -0.354497  0  3.95023  0
C  C90  1  0.96147916  0.40759318  0.73880577  1  0  0.01837  0  3.760721  0  0  -0.018508  0  4.02981  0  0  -0.01627  0  4.049903  0  0  0.0018  -0.020012  0  4.01652  0
C  C91  1  0.03852041  0.59241301  0.26119767  1  0  0.018368  0  3.760731  0  0  -0.018452  0  4.029811  0  0  -0.016216  0  4.0499  0  0  0.001867  -0.019958  0  4.016525  0
C  C92  1  0.05531590  0.33346937  0.78786764  1  0  -0.047826  0  3.662127  0  0  -0.091171  0  3.925699  0  0  -0.090065  0  3.945806  0  0  0.006532  -0.091965  0  3.912435  0
C  C93  1  0.94468358  0.66653218  0.21213048  1  0  -0.04789  0  3.662176  0  0  -0.091227  0  3.925725  0  0  -0.090126  0  3.945832  0  0  0.006489  -0.092036  0  3.912452  0
C  C94  1  0.02581643  0.12975373  0.90746392  1  0  -0.039504  0  3.664304  0  0  -0.10624  0  3.91091  0  0  -0.101254  0  3.921218  0  0  -0.045803  -0.109506  0  3.903997  0
C  C95  1  0.97418874  0.87024965  0.09253453  1  0  -0.039546  0  3.664489  0  0  -0.106308  0  3.911143  0  0  -0.101321  0  3.921454  0  0  -0.045861  -0.10958  0  3.904222  0
C  C96  1  0.10233730  0.96937547  0.76304729  1  0  -0.097752  0  3.726746  0  0  -0.11708  0  3.971899  0  0  -0.11894  0  3.993508  0  0  -0.087608  -0.115578  0  3.956991  0
C  C97  1  0.89766441  0.03062516  0.23694801  1  0  -0.097859  0  3.726878  0  0  -0.11719  0  3.972067  0  0  -0.119046  0  3.993672  0  0  -0.087607  -0.115695  0  3.957154  0
C  C98  1  0.70969852  0.14801758  0.86163674  1  0  -0.398628  0  3.719561  0  0  -0.479135  0  3.956144  0  0  -0.483021  0  3.961512  0  0  -0.233237  -0.476456  0  3.953131  0
C  C99  1  0.29030668  0.85198578  0.13836332  1  0  -0.39866  0  3.719576  0  0  -0.479192  0  3.956151  0  0  -0.483066  0  3.961529  0  0  -0.233293  -0.476524  0  3.953125  0
C  C100  1  0.83195616  0.24069257  0.81899903  1  0  0.374156  0  3.681182  0  0  0.349857  0  3.949258  0  0  0.365571  0  3.964526  0  0  0.221717  0.339556  0  3.93891  0
C  C101  1  0.16804564  0.75931082  0.18100172  1  0  0.374099  0  3.681304  0  0  0.349824  0  3.949354  0  0  0.365536  0  3.964623  0  0  0.221732  0.339523  0  3.939008  0
C  C102  1  0.90196999  0.40774101  0.06117078  1  0  -0.130874  0  3.763429  0  0  -0.150081  0  4.01408  0  0  -0.152692  0  4.035842  0  0  -0.102177  -0.148397  0  3.99989  0
C  C103  1  0.09801807  0.59225600  0.93882433  1  0  -0.130674  0  3.763516  0  0  -0.149823  0  4.014242  0  0  -0.152431  0  4.036003  0  0  -0.102224  -0.148132  0  4.000047  0
C  C104  1  0.89591025  0.08555324  0.55510218  1  0  -0.134585  0  3.767549  0  0  -0.151793  0  4.01617  0  0  -0.154497  0  4.037769  0  0  -0.101347  -0.149708  0  4.001037  0
C  C105  1  0.10408936  0.91444175  0.44489964  1  0  -0.134465  0  3.767581  0  0  -0.151674  0  4.016195  0  0  -0.154376  0  4.03779  0  0  -0.10131  -0.14959  0  4.001062  0
N  N106  1  0.41469712  0.67064285  0.41154241  1  0  -0.456852  0  3.248443  0  0  -0.378586  0  3.544128  0  0  -0.399686  0  3.554146  0  0  -0.360153  -0.364218  0  3.536935  0
N  N107  1  0.58530471  0.32935587  0.58845787  1  0  -0.456841  0  3.248509  0  0  -0.378609  0  3.544186  0  0  -0.399716  0  3.554213  0  0  -0.360152  -0.36424  0  3.536987  0
N  N108  1  0.46096542  0.75187027  0.55687015  1  0  -0.104538  0  3.527329  0  0  -0.014784  0  3.742705  0  0  -0.030458  0  3.768054  0  0  -0.23867  -0.004323  0  3.725552  0
N  N109  1  0.53903757  0.24812937  0.44313145  1  0  -0.104448  0  3.52708  0  0  -0.014724  0  3.742411  0  0  -0.030366  0  3.767779  0  0  -0.238659  -0.004264  0  3.725261  0
N  N110  1  0.82369361  0.34919278  0.75760211  1  0  -0.455997  0  3.259358  0  0  -0.379116  0  3.560808  0  0  -0.400348  0  3.571542  0  0  -0.360931  -0.365028  0  3.554096  0
N  N111  1  0.17630817  0.65081061  0.24239783  1  0  -0.456022  0  3.259446  0  0  -0.379125  0  3.560814  0  0  -0.400345  0  3.571536  0  0  -0.36095  -0.365033  0  3.554096  0
N  N112  1  0.97226898  0.22932781  0.83821844  1  0  -0.10736  0  3.533053  0  0  -0.017189  0  3.748942  0  0  -0.032801  0  3.774486  0  0  -0.240032  -0.006576  0  3.73136  0
N  N113  1  0.02773505  0.77067464  0.16177949  1  0  -0.107228  0  3.533035  0  0  -0.017075  0  3.74895  0  0  -0.032685  0  3.774493  0  0  -0.240002  -0.006462  0  3.731372  0
O  O114  1  0.49175553  0.49848225  0.80998030  1  0  -0.679958  0  2.063237  0  0  -0.600713  0  2.344413  0  0  -0.629066  0  2.327164  0  0  -0.34019  -0.581685  0  2.355463  0
O  O115  1  0.50824511  0.50152022  0.19001914  1  0  -0.680023  0  2.06311  0  0  -0.600777  0  2.344247  0  0  -0.629142  0  2.327011  0  0  -0.340195  -0.581744  0  2.355295  0
O  O116  1  0.76581176  0.57010670  0.59051743  1  0  -0.687974  0  2.065071  0  0  -0.603204  0  2.342471  0  0  -0.632001  0  2.326434  0  0  -0.349557  -0.582909  0  2.352492  0
O  O117  1  0.23418436  0.42989487  0.40948300  1  0  -0.688064  0  2.06515  0  0  -0.603331  0  2.342586  0  0  -0.632117  0  2.326517  0  0  -0.349572  -0.583024  0  2.352603  0
O  O118  1  0.39944450  0.30761410  0.88206790  1  0  -0.63963  0  1.905532  0  0  -0.592027  0  2.130037  0  0  -0.614709  0  2.121274  0  0  -0.331009  -0.575863  0  2.135175  0
O  O119  1  0.60055948  0.69238930  0.11792835  1  0  -0.639703  0  1.905435  0  0  -0.592137  0  2.129929  0  0  -0.614831  0  2.121174  0  0  -0.331081  -0.575974  0  2.135075  0
O  O120  1  0.82295585  0.70397949  0.70536068  1  0  -0.61375  0  1.868  0  0  -0.572869  0  2.082572  0  0  -0.593439  0  2.073739  0  0  -0.332374  -0.558636  0  2.088195  0
O  O121  1  0.17704829  0.29601920  0.29464156  1  0  -0.613791  0  1.868131  0  0  -0.572902  0  2.082696  0  0  -0.593471  0  2.073859  0  0  -0.332414  -0.558669  0  2.088323  0
