# generated using pymatgen
data_CuH7C11S(NO2)2
_symmetry_space_group_name_H-M   'P 1'
_cell_length_a   8.29276788
_cell_length_b   10.30793864
_cell_length_c   16.57011491
_cell_angle_alpha   89.99977645
_cell_angle_beta   96.69342413
_cell_angle_gamma   90.00035565
_symmetry_Int_Tables_number   1
_chemical_formula_structural   CuH7C11S(NO2)2
_chemical_formula_sum   'Cu4 H28 C44 S4 N8 O16'
_cell_volume   1406.78128910
_cell_formula_units_Z   4
loop_
 _symmetry_equiv_pos_site_id
 _symmetry_equiv_pos_as_xyz
  1  'x, y, z'
loop_
 _atom_site_type_symbol
 _atom_site_label
 _atom_site_symmetry_multiplicity
 _atom_site_fract_x
 _atom_site_fract_y
 _atom_site_fract_z
 _atom_site_occupancy
 _atom_site_pbe_bader_charge
 _atom_site_pbe_bader_spin_density
 _atom_site_pbe_cm5_charge
 _atom_site_pbe_ddec_charge
 _atom_site_pbe_ddec_spin_density
 _atom_site_pbe_ddec_sum_bond_order
 _atom_site_pbe_magmom
Cu  Cu0  1  0.98844506  0.32832784  0.90551583  1  1.079506  0.576232  0.74773  0.777082  0.734135  2.28607  0.574
Cu  Cu1  1  0.51156573  0.82832681  0.59448962  1  1.079178  0.576232  0.747739  0.777134  0.734136  2.285742  0.574
Cu  Cu2  1  0.01154518  0.67168491  0.09449213  1  1.079366  0.576218  0.747724  0.7771  0.734109  2.285924  0.574
Cu  Cu3  1  0.48845840  0.17167915  0.40550334  1  1.079434  0.576228  0.74777  0.777145  0.734119  2.285947  0.574
H  H4  1  0.56040676  0.62073989  0.99349674  1  0.084112  0.002295  0.101908  0.101277  0.0012  1.052448  0.001
H  H5  1  0.93959692  0.12073475  0.50650200  1  0.084179  0.002295  0.101903  0.101249  0.0012  1.052477  0.001
H  H6  1  0.43958543  0.37930003  0.00649989  1  0.084243  0.002294  0.101983  0.101353  0.0012  1.052319  0.001
H  H7  1  0.06042635  0.87929449  0.49350418  1  0.084189  0.002294  0.101974  0.101383  0.0012  1.052367  0.001
H  H8  1  0.49641695  0.73391413  0.85866525  1  0.109522  0.000451  0.112463  0.11255  0.000358  0.995932  0.0
H  H9  1  0.00357581  0.23393394  0.64132784  1  0.10965  0.000451  0.112415  0.112531  0.000358  0.995873  0.0
H  H10  1  0.50357559  0.26610347  0.14132597  1  0.109624  0.000451  0.112511  0.11262  0.000358  0.99603  0.0
H  H11  1  0.99642299  0.76609627  0.35867954  1  0.109902  0.000451  0.112485  0.112606  0.000359  0.996065  0.0
H  H12  1  0.85192008  0.48841722  0.76484034  1  0.163281  0.002669  0.126533  0.108552  0.001236  0.990895  0.002
H  H13  1  0.64808472  0.98842074  0.73516189  1  0.163285  0.00267  0.126543  0.108566  0.001237  0.990878  0.002
H  H14  1  0.14807642  0.51157322  0.23516506  1  0.163233  0.00267  0.126578  0.108568  0.001236  0.990919  0.002
H  H15  1  0.35192348  0.01156581  0.26483230  1  0.163339  0.002669  0.126551  0.108483  0.001236  0.990994  0.002
H  H16  1  0.29288194  0.26726169  0.84276744  1  0.135283  0.002194  0.129582  0.113223  0.001023  0.964072  0.002
H  H17  1  0.20712002  0.76726413  0.65723773  1  0.135383  0.002195  0.129619  0.11321  0.001024  0.964005  0.002
H  H18  1  0.70710207  0.73273748  0.15724247  1  0.134938  0.002196  0.12962  0.113285  0.001024  0.963974  0.002
H  H19  1  0.79290165  0.23274765  0.34275566  1  0.135306  0.002195  0.129615  0.113412  0.001024  0.963794  0.002
H  H20  1  0.53438092  0.13079550  0.88387181  1  0.164623  0.000928  0.112328  0.13712  0.000553  1.03091  0.001
H  H21  1  0.96562103  0.63079374  0.61613584  1  0.164952  0.000928  0.112297  0.137097  0.000553  1.030926  0.001
H  H22  1  0.46558195  0.86916487  0.11612566  1  0.165161  0.000928  0.112326  0.137071  0.000553  1.030861  0.001
H  H23  1  0.03441391  0.36917827  0.38387846  1  0.165162  0.000928  0.112324  0.13715  0.000553  1.030854  0.001
H  H24  1  0.27505721  0.97876645  0.07749295  1  0.180754  0.000934  0.111109  0.13863  0.000539  1.05975  0.001
H  H25  1  0.22492412  0.47878443  0.42250259  1  0.180991  0.000935  0.111131  0.138701  0.000539  1.059608  0.001
H  H26  1  0.72486449  0.02117548  0.92248152  1  0.18116  0.000934  0.111107  0.138778  0.000539  1.059608  0.001
H  H27  1  0.77511453  0.52119339  0.57751078  1  0.180722  0.000934  0.111116  0.13873  0.000539  1.059684  0.001
H  H28  1  0.05154474  0.12801592  0.02956042  1  0.129507  0.002063  0.122044  0.101892  0.000912  0.998001  0.002
H  H29  1  0.44844615  0.62802030  0.47043783  1  0.129207  0.002063  0.122055  0.10195  0.000912  0.997928  0.002
H  H30  1  0.94841911  0.87199780  0.97044074  1  0.129533  0.002064  0.122102  0.101948  0.000913  0.99801  0.002
H  H31  1  0.55156479  0.37200312  0.52955174  1  0.129511  0.002065  0.122033  0.101976  0.000914  0.997889  0.002
C  C32  1  0.73423164  0.49386159  0.94749440  1  0.346208  0.006936  0.103137  0.10305  0.004617  3.908948  0.006
C  C33  1  0.76577672  0.99386410  0.55250989  1  0.346652  0.006938  0.103135  0.103013  0.004619  3.909194  0.006
C  C34  1  0.26576239  0.50616765  0.05251142  1  0.346056  0.006941  0.103255  0.103218  0.004618  3.908845  0.006
C  C35  1  0.23425058  0.00616029  0.44749055  1  0.345774  0.006938  0.103283  0.103289  0.004618  3.908833  0.006
C  C36  1  0.61986749  0.59289178  0.94096031  1  0.080076  0.0033  -0.08335  -0.140934  0.002416  3.991462  0.002
C  C37  1  0.88013587  0.09289471  0.55904028  1  0.079989  0.003301  -0.08328  -0.140795  0.002416  3.991303  0.002
C  C38  1  0.38011855  0.40713067  0.05903707  1  0.08012  0.003298  -0.083471  -0.140929  0.002415  3.991508  0.002
C  C39  1  0.11988854  0.90712483  0.44096719  1  0.080882  0.003299  -0.083544  -0.141164  0.002416  3.991602  0.002
C  C40  1  0.58624850  0.65650701  0.86680116  1  -0.05555  -0.002525  -0.052916  -0.025137  -0.002934  3.907937  -0.002
C  C41  1  0.91375504  0.15651443  0.63320353  1  -0.05569  -0.002524  -0.052923  -0.025209  -0.002933  3.907803  -0.002
C  C42  1  0.41373551  0.34350283  0.13319003  1  -0.055431  -0.002524  -0.052985  -0.02525  -0.002932  3.908365  -0.002
C  C43  1  0.08626647  0.84349250  0.36681097  1  -0.055735  -0.002523  -0.052896  -0.025214  -0.002931  3.908201  -0.002
C  C44  1  0.66998810  0.62015101  0.80180019  1  0.019244  0.015841  -0.005534  -0.05573  0.010969  3.914814  0.013
C  C45  1  0.83002137  0.12015075  0.69820321  1  0.019308  0.015837  -0.005438  -0.055517  0.010967  3.914565  0.013
C  C46  1  0.32999939  0.37985301  0.19819367  1  0.018202  0.015841  -0.005434  -0.055698  0.010968  3.914961  0.013
C  C47  1  0.17000034  0.87984066  0.30180829  1  0.017944  0.01584  -0.005463  -0.0556  0.010967  3.914764  0.013
C  C48  1  0.64161959  0.68420283  0.71986564  1  1.591952  -0.001517  0.197157  0.558456  -0.001921  4.250073  -0.004
C  C49  1  0.85838305  0.18421281  0.78013711  1  1.592023  -0.001516  0.197067  0.558481  -0.001922  4.249905  -0.004
C  C50  1  0.35837166  0.31579343  0.28012669  1  1.592015  -0.001518  0.197208  0.558389  -0.001921  4.250321  -0.004
C  C51  1  0.14162409  0.81578636  0.21987331  1  1.592011  -0.001518  0.19714  0.558258  -0.001922  4.250114  -0.004
C  C52  1  0.78318601  0.51963650  0.81350310  1  0.462167  -0.001748  0.065766  0.106897  -0.002589  3.850027  -0.002
C  C53  1  0.71681449  0.01963962  0.68649623  1  0.461988  -0.001748  0.065692  0.106701  -0.002589  3.8499  -0.002
C  C54  1  0.21680231  0.48036655  0.18649686  1  0.46265  -0.001747  0.065628  0.106896  -0.002587  3.850213  -0.002
C  C55  1  0.28320565  0.98035373  0.31350187  1  0.462606  -0.001748  0.065638  0.106939  -0.002588  3.849874  -0.002
C  C56  1  0.29585926  0.20135600  0.89427121  1  0.485016  -0.001213  0.051779  0.09801  -0.001523  3.923072  -0.001
C  C57  1  0.20414584  0.70135685  0.60573494  1  0.484715  -0.001213  0.051826  0.098167  -0.001523  3.922705  -0.001
C  C58  1  0.70411946  0.79862377  0.10572622  1  0.485627  -0.001212  0.051648  0.097844  -0.001522  3.923059  -0.001
C  C59  1  0.79587994  0.29863844  0.39427022  1  0.485056  -0.001211  0.051678  0.097725  -0.001522  3.922995  -0.001
C  C60  1  0.43019368  0.12405079  0.91817636  1  -0.059899  0.00556  -0.075989  -0.166612  0.003734  3.892681  0.004
C  C61  1  0.06979999  0.62405694  0.58182851  1  -0.060595  0.005562  -0.076123  -0.166802  0.003735  3.892557  0.004
C  C62  1  0.56976129  0.87589793  0.08181145  1  -0.06115  0.005562  -0.075992  -0.16654  0.003735  3.89211  0.004
C  C63  1  0.93023369  0.37591797  0.41818630  1  -0.061008  0.005562  -0.076003  -0.166662  0.003735  3.892412  0.004
C  C64  1  0.42921367  0.04130947  0.98574847  1  -0.020966  -0.003366  0.015282  0.105934  -0.003723  3.949448  -0.002
C  C65  1  0.07077616  0.54132386  0.51425026  1  -0.020845  -0.003366  0.015353  0.10593  -0.003723  3.949579  -0.002
C  C66  1  0.57072238  0.95863052  0.01423010  1  -0.060437  -0.003373  0.015306  0.105801  -0.003722  3.949243  -0.002
C  C67  1  0.92925862  0.45865299  0.48576643  1  -0.060272  -0.003373  0.015226  0.105719  -0.003722  3.94946  -0.002
C  C68  1  0.28831375  0.04079251  0.02541174  1  -0.006811  0.005781  -0.078604  -0.171904  0.003897  3.896153  0.005
C  C69  1  0.21167038  0.54080438  0.47458741  1  -0.006591  0.005782  -0.078564  -0.171647  0.003898  3.895918  0.005
C  C70  1  0.71161831  0.95916979  0.97457196  1  -0.006097  0.005782  -0.078551  -0.171836  0.003898  3.896006  0.005
C  C71  1  0.78835751  0.45918606  0.52542274  1  -0.006154  0.005782  -0.07856  -0.171724  0.003899  3.896002  0.005
C  C72  1  0.16004124  0.12233269  0.99854149  1  0.451749  -0.000678  0.049468  0.0997  -0.000977  3.92897  0.0
C  C73  1  0.33995034  0.62234080  0.50145780  1  0.451503  -0.000675  0.049391  0.099378  -0.000976  3.928847  0.0
C  C74  1  0.83991928  0.87765096  0.00145459  1  0.451025  -0.000675  0.049458  0.099539  -0.000977  3.928778  0.0
C  C75  1  0.66007238  0.37765449  0.49853808  1  0.451382  -0.000674  0.049579  0.099592  -0.000978  3.928764  0.0
S  S76  1  0.78465710  0.40288746  0.04283510  1  1.888802  0.015621  0.326622  0.606697  0.011362  4.593845  0.009
S  S77  1  0.71534778  0.90289073  0.45716333  1  1.888736  0.015622  0.326634  0.606668  0.011362  4.593813  0.009
S  S78  1  0.21531924  0.59713305  0.95716155  1  1.887247  0.015619  0.326481  0.606463  0.011362  4.594196  0.009
S  S79  1  0.28469420  0.09712784  0.54283639  1  1.887072  0.015619  0.326596  0.606607  0.011362  4.594134  0.009
N  N80  1  0.16365537  0.20196378  0.93446273  1  -1.250142  0.086562  -0.351336  -0.219332  0.057335  3.629842  0.074
N  N81  1  0.33634621  0.70196463  0.56554135  1  -1.249556  0.086563  -0.351315  -0.219297  0.057337  3.629688  0.074
N  N82  1  0.83631948  0.79803538  0.06553804  1  -1.249704  0.086562  -0.351421  -0.21926  0.057336  3.62982  0.074
N  N83  1  0.66367745  0.29804036  0.43445883  1  -1.249787  0.086563  -0.351411  -0.219284  0.057337  3.629875  0.074
N  N84  1  0.81255204  0.45727273  0.88474047  1  -1.207403  0.081382  -0.347254  -0.233247  0.053562  3.647188  0.069
N  N85  1  0.68745990  0.95727052  0.61526116  1  -1.207474  0.081373  -0.3473  -0.233229  0.053556  3.647401  0.069
N  N86  1  0.18744563  0.54274778  0.11526562  1  -1.207038  0.08137  -0.34727  -0.233426  0.053556  3.647413  0.069
N  N87  1  0.31255926  0.04274126  0.38473325  1  -1.207209  0.081378  -0.347252  -0.23332  0.053559  3.646976  0.069
O  O88  1  0.52928000  0.77171861  0.71190439  1  -1.105302  0.116555  -0.321611  -0.53037  0.074062  2.264877  0.105
O  O89  1  0.97073533  0.27172911  0.78810031  1  -1.105644  0.116575  -0.321632  -0.530442  0.074078  2.264619  0.105
O  O90  1  0.47072942  0.22829414  0.28808989  1  -1.10523  0.116554  -0.321648  -0.530326  0.074064  2.265025  0.105
O  O91  1  0.02925968  0.72828558  0.21190920  1  -1.105478  0.116571  -0.321667  -0.53035  0.074076  2.264657  0.105
O  O92  1  0.72493013  0.65043509  0.66494175  1  -1.181723  0.002022  -0.323429  -0.576546  0.000174  2.204183  0.003
O  O93  1  0.77508715  0.15044716  0.83505733  1  -1.181656  0.002016  -0.323319  -0.576492  0.00017  2.204518  0.003
O  O94  1  0.27507905  0.34956117  0.33505614  1  -1.181621  0.002021  -0.323456  -0.576522  0.000173  2.204233  0.003
O  O95  1  0.22491670  0.84955395  0.16494741  1  -1.181536  0.002019  -0.323334  -0.576352  0.000172  2.204458  0.003
O  O96  1  0.81873818  0.50983694  0.10440034  1  -1.248661  0.018485  -0.360446  -0.566944  0.011102  2.289857  0.017
O  O97  1  0.68125800  0.00984131  0.39559591  1  -1.248699  0.018494  -0.36046  -0.566974  0.011108  2.289875  0.017
O  O98  1  0.18123295  0.49017290  0.89560136  1  -1.24851  0.018485  -0.36039  -0.566823  0.011102  2.290002  0.017
O  O99  1  0.31877080  0.99017047  0.60440042  1  -1.248365  0.018498  -0.360434  -0.566878  0.011109  2.289923  0.017
O  O100  1  0.94184448  0.33698339  0.02230594  1  -1.215659  0.065231  -0.372432  -0.582336  0.040478  2.411024  0.056
O  O101  1  0.55816968  0.83697989  0.47769273  1  -1.215542  0.065225  -0.372422  -0.582284  0.040474  2.410989  0.056
O  O102  1  0.05813389  0.66303227  0.97769690  1  -1.214513  0.065237  -0.372354  -0.582306  0.040479  2.411593  0.056
O  O103  1  0.44188354  0.16302121  0.52230300  1  -1.214355  0.065231  -0.372438  -0.582489  0.040477  2.411656  0.056
