# generated using pymatgen
data_Zn4H39C45N9O13
_symmetry_space_group_name_H-M   'P 1'
_cell_length_a   15.00978747
_cell_length_b   15.15044789
_cell_length_c   15.50051209
_cell_angle_alpha   97.00533222
_cell_angle_beta   97.56001815
_cell_angle_gamma   90.99672204
_symmetry_Int_Tables_number   1
_chemical_formula_structural   Zn4H39C45N9O13
_chemical_formula_sum   'Zn4 H39 C45 N9 O13'
_cell_volume   3466.16511547
_cell_formula_units_Z   1
loop_
 _symmetry_equiv_pos_site_id
 _symmetry_equiv_pos_as_xyz
  1  'x, y, z'
loop_
 _atom_site_type_symbol
 _atom_site_label
 _atom_site_symmetry_multiplicity
 _atom_site_fract_x
 _atom_site_fract_y
 _atom_site_fract_z
 _atom_site_occupancy
 _atom_site_pbe_bader_charge
 _atom_site_pbe_bader_spin_density
 _atom_site_pbe_cm5_charge
 _atom_site_pbe_ddec_charge
 _atom_site_pbe_ddec_spin_density
 _atom_site_pbe_ddec_sum_bond_order
 _atom_site_pbe_magmom
Zn  Zn0  1  0.44841616  0.44251023  0.58993687  1  1.323279  0  0.675589  0.95895  0  2.39078  0
Zn  Zn1  1  0.40085359  0.56242248  0.43198263  1  1.322706  0  0.676632  0.969025  0  2.3763  0
Zn  Zn2  1  0.55630864  0.41892338  0.42204914  1  1.316879  0  0.672389  0.966685  0  2.320908  0
Zn  Zn3  1  0.57862166  0.59382226  0.56455850  1  1.306745  0  0.662708  0.941787  0  2.444809  0
H  H4  1  0.42153770  0.81657764  0.34063306  1  0.088  0  0.101723  0.111229  0  1.001662  0
H  H5  1  0.25740423  0.41500932  0.00357084  1  0.052958  0  0.093277  0.104877  0  1.016834  0
H  H6  1  0.65356230  0.53952554  0.07580626  1  0.110983  0  0.101972  0.108762  0  1.05814  0
H  H7  1  0.25486457  0.33028521  0.12297158  1  0.384386  0  0.2888  0.230205  0  0.959383  0
H  H8  1  0.16578950  0.46134006  0.15444359  1  -0.008125  0  0.075191  0.06503  0  1.017114  0
H  H9  1  0.23790645  0.48193797  0.25662352  1  0.091628  0  0.097019  0.119902  0  1.017445  0
H  H10  1  0.16796782  0.38377286  0.23315459  1  0.03303  0  0.092183  0.097013  0  0.992451  0
H  H11  1  0.57336824  0.18203878  0.73994485  1  0.410538  0  0.308083  0.300214  0  0.940305  0
H  H12  1  0.54849641  0.26814726  0.67916689  1  0.484966  0  0.299692  0.312912  0  0.979348  0
H  H13  1  0.13987766  0.23593535  0.50602967  1  0.413121  0  0.311734  0.249251  0  0.942696  0
H  H14  1  0.31759742  0.27697946  0.49822176  1  0.040086  0  0.092598  0.103503  0  1.019116  0
H  H15  1  0.56075971  0.03465454  0.67902741  1  0.035771  0  0.098779  0.098619  0  1.030757  0
H  H16  1  0.25850568  0.32715039  0.41051765  1  0.065057  0  0.10503  0.115569  0  0.989059  0
H  H17  1  0.24361817  0.21132351  0.41416376  1  0.071552  0  0.10281  0.104222  0  0.98254  0
H  H18  1  0.90313692  0.30737527  0.56230776  1  0.430604  0  0.305217  0.240455  0  0.979043  0
H  H19  1  0.78528299  0.28526251  0.63048160  1  0.034333  0  0.102509  0.106491  0  0.984937  0
H  H20  1  0.71433552  0.31744689  0.53871265  1  0.088746  0  0.096528  0.112831  0  1.013355  0
H  H21  1  0.75842494  0.39904847  0.62716357  1  0.012507  0  0.099798  0.104618  0  0.990567  0
H  H22  1  0.58549445  0.60931022  0.16009922  1  0.431116  0  0.302165  0.291632  0  0.952334  0
H  H23  1  0.57467078  0.54584307  0.24236685  1  0.462702  0  0.295733  0.297033  0  0.981372  0
H  H24  1  0.77924478  0.65420074  0.85956345  1  0.453938  0  0.305608  0.2985  0  0.961619  0
H  H25  1  0.69949126  0.64750920  0.76590433  1  0.504265  0  0.300081  0.309777  0  0.973453  0
H  H26  1  0.43251996  0.97711653  0.32117899  1  0.060579  0  0.097359  0.104083  0  1.005306  0
H  H27  1  0.78865210  0.61158960  0.05992648  1  0.400286  0  0.299972  0.243918  0  0.944092  0
H  H28  1  0.82300222  0.46498353  0.98518095  1  0.016397  0  0.087565  0.086274  0  0.995792  0
H  H29  1  0.90993716  0.54909964  0.99123653  1  0.056431  0  0.099694  0.10667  0  0.985382  0
H  H30  1  0.83474881  0.52088220  0.89247787  1  0.030265  0  0.098591  0.106836  0  1.008596  0
H  H31  1  0.41538942  0.63076798  0.76691773  1  0.439936  0  0.311459  0.249053  0  0.963412  0
H  H32  1  0.27113102  0.62383049  0.69928284  1  0.041993  0  0.107047  0.115521  0  0.978568  0
H  H33  1  0.23880563  0.61312612  0.80452204  1  0.02101  0  0.093675  0.091574  0  0.992845  0
H  H34  1  0.25517867  0.51639695  0.73057408  1  0.036188  0  0.09911  0.108077  0  0.986958  0
H  H35  1  0.55844854  0.80422481  0.62879374  1  0.518738  0  0.297669  0.313309  0  0.994085  0
H  H36  1  0.58897481  0.91373431  0.67244410  1  0.434043  0  0.302813  0.293197  0  0.967786  0
H  H37  1  0.47454677  0.13388304  0.38720458  1  0.120356  0  0.108758  0.115962  0  0.990194  0
H  H38  1  0.14192307  0.59152517  0.49820018  1  0.093727  0  0.107081  0.114562  0  0.996645  0
H  H39  1  0.99471433  0.65883138  0.49242557  1  0.04659  0  0.096642  0.102055  0  1.007318  0
H  H40  1  0.00843358  0.29420285  0.51340559  1  0.020524  0  0.097357  0.093396  0  1.039126  0
H  H41  1  0.82977008  0.64170053  0.49554224  1  0.072921  0  0.099335  0.108715  0  1.005069  0
H  H42  1  0.28187834  0.49217017  0.88236085  1  0.014527  0  0.09525  0.106738  0  1.030437  0
C  C43  1  0.47828283  0.73860790  0.48106034  1  1.486692  0  0.217054  0.611274  0  4.144397  0
C  C44  1  0.48779720  0.51069105  0.12960369  1  0.416379  0  0.103459  0.263577  0  4.021507  0
C  C45  1  0.34234231  0.43131171  0.12701955  1  0.377938  0  0.078921  0.226574  0  4.068333  0
C  C46  1  0.51502409  0.26948153  0.51159662  1  1.517352  0  0.224374  0.607935  0  4.168369  0
C  C47  1  0.56844559  0.57605549  0.83741083  1  0.072332  0  -0.044518  -0.221508  0  3.955268  0
C  C48  1  0.48113883  0.83502540  0.47627578  1  -0.007213  0  -0.044549  -0.184561  0  3.97191  0
C  C49  1  0.51909571  0.17361081  0.52297884  1  -0.022954  0  -0.027557  -0.149739  0  3.955367  0
C  C50  1  0.54289018  0.05457955  0.61380862  1  -0.061304  0  -0.117761  -0.270813  0  3.993101  0
C  C51  1  0.54351116  0.14567127  0.60805336  1  0.429486  0  0.099548  0.292729  0  4.095962  0
C  C52  1  0.49332363  0.11050688  0.45075387  1  -0.036665  0  -0.076144  -0.118826  0  3.949889  0
C  C53  1  0.48819390  0.01853127  0.45726048  1  0.003769  0  -0.018606  0.073197  0  4.05546  0
C  C54  1  0.68782107  0.58535950  0.96071004  1  0.414456  0  0.066035  0.106566  0  4.075034  0
C  C55  1  0.51640853  0.99031075  0.54101295  1  -0.00078  0  -0.011895  0.000118  0  3.984588  0
C  C56  1  0.51700127  0.89629498  0.54936785  1  0.460506  0  0.115063  0.263807  0  4.017499  0
C  C57  1  0.44885636  0.86619209  0.39497767  1  -0.01095  0  -0.103474  -0.101706  0  4.07522  0
C  C58  1  0.26584511  0.47749761  0.52012602  1  1.507813  0  0.223878  0.608035  0  4.174405  0
C  C59  1  0.45446608  0.95451209  0.38449914  1  -0.049415  0  -0.115889  -0.182333  0  4.072737  0
C  C60  1  0.16784176  0.45514403  0.50813411  1  0.003742  0  -0.028868  -0.142819  0  3.965921  0
C  C61  1  0.83197278  0.50220470  0.51045274  1  0.018032  0  -0.041709  -0.163626  0  3.969004  0
C  C62  1  0.96382667  0.59497584  0.49972647  1  -0.045136  0  -0.117825  -0.179994  0  4.091789  0
C  C63  1  0.87353935  0.58563994  0.50183144  1  -0.013283  0  -0.105955  -0.106311  0  4.085868  0
C  C64  1  0.88480045  0.42764378  0.52296718  1  0.400984  0  0.112083  0.177349  0  3.995068  0
C  C65  1  0.62689423  0.55682279  0.01152863  1  -0.078021  0  -0.104925  -0.230583  0  4.003506  0
C  C66  1  0.98022147  0.43488968  0.51506910  1  0.009503  0  -0.010451  0.012341  0  3.980345  0
C  C67  1  0.01850080  0.51961681  0.50504608  1  -0.026978  0  -0.021252  0.070893  0  4.067924  0
C  C68  1  0.11146471  0.52654702  0.50229415  1  -0.053788  0  -0.07847  -0.118185  0  3.9559  0
C  C69  1  0.12912143  0.36814629  0.50952329  1  0.477975  0  0.102024  0.224232  0  4.07908  0
C  C70  1  0.73246748  0.50210926  0.50081039  1  1.52058  0  0.217731  0.611338  0  4.165779  0
C  C71  1  0.03668981  0.36150644  0.51510719  1  -0.069086  0  -0.119209  -0.279977  0  4.010481  0
C  C72  1  0.44416948  0.46775315  0.26959376  1  1.510512  0  0.224062  0.631626  0  4.140245  0
C  C73  1  0.54885853  0.55621988  0.74068835  1  1.47266  0  0.214347  0.602665  0  4.189043  0
C  C74  1  0.32215405  0.44075994  0.03917663  1  -0.099098  0  -0.125897  -0.293666  0  4.029784  0
C  C75  1  0.42507519  0.46876542  0.17377287  1  0.030777  0  -0.046015  -0.26382  0  3.932662  0
C  C76  1  0.53291567  0.54534715  0.98289901  1  -0.02231  0  -0.016507  0.053398  0  3.990081  0
C  C77  1  0.65895319  0.59901486  0.87205641  1  0.401277  0  0.102659  0.223141  0  4.062776  0
C  C78  1  0.20948694  0.42997265  0.20455445  1  0.244654  0  -0.154892  -0.214187  0  3.996469  0
C  C79  1  0.25347195  0.27635095  0.45478059  1  0.272985  0  -0.137209  -0.207166  0  3.971226  0
C  C80  1  0.77354066  0.33722350  0.58719899  1  0.330955  0  -0.137441  -0.209668  0  3.972868  0
C  C81  1  0.84002954  0.52969941  0.96432674  1  0.257447  0  -0.14698  -0.219975  0  3.985826  0
C  C82  1  0.28032957  0.58489521  0.75475705  1  0.350781  0  -0.132725  -0.204681  0  3.998228  0
C  C83  1  0.50393815  0.55646713  0.89341093  1  -0.012363  0  -0.012516  -0.026547  0  3.955893  0
C  C84  1  0.46937498  0.51456102  0.03708515  1  -0.027355  0  -0.028585  -0.11056  0  3.927302  0
C  C85  1  0.38208708  0.48479492  0.99405831  1  0.039427  0  -0.015279  0.127897  0  4.114433  0
C  C86  1  0.35257500  0.50550601  0.90829686  1  -0.012873  0  -0.125632  -0.286992  0  3.9916  0
C  C87  1  0.40815927  0.54969019  0.86195806  1  0.411995  0  0.097471  0.201888  0  4.09406  0
N  N88  1  0.28284614  0.38064180  0.16877740  1  -1.076036  0  -0.481339  -0.362126  0  3.430486  0
N  N89  1  0.57157250  0.20561268  0.68135493  1  -1.221435  0  -0.601026  -0.624037  0  3.311077  0
N  N90  1  0.17732678  0.29154687  0.50336796  1  -1.164739  0  -0.443825  -0.285601  0  3.577599  0
N  N91  1  0.85383146  0.34949873  0.54645661  1  -1.190777  0  -0.437244  -0.263283  0  3.601649  0
N  N92  1  0.56663743  0.54981320  0.17691617  1  -1.235636  0  -0.602138  -0.611213  0  3.355822  0
N  N93  1  0.72241935  0.62542453  0.82369443  1  -1.29622  0  -0.595618  -0.606611  0  3.369184  0
N  N94  1  0.78060091  0.60056809  0.99316675  1  -1.111252  0  -0.473633  -0.346884  0  3.474304  0
N  N95  1  0.37467055  0.58719789  0.78886008  1  -1.220975  0  -0.446932  -0.278501  0  3.646718  0
N  N96  1  0.54883501  0.87059466  0.62874716  1  -1.286766  0  -0.595298  -0.606779  0  3.36145  0
O  O97  1  0.49526032  0.50230428  0.50036557  1  -1.236991  0  -0.579552  -1.029082  0  2.572993  0
O  O98  1  0.38224851  0.49017207  0.31644566  1  -1.182549  0  -0.31331  -0.549825  0  2.36771  0
O  O99  1  0.58294492  0.60928632  0.69359136  1  -1.181526  0  -0.322889  -0.562324  0  2.350807  0
O  O100  1  0.52377556  0.44684147  0.30168431  1  -1.172309  0  -0.320243  -0.55868  0  2.304127  0
O  O101  1  0.50327108  0.48490588  0.70954487  1  -1.174645  0  -0.317749  -0.546109  0  2.377258  0
O  O102  1  0.31728197  0.43209374  0.56941472  1  -1.165397  0  -0.309361  -0.536931  0  2.354381  0
O  O103  1  0.69807018  0.57413612  0.53303528  1  -1.186426  0  -0.336262  -0.576276  0  2.355758  0
O  O104  1  0.42849871  0.68737396  0.42082484  1  -1.172786  0  -0.320855  -0.548117  0  2.296269  0
O  O105  1  0.52734027  0.29358187  0.43784338  1  -1.159978  0  -0.311935  -0.539602  0  2.28737  0
O  O106  1  0.52636616  0.70950974  0.54648135  1  -1.195998  0  -0.325906  -0.571572  0  2.398076  0
O  O107  1  0.49805320  0.32221437  0.57840549  1  -1.188486  0  -0.315723  -0.560626  0  2.377736  0
O  O108  1  0.29105071  0.54432518  0.48511510  1  -1.187978  0  -0.3283  -0.571941  0  2.348009  0
O  O109  1  0.68780902  0.43469479  0.45716054  1  -1.168814  0  -0.31406  -0.54525  0  2.336001  0
