# generated using pymatgen
data_AgH9C6SN2O3
_symmetry_space_group_name_H-M   'P 1'
_cell_length_a   9.33892819
_cell_length_b   10.93597598
_cell_length_c   11.23505598
_cell_angle_alpha   61.76236690
_cell_angle_beta   67.96080933
_cell_angle_gamma   66.56193458
_symmetry_Int_Tables_number   1
_chemical_formula_structural   AgH9C6SN2O3
_chemical_formula_sum   'Ag4 H36 C24 S4 N8 O12'
_cell_volume   902.30312625
_cell_formula_units_Z   4
loop_
 _symmetry_equiv_pos_site_id
 _symmetry_equiv_pos_as_xyz
  1  'x, y, z'
loop_
 _atom_site_type_symbol
 _atom_site_label
 _atom_site_symmetry_multiplicity
 _atom_site_fract_x
 _atom_site_fract_y
 _atom_site_fract_z
 _atom_site_occupancy
 _atom_site_pbe_bader_spin_density
 _atom_site_pbe_cm5_charge
 _atom_site_pbe_ddec_charge
 _atom_site_pbe_ddec_spin_density
 _atom_site_pbe_ddec_sum_bond_order
 _atom_site_pbe_magmom
Ag  Ag0  1  0.53348722  0.22857576  0.26206554  1  0  0.494638  0.380518  0  1.903653  0
Ag  Ag1  1  0.46651277  0.77142399  0.73793441  1  0  0.494634  0.380506  0  1.903637  0
Ag  Ag2  1  0.77805136  0.95725272  0.01270002  1  0  0.455161  0.594274  0  1.531958  0
Ag  Ag3  1  0.22194895  0.04274596  0.98730032  1  0  0.45516  0.594284  0  1.531954  0
H  H4  1  0.74495413  0.93450854  0.70711010  1  0  0.314747  0.309496  0  0.963417  0
H  H5  1  0.25504585  0.06549121  0.29288985  1  0  0.314745  0.309496  0  0.963399  0
H  H6  1  0.16380137  0.71156463  0.00383036  1  0  0.32543  0.323756  0  0.940542  0
H  H7  1  0.83619829  0.28843620  0.99616919  1  0  0.325429  0.323748  0  0.940577  0
H  H8  1  0.05963442  0.81388130  0.61548778  1  0  0.096631  0.142567  0  1.011539  0
H  H9  1  0.94036673  0.18611845  0.38451269  1  0  0.096637  0.142578  0  1.011534  0
H  H10  1  0.10156182  0.77317771  0.46752847  1  0  0.099839  0.150633  0  1.031806  0
H  H11  1  0.89843932  0.22682204  0.53247111  1  0  0.099842  0.150634  0  1.03181  0
H  H12  1  0.97689902  0.68638158  0.62776486  1  0  0.098836  0.145959  0  0.983834  0
H  H13  1  0.02310065  0.31361925  0.37223558  1  0  0.098834  0.145963  0  0.983848  0
H  H14  1  0.46440713  0.11220868  0.71043178  1  0  0.10229  0.122244  0  0.9958  0
H  H15  1  0.53559401  0.88779107  0.28956869  1  0  0.102298  0.122266  0  0.995765  0
H  H16  1  0.38902239  0.18465084  0.56186779  1  0  0.092666  0.096365  0  1.024057  0
H  H17  1  0.61097760  0.81534891  0.43813304  1  0  0.09267  0.096361  0  1.024032  0
H  H18  1  0.40761149  0.38245498  0.59896230  1  0  0.09379  0.135  0  0.989015  0
H  H19  1  0.59238850  0.61754478  0.40103853  1  0  0.093792  0.13499  0  0.989027  0
H  H20  1  0.55318867  0.36864881  0.44522637  1  0  0.078062  0.093642  0  1.052916  0
H  H21  1  0.44681132  0.63135095  0.55477357  1  0  0.078063  0.093635  0  1.052919  0
H  H22  1  0.61189404  0.29895908  0.60432165  1  0  0.090723  0.129412  0  1.000456  0
H  H23  1  0.38810627  0.70103960  0.39567958  1  0  0.09071  0.129397  0  1.000497  0
H  H24  1  0.17693915  0.47915323  0.82840290  1  0  0.101593  0.156771  0  0.991074  0
H  H25  1  0.82305936  0.52084761  0.17159701  1  0  0.1016  0.156795  0  0.991093  0
H  H26  1  0.22203436  0.64682750  0.75941930  1  0  0.089214  0.121558  0  1.048627  0
H  H27  1  0.77796531  0.35317333  0.24058024  1  0  0.089209  0.121571  0  1.048654  0
H  H28  1  0.03526990  0.62629771  0.87635514  1  0  0.097304  0.149586  0  0.998464  0
H  H29  1  0.96472976  0.37370312  0.12364441  1  0  0.097324  0.149617  0  0.99845  0
H  H30  1  0.27180143  0.69588741  0.19547975  1  0  0.103579  0.128638  0  1.000441  0
H  H31  1  0.72819855  0.30411235  0.80452019  1  0  0.103586  0.128639  0  1.000422  0
H  H32  1  0.42506032  0.53853351  0.25378208  1  0  0.095715  0.09782  0  1.0176  0
H  H33  1  0.57493967  0.46146624  0.74621786  1  0  0.095716  0.097818  0  1.0176  0
H  H34  1  0.19554911  0.55409315  0.45460756  1  0  0.089135  0.117204  0  1.024226  0
H  H35  1  0.80445087  0.44590661  0.54539149  1  0  0.089126  0.117185  0  1.024226  0
H  H36  1  0.20895835  0.40676500  0.42072394  1  0  0.081874  0.104234  0  1.036747  0
H  H37  1  0.79104163  0.59323476  0.57927511  1  0  0.08187  0.10422  0  1.036741  0
H  H38  1  0.06056962  0.57348694  0.36606893  1  0  0.088941  0.127569  0  1.004359  0
H  H39  1  0.93943036  0.42651282  0.63393013  1  0  0.08894  0.127561  0  1.004363  0
C  C40  1  0.63482031  0.07343820  0.53561427  1  0  0.220197  0.334464  0  3.972029  0
C  C41  1  0.36517999  0.92656048  0.46438607  1  0  0.220186  0.334463  0  3.97193  0
C  C42  1  0.86870156  0.90689537  0.51348355  1  0  0.094129  0.220293  0  3.97874  0
C  C43  1  0.13129959  0.09310439  0.48651603  1  0  0.09413  0.220284  0  3.978742  0
C  C44  1  0.82254467  0.98129971  0.38847525  1  0  0.056073  -0.123061  0  3.978768  0
C  C45  1  0.17745500  0.01870112  0.61152519  1  0  0.056075  -0.123076  0  3.978766  0
C  C46  1  0.00979959  0.78811478  0.55846938  1  0  -0.235059  -0.43184  0  3.940949  0
C  C47  1  0.99020008  0.21188605  0.44153017  1  0  -0.235081  -0.431863  0  3.940939  0
C  C48  1  0.49270895  0.16791371  0.59714823  1  0  -0.16048  -0.209431  0  3.975172  0
C  C49  1  0.50729136  0.83208497  0.40285210  1  0  -0.160487  -0.209445  0  3.97511  0
C  C50  1  0.51850209  0.31335308  0.55845225  1  0  -0.242485  -0.331754  0  3.912529  0
C  C51  1  0.48149790  0.68664668  0.44154769  1  0  -0.242472  -0.331714  0  3.912576  0
C  C52  1  0.30127884  0.52600902  0.13887827  1  0  0.227458  0.359423  0  3.93328  0
C  C53  1  0.69872230  0.47399074  0.86112042  1  0  0.227437  0.359462  0  3.933209  0
C  C54  1  0.23664646  0.51691236  0.97049501  1  0  0.09277  0.218234  0  3.986158  0
C  C55  1  0.76335468  0.48308739  0.02950458  1  0  0.092772  0.218301  0  3.986123  0
C  C56  1  0.33262966  0.38498312  0.03789695  1  0  0.053118  -0.127898  0  4.004687  0
C  C57  1  0.66737148  0.61501663  0.96210263  1  0  0.053164  -0.127903  0  4.004684  0
C  C58  1  0.16307465  0.56976166  0.85269313  1  0  -0.236573  -0.437726  0  3.964261  0
C  C59  1  0.83692534  0.43023809  0.14730771  1  0  -0.236602  -0.437815  0  3.964329  0
C  C60  1  0.30241398  0.57783285  0.23897472  1  0  -0.161237  -0.220034  0  3.981687  0
C  C61  1  0.69758601  0.42216691  0.76102522  1  0  -0.16123  -0.220039  0  3.981674  0
C  C62  1  0.18461322  0.52464682  0.37832676  1  0  -0.243028  -0.343502  0  3.932634  0
C  C63  1  0.81538676  0.47535294  0.62167229  1  0  -0.24302  -0.343462  0  3.932613  0
S  S64  1  0.92398925  0.95919560  0.22926656  1  0  0.496802  1.162925  0  6.238116  0
S  S65  1  0.07601041  0.04080524  0.77073299  1  0  0.49679  1.162906  0  6.238114  0
S  S66  1  0.39077732  0.22071763  0.01809059  1  0  0.502539  1.158941  0  6.238706  0
S  S67  1  0.60922183  0.77928105  0.98191011  1  0  0.502527  1.158929  0  6.238773  0
N  N68  1  0.67661585  0.08364006  0.40403918  1  0  -0.385878  -0.330363  0  3.653597  0
N  N69  1  0.32338414  0.91635969  0.59596165  1  0  -0.385847  -0.330324  0  3.653434  0
N  N70  1  0.74872251  0.96771863  0.60284051  1  0  -0.370065  -0.300972  0  3.574698  0
N  N71  1  0.25127864  0.03228112  0.39715996  1  0  -0.370076  -0.300975  0  3.574686  0
N  N72  1  0.37153189  0.39192485  0.14171576  1  0  -0.385795  -0.329906  0  3.639429  0
N  N73  1  0.62846958  0.60807383  0.85828422  1  0  -0.385804  -0.329921  0  3.639409  0
N  N74  1  0.21914661  0.60281491  0.03677545  1  0  -0.370069  -0.302507  0  3.543926  0
N  N75  1  0.78085453  0.39718484  0.96322413  1  0  -0.370082  -0.302568  0  3.543924  0
O  O76  1  0.86155515  0.85762731  0.22393765  1  0  -0.346164  -0.58738  0  2.270406  0
O  O77  1  0.13844484  0.14237245  0.77606229  1  0  -0.346156  -0.587373  0  2.270443  0
O  O78  1  0.88530620  0.10406813  0.12074797  1  0  -0.345971  -0.643195  0  2.325274  0
O  O79  1  0.11469379  0.89593163  0.87925197  1  0  -0.345978  -0.643198  0  2.325213  0
O  O80  1  0.09465131  0.90295253  0.23208395  1  0  -0.333514  -0.571914  0  2.260606  0
O  O81  1  0.90534836  0.09704830  0.76791738  1  0  -0.333506  -0.571895  0  2.260603  0
O  O82  1  0.54316917  0.14269283  0.06284615  1  0  -0.34831  -0.611701  0  2.413325  0
O  O83  1  0.45683114  0.85730585  0.93715418  1  0  -0.348306  -0.611691  0  2.413347  0
O  O84  1  0.26101265  0.14904432  0.11596230  1  0  -0.345334  -0.608312  0  2.310167  0
O  O85  1  0.73898618  0.85095544  0.88403889  1  0  -0.345336  -0.608292  0  2.31017  0
O  O86  1  0.39934035  0.25357517  0.87442364  1  0  -0.323293  -0.570043  0  2.219794  0
O  O87  1  0.60065764  0.74642351  0.12557741  1  0  -0.323287  -0.570042  0  2.219807  0
