# generated using pymatgen
data_CuH24C20S2IO3
_symmetry_space_group_name_H-M   'P 1'
_cell_length_a   9.56988149
_cell_length_b   10.17222513
_cell_length_c   12.82270166
_cell_angle_alpha   103.76079059
_cell_angle_beta   103.09450050
_cell_angle_gamma   94.00391051
_symmetry_Int_Tables_number   1
_chemical_formula_structural   CuH24C20S2IO3
_chemical_formula_sum   'Cu2 H48 C40 S4 I2 O6'
_cell_volume   1170.75645502
_cell_formula_units_Z   2
loop_
 _symmetry_equiv_pos_site_id
 _symmetry_equiv_pos_as_xyz
  1  'x, y, z'
loop_
 _atom_site_type_symbol
 _atom_site_label
 _atom_site_symmetry_multiplicity
 _atom_site_fract_x
 _atom_site_fract_y
 _atom_site_fract_z
 _atom_site_occupancy
 _atom_site_hle17_bader_spin_density
 _atom_site_hle17_ddec_charge
 _atom_site_hle17_ddec_spin_density
 _atom_site_hle17_ddec_sum_bond_order
 _atom_site_hle17_magmom
 _atom_site_hse06_10hf_bader_spin_density
 _atom_site_hse06_10hf_ddec_charge
 _atom_site_hse06_10hf_ddec_spin_density
 _atom_site_hse06_10hf_ddec_sum_bond_order
 _atom_site_hse06_10hf_magmom
 _atom_site_hse06_bader_spin_density
 _atom_site_hse06_ddec_charge
 _atom_site_hse06_ddec_spin_density
 _atom_site_hse06_ddec_sum_bond_order
 _atom_site_hse06_magmom
 _atom_site_pbe_bader_spin_density
 _atom_site_pbe_cm5_charge
 _atom_site_pbe_ddec_charge
 _atom_site_pbe_ddec_spin_density
 _atom_site_pbe_ddec_sum_bond_order
 _atom_site_pbe_magmom
Cu  Cu0  1  0.57578383  0.55514595  0.61695038  1  0  0.1535  0  2.307625  0  0  0.081446  0  2.797807  0  0  0.088774  0  2.752008  0  0  0.234042  0.077964  0  2.828431  0
Cu  Cu1  1  0.42420818  0.44484850  0.38304355  1  0  0.15354  0  2.307538  0  0  0.081506  0  2.797689  0  0  0.088791  0  2.751891  0  0  0.234057  0.078042  0  2.828312  0
H  H2  1  0.05978884  0.23429943  0.00742397  1  0  0.055745  0  0.951117  0  0  0.068726  0  1.021096  0  0  0.067935  0  1.022386  0  0  0.101741  0.06921  0  1.020456  0
H  H3  1  0.94020862  0.76570319  0.99257392  1  0  0.05573  0  0.951055  0  0  0.068706  0  1.021101  0  0  0.067914  0  1.022392  0  0  0.10173  0.069192  0  1.020461  0
H  H4  1  0.96646825  0.12339319  0.87539801  1  0  0.056138  0  0.919472  0  0  0.067524  0  0.989385  0  0  0.068729  0  0.986802  0  0  0.102436  0.066774  0  0.991064  0
H  H5  1  0.03352709  0.87660951  0.12460500  1  0  0.056133  0  0.919363  0  0  0.06756  0  0.989256  0  0  0.068766  0  0.986672  0  0  0.102453  0.066812  0  0.990934  0
H  H6  1  0.92728136  0.06456694  0.05294254  1  0  0.051653  0  0.93987  0  0  0.067177  0  1.004491  0  0  0.066834  0  1.00413  0  0  0.103196  0.067693  0  1.004059  0
H  H7  1  0.07272176  0.93543777  0.94706058  1  0  0.05165  0  0.939947  0  0  0.067197  0  1.004538  0  0  0.066852  0  1.004181  0  0  0.103204  0.067714  0  1.004102  0
H  H8  1  0.81738551  0.20003017  0.06438116  1  0  0.07229  0  0.929797  0  0  0.084632  0  0.996133  0  0  0.084402  0  0.996841  0  0  0.107077  0.08495  0  0.995346  0
H  H9  1  0.18261425  0.79997352  0.93562122  1  0  0.072328  0  0.929753  0  0  0.084701  0  0.996043  0  0  0.084473  0  0.996746  0  0  0.107096  0.085021  0  0.995257  0
H  H10  1  0.76594065  0.99786512  0.12804748  1  0  0.100568  0  0.959436  0  0  0.115349  0  1.013435  0  0  0.118674  0  1.01186  0  0  0.102479  0.113187  0  1.01433  0
H  H11  1  0.23406032  0.00213956  0.87195293  1  0  0.100616  0  0.959474  0  0  0.115384  0  1.013479  0  0  0.118711  0  1.011902  0  0  0.102544  0.113223  0  1.014373  0
H  H12  1  0.62250120  0.81182122  0.16535991  1  0  0.084257  0  0.953843  0  0  0.099593  0  1.006808  0  0  0.101884  0  1.005723  0  0  0.100349  0.097755  0  1.00806  0
H  H13  1  0.37750035  0.18818756  0.83464212  1  0  0.084247  0  0.953827  0  0  0.099586  0  1.006796  0  0  0.10188  0  1.005706  0  0  0.100347  0.097748  0  1.008052  0
H  H14  1  0.43397232  0.65061642  0.01169124  1  0  0.090222  0  0.958867  0  0  0.101398  0  1.021427  0  0  0.10429  0  1.02024  0  0  0.097073  0.099897  0  1.021176  0
H  H15  1  0.56602201  0.34937915  0.98831186  1  0  0.090234  0  0.958989  0  0  0.101421  0  1.021512  0  0  0.104311  0  1.020325  0  0  0.097091  0.099922  0  1.02126  0
H  H16  1  0.39256992  0.68069637  0.82033645  1  0  0.090813  0  0.975449  0  0  0.097763  0  1.046822  0  0  0.100352  0  1.045613  0  0  0.093915  0.096598  0  1.046378  0
H  H17  1  0.60743082  0.31929907  0.17965834  1  0  0.09089  0  0.975403  0  0  0.097804  0  1.046812  0  0  0.100394  0  1.045601  0  0  0.093963  0.09664  0  1.046362  0
H  H18  1  0.55052335  0.97457076  0.74694107  1  0  0.117131  0  0.965649  0  0  0.124916  0  1.033131  0  0  0.127899  0  1.031018  0  0  0.102094  0.121902  0  1.036558  0
H  H19  1  0.44948033  0.02542265  0.25305542  1  0  0.117201  0  0.965691  0  0  0.124963  0  1.033135  0  0  0.127949  0  1.031017  0  0  0.10211  0.121948  0  1.036567  0
H  H20  1  0.42639677  0.81820865  0.69732950  1  0  0.093257  0  0.95609  0  0  0.106297  0  1.021646  0  0  0.108206  0  1.020284  0  0  0.085797  0.105337  0  1.021995  0
H  H21  1  0.57360414  0.18178791  0.30267255  1  0  0.09326  0  0.956176  0  0  0.106279  0  1.021692  0  0  0.108188  0  1.020336  0  0  0.085797  0.105315  0  1.022043  0
H  H22  1  0.70220702  0.76911674  0.50637636  1  0  0.099759  0  0.949763  0  0  0.115922  0  1.010739  0  0  0.117088  0  1.010336  0  0  0.093404  0.11631  0  1.009199  0
H  H23  1  0.29779044  0.23088587  0.49361997  1  0  0.09981  0  0.949715  0  0  0.115948  0  1.010701  0  0  0.117118  0  1.010293  0  0  0.09344  0.116326  0  1.00917  0
H  H24  1  0.53181088  0.82366948  0.51535062  1  0  0.106392  0  0.960331  0  0  0.120705  0  1.024299  0  0  0.121857  0  1.024454  0  0  0.10182  0.119737  0  1.024372  0
H  H25  1  0.46818171  0.17632906  0.48464415  1  0  0.106351  0  0.960504  0  0  0.120686  0  1.024429  0  0  0.121838  0  1.024586  0  0  0.101816  0.119721  0  1.024498  0
H  H26  1  0.82318101  0.00830500  0.62253952  1  0  0.038646  0  0.916435  0  0  0.051874  0  0.981387  0  0  0.053131  0  0.979697  0  0  0.091536  0.050911  0  0.982562  0
H  H27  1  0.17681159  0.99169355  0.37745682  1  0  0.038543  0  0.916387  0  0  0.051805  0  0.981343  0  0  0.05306  0  0.979655  0  0  0.091497  0.050844  0  0.982517  0
H  H28  1  0.70661719  0.00456311  0.49047914  1  0  0.047825  0  0.903948  0  0  0.063649  0  0.963987  0  0  0.064852  0  0.962386  0  0  0.095699  0.061693  0  0.96642  0
H  H29  1  0.29338213  0.99543745  0.50951713  1  0  0.047804  0  0.903897  0  0  0.063647  0  0.96394  0  0  0.064847  0  0.962339  0  0  0.095708  0.06169  0  0.966375  0
H  H30  1  0.66755001  0.25727848  0.58600544  1  0  0.037771  0  0.990948  0  0  0.047109  0  1.069047  0  0  0.048444  0  1.067492  0  0  0.076684  0.046458  0  1.069616  0
H  H31  1  0.33244947  0.74272316  0.41399573  1  0  0.037771  0  0.990934  0  0  0.047135  0  1.069002  0  0  0.048472  0  1.067447  0  0  0.076689  0.046481  0  1.069574  0
H  H32  1  0.79020928  0.23271044  0.70451542  1  0  0.047437  0  0.960463  0  0  0.06142  0  1.024363  0  0  0.061753  0  1.024989  0  0  0.093688  0.061288  0  1.023577  0
H  H33  1  0.20978598  0.76728407  0.29548452  1  0  0.047459  0  0.960398  0  0  0.061448  0  1.0243  0  0  0.061782  0  1.024926  0  0  0.093693  0.061317  0  1.023515  0
H  H34  1  0.60405303  0.25121035  0.81019160  1  0  0.104542  0  0.944452  0  0  0.117562  0  1.010911  0  0  0.119454  0  1.010145  0  0  0.102442  0.115203  0  1.013257  0
H  H35  1  0.39594722  0.74878925  0.18980934  1  0  0.104568  0  0.944472  0  0  0.117586  0  1.010933  0  0  0.119477  0  1.010171  0  0  0.102452  0.115228  0  1.013279  0
H  H36  1  0.46657631  0.23934089  0.68759409  1  0  0.09529  0  0.926769  0  0  0.114524  0  0.984286  0  0  0.115276  0  0.984121  0  0  0.102298  0.113681  0  0.98483  0
H  H37  1  0.53342338  0.76065461  0.31240523  1  0  0.095207  0  0.926898  0  0  0.114463  0  0.98439  0  0  0.115216  0  0.984228  0  0  0.102273  0.11362  0  0.984935  0
H  H38  1  0.74058908  0.63537244  0.89656532  1  0  0.096409  0  0.953841  0  0  0.112269  0  1.01834  0  0  0.112466  0  1.020096  0  0  0.096888  0.111922  0  1.017559  0
H  H39  1  0.25941008  0.36462706  0.10342761  1  0  0.096436  0  0.953778  0  0  0.112335  0  1.018229  0  0  0.11253  0  1.019999  0  0  0.096919  0.111981  0  1.017444  0
H  H40  1  0.73393130  0.48474832  0.94305675  1  0  0.104154  0  0.950653  0  0  0.115747  0  1.017241  0  0  0.117764  0  1.016326  0  0  0.099874  0.114124  0  1.018144  0
H  H41  1  0.26606738  0.51525533  0.05694231  1  0  0.104216  0  0.950558  0  0  0.115814  0  1.017165  0  0  0.117834  0  1.016251  0  0  0.099898  0.11419  0  1.018063  0
H  H42  1  0.89529090  0.66048337  0.76614491  1  0  0.077355  0  0.994185  0  0  0.083447  0  1.068251  0  0  0.086392  0  1.065966  0  0  0.084966  0.080903  0  1.070251  0
H  H43  1  0.10471864  0.33952127  0.23385460  1  0  0.077455  0  0.994241  0  0  0.08355  0  1.068288  0  0  0.086495  0  1.065997  0  0  0.08503  0.08101  0  1.070287  0
H  H44  1  0.12650076  0.61284489  0.71461765  1  0  0.088451  0  0.973959  0  0  0.099442  0  1.033725  0  0  0.102676  0  1.03218  0  0  0.084459  0.096134  0  1.037137  0
H  H45  1  0.87351480  0.38715672  0.28538621  1  0  0.088407  0  0.974025  0  0  0.099413  0  1.03377  0  0  0.102645  0  1.032227  0  0  0.084466  0.096101  0  1.037187  0
H  H46  1  0.24991424  0.42269182  0.76698556  1  0  0.077707  0  0.974071  0  0  0.08194  0  1.047235  0  0  0.08466  0  1.046043  0  0  0.087522  0.082141  0  1.043934  0
H  H47  1  0.75009235  0.57730688  0.23302719  1  0  0.077601  0  0.97423  0  0  0.081859  0  1.047377  0  0  0.08458  0  1.046185  0  0  0.087471  0.082057  0  1.044074  0
H  H48  1  0.14139284  0.27711752  0.86512533  1  0  0.089542  0  1.005294  0  0  0.098217  0  1.074305  0  0  0.10058  0  1.074307  0  0  0.092639  0.095947  0  1.075318  0
H  H49  1  0.85861088  0.72289135  0.13488488  1  0  0.089514  0  1.005277  0  0  0.098187  0  1.074291  0  0  0.10055  0  1.074293  0  0  0.092606  0.095916  0  1.075307  0
C  C50  1  0.95247016  0.19639316  0.95007001  1  0  0.072953  0  3.646849  0  0  0.004959  0  3.925673  0  0  0.013336  0  3.929443  0  0  -0.066754  -0.000561  0  3.922678  0
C  C51  1  0.04752810  0.80360747  0.04993155  1  0  0.073046  0  3.646705  0  0  0.004946  0  3.925633  0  0  0.013326  0  3.929401  0  0  -0.066768  -0.000562  0  3.922638  0
C  C52  1  0.85975115  0.12515904  0.00603924  1  0  0.062813  0  3.63579  0  0  -0.000855  0  3.907929  0  0  0.007456  0  3.911904  0  0  -0.066025  -0.006163  0  3.904106  0
C  C53  1  0.14024497  0.87484162  0.99396353  1  0  0.062707  0  3.635878  0  0  -0.00099  0  3.908075  0  0  0.007323  0  3.912047  0  0  -0.066101  -0.006312  0  3.904255  0
C  C54  1  0.66533612  0.94077452  0.95138027  1  0  0.225275  0  3.789095  0  0  0.210603  0  4.048773  0  0  0.221185  0  4.066984  0  0  0.081975  0.203601  0  4.036286  0
C  C55  1  0.33466336  0.05922714  0.04862247  1  0  0.225259  0  3.78905  0  0  0.210569  0  4.048758  0  0  0.22115  0  4.066968  0  0  0.081936  0.203558  0  4.036267  0
C  C56  1  0.68693093  0.92673691  0.05971298  1  0  -0.215684  0  3.80002  0  0  -0.23585  0  4.055212  0  0  -0.242267  0  4.076731  0  0  -0.115924  -0.231937  0  4.041143  0
C  C57  1  0.31306453  0.07326676  0.94028633  1  0  -0.215658  0  3.800156  0  0  -0.235801  0  4.055333  0  0  -0.242221  0  4.076851  0  0  -0.115917  -0.231892  0  4.041263  0
C  C58  1  0.60392997  0.82197970  0.08078251  1  0  -0.046736  0  3.79674  0  0  -0.06186  0  4.051655  0  0  -0.061008  0  4.07209  0  0  -0.096742  -0.062388  0  4.038511  0
C  C59  1  0.39606356  0.17801785  0.91921614  1  0  -0.046691  0  3.796678  0  0  -0.061822  0  4.051603  0  0  -0.060967  0  4.07203  0  0  -0.096735  -0.062349  0  4.038458  0
C  C60  1  0.49822629  0.73274120  0.99548881  1  0  -0.088854  0  3.782633  0  0  -0.109101  0  4.045288  0  0  -0.11205  0  4.065992  0  0  -0.106428  -0.107483  0  4.03094  0
C  C61  1  0.50177797  0.26725633  0.00451086  1  0  -0.089  0  3.782611  0  0  -0.109244  0  4.045233  0  0  -0.112203  0  4.065957  0  0  -0.106495  -0.107634  0  4.030891  0
C  C62  1  0.47510497  0.74941375  0.88805563  1  0  -0.107346  0  3.773459  0  0  -0.128683  0  4.026607  0  0  -0.129114  0  4.047633  0  0  -0.096258  -0.127908  0  4.011855  0
C  C63  1  0.52489778  0.25058073  0.11194401  1  0  -0.107334  0  3.773386  0  0  -0.128658  0  4.026538  0  0  -0.129087  0  4.047549  0  0  -0.096298  -0.127886  0  4.011777  0
C  C64  1  0.55753648  0.85191540  0.86399194  1  0  -0.00856  0  3.758792  0  0  0.011661  0  3.994274  0  0  0.007453  0  4.018994  0  0  -0.028769  0.01424  0  3.977705  0
C  C65  1  0.44246550  0.14808113  0.13600872  1  0  -0.008591  0  3.758973  0  0  0.011638  0  3.994362  0  0  0.007436  0  4.019076  0  0  -0.028772  0.014221  0  3.977787  0
C  C66  1  0.53394719  0.86762482  0.74848740  1  0  -0.175199  0  3.645766  0  0  -0.216955  0  3.894646  0  0  -0.216236  0  3.903881  0  0  -0.153874  -0.217134  0  3.888357  0
C  C67  1  0.46605800  0.13237169  0.25151302  1  0  -0.175303  0  3.646025  0  0  -0.216931  0  3.894711  0  0  -0.216219  0  3.903951  0  0  -0.153873  -0.21711  0  3.888423  0
C  C68  1  0.64729023  0.84034752  0.55730413  1  0  -0.183779  0  3.648926  0  0  -0.221719  0  3.909911  0  0  -0.222617  0  3.921163  0  0  -0.155386  -0.221097  0  3.900957  0
C  C69  1  0.35270437  0.15964999  0.44269079  1  0  -0.183764  0  3.649003  0  0  -0.221697  0  3.91004  0  0  -0.222597  0  3.921287  0  0  -0.155382  -0.221074  0  3.901091  0
C  C70  1  0.70939557  0.98678805  0.57292180  1  0  0.113995  0  3.679376  0  0  0.053678  0  3.951176  0  0  0.06086  0  3.958085  0  0  -0.069924  0.04911  0  3.946765  0
C  C71  1  0.29060009  0.01320944  0.42707174  1  0  0.11416  0  3.679204  0  0  0.053764  0  3.951075  0  0  0.060945  0  3.957987  0  0  -0.069845  0.049208  0  3.946662  0
C  C72  1  0.67551559  0.21526130  0.65882123  1  0  0.08654  0  3.659609  0  0  0.025627  0  3.929015  0  0  0.032605  0  3.93482  0  0  -0.083213  0.021066  0  3.924376  0
C  C73  1  0.32448209  0.78473522  0.34117714  1  0  0.086507  0  3.659554  0  0  0.02557  0  3.928973  0  0  0.032542  0  3.934782  0  0  -0.083196  0.021016  0  3.924332  0
C  C74  1  0.57991950  0.27957463  0.73121121  1  0  -0.171466  0  3.652967  0  0  -0.212883  0  3.924728  0  0  -0.213191  0  3.934451  0  0  -0.15447  -0.212524  0  3.918955  0
C  C75  1  0.42008047  0.72042293  0.26878930  1  0  -0.171478  0  3.653012  0  0  -0.212901  0  3.924759  0  0  -0.213211  0  3.934488  0  0  -0.154499  -0.212544  0  3.918984  0
C  C76  1  0.74686540  0.52519120  0.87334937  1  0  -0.171489  0  3.665871  0  0  -0.214287  0  3.918871  0  0  -0.213427  0  3.929443  0  0  -0.148528  -0.214793  0  3.912076  0
C  C77  1  0.25313378  0.47480837  0.12664903  1  0  -0.171567  0  3.665625  0  0  -0.214431  0  3.918772  0  0  -0.213589  0  3.929359  0  0  -0.148579  -0.214927  0  3.911961  0
C  C78  1  0.88591213  0.49626946  0.84349542  1  0  -0.007829  0  3.750964  0  0  0.011814  0  3.986859  0  0  0.008192  0  4.010462  0  0  -0.030341  0.013791  0  3.971166  0
C  C79  1  0.11409172  0.50374038  0.15651110  1  0  -0.007761  0  3.751069  0  0  0.011861  0  3.987049  0  0  0.008244  0  4.010652  0  0  -0.030269  0.013833  0  3.971345  0
C  C80  1  0.95012481  0.57680826  0.78831593  1  0  -0.096859  0  3.766702  0  0  -0.117926  0  4.01746  0  0  -0.117405  0  4.036839  0  0  -0.097329  -0.117939  0  4.004375  0
C  C81  1  0.04988726  0.42319136  0.21169011  1  0  -0.096978  0  3.766536  0  0  -0.118036  0  4.017336  0  0  -0.117511  0  4.036703  0  0  -0.097416  -0.118048  0  4.004247  0
C  C82  1  0.07989884  0.55108074  0.76011882  1  0  -0.091222  0  3.798324  0  0  -0.106636  0  4.047597  0  0  -0.110146  0  4.068829  0  0  -0.111154  -0.10531  0  4.035547  0
C  C83  1  0.92010251  0.44891893  0.23988777  1  0  -0.091219  0  3.797932  0  0  -0.106649  0  4.047221  0  0  -0.11016  0  4.068454  0  0  -0.111124  -0.10532  0  4.035151  0
C  C84  1  0.14806750  0.44322002  0.78834125  1  0  -0.041829  0  3.795866  0  0  -0.055023  0  4.047217  0  0  -0.054297  0  4.067364  0  0  -0.097724  -0.055058  0  4.03048  0
C  C85  1  0.85194199  0.55679182  0.21166345  1  0  -0.041677  0  3.795966  0  0  -0.054882  0  4.047307  0  0  -0.054157  0  4.067457  0  0  -0.097695  -0.05492  0  4.030573  0
C  C86  1  0.08642536  0.36055283  0.84338119  1  0  -0.216291  0  3.796636  0  0  -0.235401  0  4.04967  0  0  -0.241099  0  4.07011  0  0  -0.120257  -0.231665  0  4.036673  0
C  C87  1  0.91357384  0.63944684  0.15662503  1  0  -0.216294  0  3.796628  0  0  -0.235396  0  4.049691  0  0  -0.241095  0  4.070128  0  0  -0.120242  -0.231659  0  4.036699  0
C  C88  1  0.95525328  0.38630360  0.87013952  1  0  0.222374  0  3.777558  0  0  0.206164  0  4.037131  0  0  0.216657  0  4.053859  0  0  0.079005  0.198789  0  4.026342  0
C  C89  1  0.04475357  0.61369704  0.12986583  1  0  0.22251  0  3.777417  0  0  0.206271  0  4.037026  0  0  0.21677  0  4.053747  0  0  0.079035  0.198895  0  4.026246  0
S  S90  1  0.66802014  0.78276252  0.68311958  1  0  0.037696  0  2.701658  0  0  0.062401  0  3.115787  0  0  0.061164  0  3.103077  0  0  -0.035413  0.064962  0  3.122423  0
S  S91  1  0.33197818  0.21723091  0.31687678  1  0  0.037664  0  2.70177  0  0  0.0623  0  3.115869  0  0  0.061077  0  3.103148  0  0  -0.035458  0.064858  0  3.122509  0
S  S92  1  0.58104122  0.46267432  0.76178066  1  0  0.037107  0  2.791392  0  0  0.058346  0  3.22859  0  0  0.058145  0  3.215717  0  0  -0.039989  0.0589  0  3.233799  0
S  S93  1  0.41896410  0.53732319  0.23821762  1  0  0.037106  0  2.791162  0  0  0.058354  0  3.228406  0  0  0.058167  0  3.215529  0  0  -0.040009  0.058894  0  3.233612  0
I  I94  1  0.71124416  0.46077873  0.46449227  1  0  -0.441565  0  1.407639  0  0  -0.384209  0  1.770148  0  0  -0.40068  0  1.738602  0  0  -0.233783  -0.376037  0  1.803551  0
I  I95  1  0.28874187  0.53921886  0.53550669  1  0  -0.441587  0  1.407535  0  0  -0.384208  0  1.769991  0  0  -0.400685  0  1.738452  0  0  -0.233776  -0.376039  0  1.803394  0
O  O96  1  0.88449168  0.30741442  0.92050790  1  0  -0.284419  0  2.34367  0  0  -0.206563  0  2.580037  0  0  -0.225995  0  2.585697  0  0  -0.178249  -0.193003  0  2.575712  0
O  O97  1  0.11551131  0.69258932  0.07949892  1  0  -0.284563  0  2.343625  0  0  -0.206615  0  2.579971  0  0  -0.226054  0  2.585632  0  0  -0.178248  -0.193067  0  2.575657  0
O  O98  1  0.74363054  0.03739631  0.92210505  1  0  -0.278749  0  2.346321  0  0  -0.207815  0  2.587236  0  0  -0.226741  0  2.591496  0  0  -0.179007  -0.194566  0  2.583719  0
O  O99  1  0.25636878  0.96260428  0.07789356  1  0  -0.278732  0  2.346236  0  0  -0.207817  0  2.587191  0  0  -0.226747  0  2.591454  0  0  -0.178994  -0.194551  0  2.583666  0
O  O100  1  0.62222397  0.07296611  0.62691674  1  0  -0.307734  0  2.276745  0  0  -0.228157  0  2.523464  0  0  -0.245155  0  2.526373  0  0  -0.229564  -0.216626  0  2.5216  0
O  O101  1  0.37776861  0.92703237  0.37307412  1  0  -0.307729  0  2.276724  0  0  -0.228157  0  2.523525  0  0  -0.245147  0  2.526431  0  0  -0.22962  -0.21664  0  2.521666  0
