# generated using pymatgen
data_ZnH17C25NO5
_symmetry_space_group_name_H-M   'P 1'
_cell_length_a   11.02941135
_cell_length_b   18.26293892
_cell_length_c   19.15056647
_cell_angle_alpha   90.27859948
_cell_angle_beta   89.70914051
_cell_angle_gamma   90.26659943
_symmetry_Int_Tables_number   1
_chemical_formula_structural   ZnH17C25NO5
_chemical_formula_sum   'Zn2 H34 C50 N2 O10'
_cell_volume   3857.35174974
_cell_formula_units_Z   2
loop_
 _symmetry_equiv_pos_site_id
 _symmetry_equiv_pos_as_xyz
  1  'x, y, z'
loop_
 _atom_site_type_symbol
 _atom_site_label
 _atom_site_symmetry_multiplicity
 _atom_site_fract_x
 _atom_site_fract_y
 _atom_site_fract_z
 _atom_site_occupancy
 _atom_site_pbe_bader_charge
 _atom_site_pbe_bader_spin_density
 _atom_site_pbe_cm5_charge
 _atom_site_pbe_ddec_charge
 _atom_site_pbe_ddec_spin_density
 _atom_site_pbe_ddec_sum_bond_order
 _atom_site_pbe_magmom
Zn  Zn0  1  0.51516313  0.42308031  0.49811093  1  1.283686  0  0.666172  0.805148  0  2.446817  0
Zn  Zn1  1  0.51538799  0.57520101  0.50265527  1  1.261797  0  0.662311  0.811713  0  2.441157  0
H  H2  1  0.90502030  0.56591366  0.58235413  1  0.068306  0  0.103018  0.107165  0  0.989907  0
H  H3  1  0.13175020  0.56540099  0.57908845  1  0.080446  0  0.102414  0.10717  0  0.996344  0
H  H4  1  0.35061592  0.30719467  0.44499734  1  0.132047  0  0.128734  0.104801  0  0.988278  0
H  H5  1  0.67175127  0.30600732  0.55516807  1  0.138145  0  0.133452  0.112654  0  0.962557  0
H  H6  1  0.34177753  0.17047324  0.44051206  1  0.084512  0  0.112193  0.118121  0  0.99432  0
H  H7  1  0.67230097  0.16931624  0.56135558  1  0.07118  0  0.112035  0.116519  0  0.9973  0
H  H8  1  0.70137815  0.06620174  0.50372923  1  0.059432  0  0.106393  0.104778  0  0.999563  0
H  H9  1  0.31066808  0.06581606  0.49681460  1  0.065985  0  0.106204  0.1046  0  0.99849  0
H  H10  1  0.70042065  0.93151555  0.50521130  1  0.070486  0  0.106725  0.105488  0  0.996269  0
H  H11  1  0.31011587  0.93101336  0.49714034  1  0.071162  0  0.106385  0.10491  0  0.995849  0
H  H12  1  0.35438764  0.82525729  0.43200625  1  0.081309  0  0.112411  0.118121  0  0.993229  0
H  H13  1  0.65724156  0.83148706  0.57459197  1  0.072566  0  0.111925  0.117354  0  0.99422  0
H  H14  1  0.36459255  0.68826123  0.43707467  1  0.136666  0  0.130421  0.106476  0  0.970282  0
H  H15  1  0.65605100  0.69437624  0.57161334  1  0.125768  0  0.131989  0.10727  0  0.961103  0
H  H16  1  0.78367412  0.42736001  0.38068281  1  0.076396  0  0.103064  0.117732  0  1.011877  0
H  H17  1  0.23573812  0.42845220  0.37319213  1  0.046874  0  0.096607  0.103626  0  1.036703  0
H  H18  1  0.89190878  0.37096676  0.28155779  1  0.047985  0  0.098198  0.096392  0  0.997997  0
H  H19  1  0.11893744  0.37191137  0.27742901  1  0.058039  0  0.094324  0.089967  0  1.003316  0
H  H20  1  0.36234092  0.60250832  0.30297574  1  0.073047  0  0.102496  0.106013  0  1.002263  0
H  H21  1  0.36992949  0.60576792  0.70151487  1  0.088237  0  0.102812  0.107706  0  0.995332  0
H  H22  1  0.28325659  0.60686280  0.18150163  1  0.059742  0  0.099617  0.101241  0  1.0037  0
H  H23  1  0.29334318  0.61059507  0.82397225  1  0.051008  0  0.098083  0.098807  0  1.007505  0
H  H24  1  0.47017031  0.40495096  0.13684001  1  0.069614  0  0.104335  0.118098  0  1.007457  0
H  H25  1  0.45833779  0.40060960  0.86084288  1  0.064656  0  0.104058  0.116749  0  1.00815  0
H  H26  1  0.29203960  0.39427137  0.06527068  1  0.044125  0  0.099639  0.098701  0  1.003092  0
H  H27  1  0.29155463  0.39430116  0.93621218  1  0.054791  0  0.099903  0.098524  0  1.002322  0
H  H28  1  0.37648512  0.62463524  0.93714577  1  0.076852  0  0.099847  0.098172  0  1.005924  0
H  H29  1  0.37533610  0.62473978  0.06597265  1  0.089917  0  0.100254  0.098991  0  1.004248  0
H  H30  1  0.45205905  0.30087186  0.23465835  1  0.024564  0  0.085825  0.074573  0  1.007728  0
H  H31  1  0.45433024  0.32988404  0.32488238  1  0.053847  0  0.089109  0.086784  0  1.036508  0
H  H32  1  0.58283962  0.28393270  0.28766501  1  0.043742  0  0.102884  0.107762  0  0.975554  0
H  H33  1  0.43175422  0.32655956  0.66991207  1  0.072412  0  0.092168  0.097468  0  1.013807  0
H  H34  1  0.42090107  0.30104666  0.76071458  1  0.031814  0  0.087353  0.077479  0  1.006352  0
H  H35  1  0.55203847  0.27605429  0.71032449  1  0.019657  0  0.097677  0.098617  0  0.987514  0
C  C36  1  0.49028644  0.50031567  0.63605325  1  1.568579  0  0.214651  0.612976  0  4.162294  0
C  C37  1  0.49741033  0.50212194  0.36396169  1  1.596395  0  0.212708  0.603552  0  4.169791  0
C  C38  1  0.36931945  0.50551980  0.15006527  1  -0.021771  0  -0.005137  0.095468  0  4.023891  0
C  C39  1  0.36841370  0.50529269  0.85162819  1  -0.034149  0  -0.007521  0.089091  0  4.027719  0
C  C40  1  0.44104932  0.44739720  0.17340582  1  -0.007891  0  -0.10206  -0.256762  0  3.969357  0
C  C41  1  0.43271113  0.44471890  0.82576658  1  0.014047  0  -0.101392  -0.251787  0  3.965935  0
C  C42  1  0.48542515  0.44511053  0.24145164  1  0.458993  0  0.087022  0.249945  0  4.026829  0
C  C43  1  0.47390716  0.44166420  0.75681249  1  0.441577  0  0.086092  0.247286  0  4.030306  0
C  C44  1  0.45698737  0.50150110  0.28927736  1  -0.037594  0  -0.023132  -0.136941  0  3.931708  0
C  C45  1  0.45126728  0.50012794  0.71115751  1  0.039728  0  -0.022361  -0.12767  0  3.931753  0
C  C46  1  0.31147120  0.44484855  0.03715716  1  -0.005621  0  -0.0944  -0.131799  0  4.012374  0
C  C47  1  0.31138520  0.44485277  0.96459975  1  -0.083872  0  -0.093746  -0.128531  0  4.005211  0
C  C48  1  0.33997766  0.50870006  0.92700988  1  -0.055034  0  -0.009637  0.066184  0  4.000283  0
C  C49  1  0.33951534  0.50879752  0.07508195  1  0.007929  0  -0.009734  0.065524  0  4.002726  0
C  C50  1  0.35487312  0.57417876  0.96495520  1  -0.074925  0  -0.092013  -0.126564  0  3.993311  0
C  C51  1  0.35432565  0.57427431  0.03770473  1  -0.068385  0  -0.091863  -0.127085  0  3.994676  0
C  C52  1  0.42077451  0.27371540  0.46875323  1  0.432174  0  0.061222  0.104601  0  3.923984  0
C  C53  1  0.60023457  0.27313331  0.53116598  1  0.459086  0  0.064113  0.107255  0  3.918057  0
C  C54  1  0.41582620  0.19772042  0.46780779  1  0.016795  0  -0.081478  -0.181475  0  3.951282  0
C  C55  1  0.60039702  0.19714042  0.53329351  1  0.001587  0  -0.08107  -0.182784  0  3.955162  0
C  C56  1  0.50720021  0.15722563  0.50057058  1  -0.031208  0  0.013957  0.109188  0  3.998255  0
C  C57  1  0.75140158  0.49778942  0.49761790  1  1.592657  0  0.220161  0.607916  0  4.166771  0
C  C58  1  0.27760222  0.49671299  0.49274307  1  1.533054  0  0.214274  0.600257  0  4.16704  0
C  C59  1  0.61503040  0.03694330  0.50366325  1  -0.05433  0  -0.084449  -0.118733  0  3.984987  0
C  C60  1  0.39671184  0.03668050  0.49761418  1  -0.047945  0  -0.084181  -0.11941  0  3.980206  0
C  C61  1  0.61459362  0.96087860  0.50438529  1  -0.004485  0  -0.084914  -0.120529  0  3.987075  0
C  C62  1  0.39631497  0.96050842  0.49789993  1  -0.016601  0  -0.084458  -0.119505  0  3.983689  0
C  C63  1  0.50525789  0.92117442  0.50171451  1  -0.048477  0  -0.00401  0.063107  0  4.001673  0
C  C64  1  0.50606589  0.07644979  0.50065112  1  -0.010613  0  -0.005231  0.063132  0  3.99585  0
C  C65  1  0.42191280  0.79879794  0.46451567  1  -0.003794  0  -0.080401  -0.1819  0  3.953567  0
C  C66  1  0.59167441  0.80221522  0.54238135  1  0.071241  0  -0.080959  -0.183315  0  3.956322  0
C  C67  1  0.42736472  0.72286532  0.46633652  1  0.46049  0  0.063111  0.111106  0  3.917509  0
C  C68  1  0.59129309  0.72619636  0.54158110  1  0.429957  0  0.063936  0.110726  0  3.921142  0
C  C69  1  0.50589803  0.84046073  0.50289114  1  -0.005989  0  0.014053  0.11136  0  4.000907  0
C  C70  1  0.88250002  0.42719284  0.37975276  1  -0.016984  0  -0.092756  -0.130568  0  3.969484  0
C  C71  1  0.13709392  0.42761927  0.37549999  1  0.001189  0  -0.099467  -0.13995  0  3.995358  0
C  C72  1  0.94326769  0.39544612  0.32432877  1  -0.101322  0  -0.10058  -0.092643  0  4.062016  0
C  C73  1  0.07145492  0.39588933  0.32211872  1  -0.050025  0  -0.102716  -0.095984  0  4.072575  0
C  C74  1  0.07770103  0.46104361  0.43347404  1  0.064859  0  -0.003808  0.061603  0  3.948207  0
C  C75  1  0.94722071  0.46109973  0.43534125  1  -0.081743  0  -0.003271  0.055448  0  3.950285  0
C  C76  1  0.88695312  0.49833794  0.49128366  1  -0.020818  0  -0.008507  -0.058556  0  3.93947  0
C  C77  1  0.14229239  0.49799698  0.48790876  1  0.001407  0  -0.014607  -0.07325  0  3.945319  0
C  C78  1  0.95278429  0.53636919  0.54102835  1  0.008607  0  -0.094377  -0.114182  0  4.033521  0
C  C79  1  0.08010374  0.53616351  0.53927910  1  -0.065073  0  -0.091442  -0.102818  0  4.027389  0
C  C80  1  0.38396038  0.55916176  0.26572702  1  -0.027924  0  -0.085811  -0.070888  0  4.009039  0
C  C81  1  0.38671865  0.56062727  0.73715870  1  -0.054451  0  -0.087325  -0.078546  0  4.015773  0
C  C82  1  0.34026208  0.56149042  0.19784284  1  -0.006686  0  -0.099793  -0.156847  0  4.012362  0
C  C83  1  0.34476091  0.56330784  0.80569154  1  -0.005805  0  -0.101523  -0.156736  0  4.018666  0
C  C84  1  0.50922391  0.32244488  0.27726045  1  0.416835  0  -0.142852  -0.163072  0  3.956088  0
C  C85  1  0.48288452  0.31826673  0.71842251  1  0.413521  0  -0.143279  -0.163175  0  3.95057  0
N  N86  1  0.51194011  0.31078430  0.49935946  1  -1.236247  0  -0.318334  -0.192035  0  3.510784  0
N  N87  1  0.51088060  0.68728328  0.50396412  1  -1.233334  0  -0.317552  -0.190224  0  3.511815  0
O  O88  1  0.48847850  0.43944358  0.60335189  1  -1.160124  0  -0.312298  -0.545067  0  2.346318  0
O  O89  1  0.52485233  0.44117991  0.39170933  1  -1.16078  0  -0.313987  -0.544874  0  2.348072  0
O  O90  1  0.51768840  0.56226499  0.60984550  1  -1.164158  0  -0.325408  -0.55766  0  2.298506  0
O  O91  1  0.49673731  0.56391217  0.39521951  1  -1.165727  0  -0.321634  -0.554576  0  2.312533  0
O  O92  1  0.69975609  0.43568840  0.50422968  1  -1.163274  0  -0.315173  -0.549724  0  2.321047  0
O  O93  1  0.32991384  0.43526062  0.48425493  1  -1.168589  0  -0.314538  -0.550587  0  2.341572  0
O  O94  1  0.69914159  0.55974483  0.49680697  1  -1.155735  0  -0.317791  -0.547136  0  2.304017  0
O  O95  1  0.32995598  0.55729491  0.50685943  1  -1.170955  0  -0.319672  -0.555289  0  2.319098  0
O  O96  1  0.56581113  0.39002641  0.25777178  1  -1.083708  0  -0.214619  -0.198077  0  2.525506  0
O  O97  1  0.54704989  0.38386685  0.73704168  1  -1.07537  0  -0.219067  -0.204162  0  2.516199  0
