# generated using pymatgen
data_ErH7C8SNO7
_symmetry_space_group_name_H-M   'P 1'
_cell_length_a   6.98020314
_cell_length_b   10.43652829
_cell_length_c   10.43911473
_cell_angle_alpha   65.61542010
_cell_angle_beta   69.38491411
_cell_angle_gamma   69.47478501
_symmetry_Int_Tables_number   1
_chemical_formula_structural   ErH7C8SNO7
_chemical_formula_sum   'Er2 H14 C16 S2 N2 O14'
_cell_volume   629.21674148
_cell_formula_units_Z   2
loop_
 _symmetry_equiv_pos_site_id
 _symmetry_equiv_pos_as_xyz
  1  'x, y, z'
loop_
 _atom_site_type_symbol
 _atom_site_label
 _atom_site_symmetry_multiplicity
 _atom_site_fract_x
 _atom_site_fract_y
 _atom_site_fract_z
 _atom_site_occupancy
 _atom_site_hle17_bader_spin_density
 _atom_site_hle17_ddec_charge
 _atom_site_hle17_ddec_spin_density
 _atom_site_hle17_ddec_sum_bond_order
 _atom_site_hle17_magmom
 _atom_site_hse06_10hf_bader_spin_density
 _atom_site_hse06_10hf_ddec_charge
 _atom_site_hse06_10hf_ddec_spin_density
 _atom_site_hse06_10hf_ddec_sum_bond_order
 _atom_site_hse06_10hf_magmom
 _atom_site_hse06_bader_spin_density
 _atom_site_hse06_ddec_charge
 _atom_site_hse06_ddec_spin_density
 _atom_site_hse06_ddec_sum_bond_order
 _atom_site_hse06_magmom
 _atom_site_pbe_bader_spin_density
 _atom_site_pbe_cm5_charge
 _atom_site_pbe_ddec_charge
 _atom_site_pbe_ddec_spin_density
 _atom_site_pbe_ddec_sum_bond_order
 _atom_site_pbe_magmom
Er  Er0  1  0.86950194  0.82230345  0.82251590  1  0  2.161616  0  1.667879  0  0  2.011225  0  2.158782  0  0  2.062913  0  2.114254  0  0  1.403708  1.971841  0  2.193354  0
Er  Er1  1  0.13050027  0.17761829  0.17755349  1  0  2.161538  0  1.667777  0  0  2.011027  0  2.158847  0  0  2.062754  0  2.114263  0  0  1.403695  1.971687  0  2.1933  0
H  H2  1  0.75721984  0.64144826  0.27435733  1  0  0.111364  0  0.954789  0  0  0.121629  0  1.012914  0  0  0.12536  0  1.009241  0  0  0.129999  0.118972  0  1.015398  0
H  H3  1  0.24286342  0.72580087  0.35868396  1  0  0.111422  0  0.955327  0  0  0.121775  0  1.013257  0  0  0.125567  0  1.009504  0  0  0.130345  0.119125  0  1.015729  0
H  H4  1  0.24286757  0.35831520  0.72548656  1  0  0.11143  0  0.954662  0  0  0.121702  0  1.012764  0  0  0.125497  0  1.008998  0  0  0.130014  0.119041  0  1.015259  0
H  H5  1  0.75713396  0.27434439  0.64148955  1  0  0.111304  0  0.954617  0  0  0.121597  0  1.01271  0  0  0.125325  0  1.009043  0  0  0.130105  0.11894  0  1.015202  0
H  H6  1  0.68510022  0.80287442  0.41986040  1  0  0.131756  0  0.914442  0  0  0.144441  0  0.964868  0  0  0.148455  0  0.963413  0  0  0.11772  0.141279  0  0.966611  0
H  H7  1  0.31494595  0.58057040  0.19700335  1  0  0.131293  0  0.914621  0  0  0.143915  0  0.96518  0  0  0.147933  0  0.963722  0  0  0.117399  0.14072  0  0.966957  0
H  H8  1  0.31498389  0.19721982  0.57963991  1  0  0.131512  0  0.915051  0  0  0.144298  0  0.965197  0  0  0.148375  0  0.963664  0  0  0.117698  0.141072  0  0.967014  0
H  H9  1  0.68496153  0.41987530  0.80290850  1  0  0.1318  0  0.914426  0  0  0.144399  0  0.964935  0  0  0.148427  0  0.963456  0  0  0.117674  0.141189  0  0.966729  0
H  H10  1  0.79502654  0.39245286  0.39242720  1  0  0.320049  0  0.892752  0  0  0.295281  0  0.961687  0  0  0.305002  0  0.953163  0  0  0.318918  0.288272  0  0.96803  0
H  H11  1  0.20502814  0.60737042  0.60776979  1  0  0.31984  0  0.892749  0  0  0.295094  0  0.961732  0  0  0.304831  0  0.953169  0  0  0.318802  0.288077  0  0.968079  0
H  H12  1  0.15901712  0.90579965  0.90595153  1  0  0.468654  0  0.790188  0  0  0.439774  0  0.854625  0  0  0.450415  0  0.838596  0  0  0.324232  0.43193  0  0.866483  0
H  H13  1  0.84094655  0.09386862  0.09440514  1  0  0.468544  0  0.790448  0  0  0.439619  0  0.854939  0  0  0.450261  0  0.838902  0  0  0.324273  0.431755  0  0.866826  0
H  H14  1  0.30819375  0.80815615  0.80813612  1  0  0.429589  0  0.874506  0  0  0.399522  0  0.93727  0  0  0.410016  0  0.922415  0  0  0.271096  0.391957  0  0.94802  0
H  H15  1  0.69180223  0.19146301  0.19226476  1  0  0.429363  0  0.874819  0  0  0.399176  0  0.937661  0  0  0.409667  0  0.922817  0  0  0.271007  0.391618  0  0.948395  0
C  C16  1  0.74169824  0.60039998  0.39115920  1  0  0.130648  0  3.651551  0  0  0.089312  0  3.909534  0  0  0.098867  0  3.924947  0  0  0.055029  0.083288  0  3.898738  0
C  C17  1  0.25833756  0.60900543  0.39964705  1  0  0.129954  0  3.65114  0  0  0.088656  0  3.908982  0  0  0.09817  0  3.924362  0  0  0.054306  0.082625  0  3.898198  0
C  C18  1  0.25834330  0.39953842  0.60869462  1  0  0.130701  0  3.650817  0  0  0.089233  0  3.908835  0  0  0.098739  0  3.924251  0  0  0.05519  0.083209  0  3.898026  0
C  C19  1  0.74162894  0.39114838  0.60042918  1  0  0.130903  0  3.651115  0  0  0.089574  0  3.909094  0  0  0.099121  0  3.92452  0  0  0.054941  0.083552  0  3.898287  0
C  C20  1  0.70268521  0.68637320  0.47248321  1  0  -0.165306  0  3.664514  0  0  -0.183206  0  3.918206  0  0  -0.193268  0  3.936591  0  0  -0.082395  -0.176776  0  3.906055  0
C  C21  1  0.29737458  0.52784301  0.31349824  1  0  -0.164514  0  3.663846  0  0  -0.182603  0  3.917518  0  0  -0.192661  0  3.935919  0  0  -0.081965  -0.176144  0  3.90539  0
C  C22  1  0.29741799  0.31371946  0.52719371  1  0  -0.16573  0  3.663922  0  0  -0.183656  0  3.917328  0  0  -0.193758  0  3.935692  0  0  -0.082803  -0.177167  0  3.905205  0
C  C23  1  0.70261835  0.47247502  0.68639716  1  0  -0.165431  0  3.664156  0  0  -0.183339  0  3.917912  0  0  -0.193403  0  3.936269  0  0  -0.082353  -0.176867  0  3.905783  0
C  C24  1  0.68290045  0.62430574  0.62430925  1  0  0.227137  0  3.751212  0  0  0.235231  0  4.010263  0  0  0.249429  0  4.026475  0  0  0.022295  0.225581  0  3.99871  0
C  C25  1  0.31715053  0.37601049  0.37537003  1  0  0.22789  0  3.751428  0  0  0.236188  0  4.010089  0  0  0.250377  0  4.026325  0  0  0.022789  0.226539  0  3.998521  0
C  C26  1  0.42244079  0.97919909  0.97941276  1  0  0.562596  0  3.933188  0  0  0.521466  0  4.223552  0  0  0.551221  0  4.214589  0  0  0.217806  0.501165  0  4.228843  0
C  C27  1  0.57755662  0.02079986  0.02058553  1  0  0.562784  0  3.932981  0  0  0.521455  0  4.223564  0  0  0.551201  0  4.214617  0  0  0.217857  0.501166  0  4.228838  0
C  C28  1  0.91853867  0.51596951  0.06726668  1  0  0.564868  0  3.938467  0  0  0.521611  0  4.235732  0  0  0.551898  0  4.22519  0  0  0.218461  0.500911  0  4.241703  0
C  C29  1  0.08149922  0.93283884  0.48394985  1  0  0.564757  0  3.938141  0  0  0.521673  0  4.235149  0  0  0.551949  0  4.224652  0  0  0.218828  0.501016  0  4.241061  0
C  C30  1  0.08109074  0.48390014  0.93273087  1  0  0.563422  0  3.939465  0  0  0.520452  0  4.236424  0  0  0.550766  0  4.22585  0  0  0.217956  0.499768  0  4.242378  0
C  C31  1  0.91882238  0.06715372  0.51618503  1  0  0.563773  0  3.939582  0  0  0.520917  0  4.236371  0  0  0.551232  0  4.225796  0  0  0.218289  0.500194  0  4.242366  0
S  S32  1  0.62183497  0.72972469  0.72975038  1  0  -0.612588  0  2.077294  0  0  -0.600723  0  2.414241  0  0  -0.620904  0  2.407483  0  0  -0.243271  -0.585016  0  2.4184  0
S  S33  1  0.37811065  0.27094334  0.26959926  1  0  -0.612764  0  2.077756  0  0  -0.60104  0  2.414575  0  0  -0.62124  0  2.407842  0  0  -0.243188  -0.585326  0  2.418698  0
N  N34  1  0.76062125  0.45580641  0.45582489  1  0  -0.239897  0  3.492957  0  0  -0.170797  0  3.728888  0  0  -0.187458  0  3.745473  0  0  -0.355993  -0.159598  0  3.717548  0
N  N35  1  0.23934981  0.54416203  0.54422973  1  0  -0.23942  0  3.492617  0  0  -0.170197  0  3.728136  0  0  -0.186902  0  3.744821  0  0  -0.35591  -0.158992  0  3.716798  0
O  O36  1  0.50363117  0.89963168  0.90025119  1  0  -0.655766  0  2.13374  0  0  -0.598493  0  2.378607  0  0  -0.622833  0  2.370127  0  0  -0.369935  -0.581195  0  2.384094  0
O  O37  1  0.49635141  0.10046193  0.09965877  1  0  -0.655857  0  2.13356  0  0  -0.598469  0  2.378481  0  0  -0.62282  0  2.370017  0  0  -0.369996  -0.581176  0  2.383956  0
O  O38  1  0.22741490  0.02722306  0.02733939  1  0  -0.641084  0  1.991387  0  0  -0.592005  0  2.224825  0  0  -0.615398  0  2.214104  0  0  -0.35266  -0.575418  0  2.232114  0
O  O39  1  0.77257892  0.97268129  0.97275222  1  0  -0.641132  0  1.991509  0  0  -0.592  0  2.225026  0  0  -0.615392  0  2.21433  0  0  -0.352646  -0.575407  0  2.232309  0
O  O40  1  0.81782436  0.64664460  0.05242932  1  0  -0.67117  0  2.057014  0  0  -0.628173  0  2.301336  0  0  -0.652131  0  2.292433  0  0  -0.372087  -0.610987  0  2.306498  0
O  O41  1  0.18233036  0.94779513  0.35316274  1  0  -0.671478  0  2.056177  0  0  -0.6286  0  2.300455  0  0  -0.652578  0  2.291566  0  0  -0.372847  -0.611436  0  2.305595  0
O  O42  1  0.18182993  0.35324063  0.94749232  1  0  -0.670975  0  2.057207  0  0  -0.628052  0  2.301292  0  0  -0.652037  0  2.292381  0  0  -0.372051  -0.610884  0  2.306448  0
O  O43  1  0.81799229  0.05225578  0.64695907  1  0  -0.671259  0  2.05727  0  0  -0.628402  0  2.301338  0  0  -0.652375  0  2.292425  0  0  -0.372473  -0.611207  0  2.306513  0
O  O44  1  0.90102605  0.40796757  0.18186729  1  0  -0.651454  0  2.115246  0  0  -0.601886  0  2.360562  0  0  -0.626301  0  2.354485  0  0  -0.355877  -0.584816  0  2.364539  0
O  O45  1  0.09904453  0.81829466  0.59194032  1  0  -0.651232  0  2.115244  0  0  -0.601852  0  2.360732  0  0  -0.626252  0  2.35467  0  0  -0.355985  -0.584805  0  2.364702  0
O  O46  1  0.09863641  0.59192537  0.81815776  1  0  -0.651058  0  2.115515  0  0  -0.60142  0  2.360574  0  0  -0.625844  0  2.354507  0  0  -0.355706  -0.584349  0  2.364546  0
O  O47  1  0.90126115  0.18169702  0.40818404  1  0  -0.651021  0  2.115224  0  0  -0.601494  0  2.360205  0  0  -0.625906  0  2.354092  0  0  -0.355925  -0.58443  0  2.364212  0
O  O48  1  0.15739777  0.85038954  0.85039178  1  0  -0.92098  0  1.903155  0  0  -0.867281  0  2.102316  0  0  -0.88752  0  2.069907  0  0  -0.657228  -0.852611  0  2.125898  0
O  O49  1  0.84258018  0.14898831  0.15024581  1  0  -0.92039  0  1.90343  0  0  -0.866554  0  2.102773  0  0  -0.88679  0  2.070374  0  0  -0.657135  -0.851881  0  2.126335  0
