# generated using pymatgen
data_TbH21(C7O3)4
_symmetry_space_group_name_H-M   'P 1'
_cell_length_a   9.60537328
_cell_length_b   11.43665307
_cell_length_c   12.45558684
_cell_angle_alpha   75.27713877
_cell_angle_beta   73.82041968
_cell_angle_gamma   73.35614003
_symmetry_Int_Tables_number   1
_chemical_formula_structural   TbH21(C7O3)4
_chemical_formula_sum   'Tb2 H42 C56 O24'
_cell_volume   1236.23495505
_cell_formula_units_Z   2
loop_
 _symmetry_equiv_pos_site_id
 _symmetry_equiv_pos_as_xyz
  1  'x, y, z'
loop_
 _atom_site_type_symbol
 _atom_site_label
 _atom_site_symmetry_multiplicity
 _atom_site_fract_x
 _atom_site_fract_y
 _atom_site_fract_z
 _atom_site_occupancy
 _atom_site_hle17_bader_spin_density
 _atom_site_hle17_ddec_charge
 _atom_site_hle17_ddec_spin_density
 _atom_site_hle17_ddec_sum_bond_order
 _atom_site_hle17_magmom
 _atom_site_hse06_10hf_bader_spin_density
 _atom_site_hse06_10hf_ddec_charge
 _atom_site_hse06_10hf_ddec_spin_density
 _atom_site_hse06_10hf_ddec_sum_bond_order
 _atom_site_hse06_10hf_magmom
 _atom_site_hse06_bader_spin_density
 _atom_site_hse06_ddec_charge
 _atom_site_hse06_ddec_spin_density
 _atom_site_hse06_ddec_sum_bond_order
 _atom_site_hse06_magmom
 _atom_site_pbe_bader_spin_density
 _atom_site_pbe_cm5_charge
 _atom_site_pbe_ddec_charge
 _atom_site_pbe_ddec_spin_density
 _atom_site_pbe_ddec_sum_bond_order
 _atom_site_pbe_magmom
Tb  Tb0  1  0.71602101  0.04524488  0.94685691  1  0  2.23293  0  1.633  0  0  2.088036  0  2.099045  0  0  2.135764  0  2.057351  0  0  1.504928  2.05107  0  2.132504  0
Tb  Tb1  1  0.28398013  0.95475553  0.05314426  1  0  2.232976  0  1.632999  0  0  2.088089  0  2.099015  0  0  2.135815  0  2.057324  0  0  1.504969  2.051132  0  2.132459  0
H  H2  1  0.55816139  0.54358857  0.04857474  1  0  0.098774  0  0.963783  0  0  0.108829  0  1.026273  0  0  0.111101  0  1.025581  0  0  0.104624  0.107312  0  1.026545  0
H  H3  1  0.44183646  0.45641554  0.95142309  1  0  0.098792  0  0.963779  0  0  0.10881  0  1.02631  0  0  0.111081  0  1.025618  0  0  0.104605  0.107299  0  1.026576  0
H  H4  1  0.74568508  0.35480032  0.98893693  1  0  0.134433  0  0.957128  0  0  0.142749  0  1.0182  0  0  0.147025  0  1.015481  0  0  0.112323  0.139615  0  1.020373  0
H  H5  1  0.25431037  0.64520098  0.01106451  1  0  0.134464  0  0.95717  0  0  0.142767  0  1.018248  0  0  0.147044  0  1.015529  0  0  0.112308  0.139611  0  1.020442  0
H  H6  1  0.05986517  0.58168368  0.81139553  1  0  0.111208  0  0.956094  0  0  0.121748  0  1.016334  0  0  0.124428  0  1.016723  0  0  0.104045  0.11989  0  1.016102  0
H  H7  1  0.94013452  0.41831392  0.18860183  1  0  0.111205  0  0.956272  0  0  0.121739  0  1.016504  0  0  0.12442  0  1.016895  0  0  0.104064  0.119881  0  1.016271  0
H  H8  1  0.87193249  0.76904884  0.86817869  1  0  0.111512  0  0.957284  0  0  0.120089  0  1.02028  0  0  0.12398  0  1.016684  0  0  0.112542  0.117184  0  1.023076  0
H  H9  1  0.12807075  0.23094785  0.13182048  1  0  0.111535  0  0.957189  0  0  0.120135  0  1.020171  0  0  0.124002  0  1.016601  0  0  0.112551  0.117213  0  1.022978  0
H  H10  1  0.39232543  0.12929456  0.64406736  1  0  0.094441  0  0.945783  0  0  0.107258  0  1.002853  0  0  0.110266  0  1.000575  0  0  0.106179  0.105043  0  1.004465  0
H  H11  1  0.60767353  0.87070584  0.35593351  1  0  0.094437  0  0.945794  0  0  0.107257  0  1.002851  0  0  0.110258  0  1.000592  0  0  0.106175  0.105035  0  1.004473  0
H  H12  1  0.36272288  0.28906224  0.46891081  1  0  0.081115  0  1.002435  0  0  0.089273  0  1.069671  0  0  0.090621  0  1.072472  0  0  0.092712  0.088263  0  1.067918  0
H  H13  1  0.63727636  0.71093723  0.53109102  1  0  0.08107  0  1.002457  0  0  0.08925  0  1.069678  0  0  0.090599  0  1.072476  0  0  0.092698  0.088239  0  1.067931  0
H  H14  1  0.15656792  0.47979287  0.48183802  1  0  0.086773  0  0.959703  0  0  0.097594  0  1.019867  0  0  0.100088  0  1.018557  0  0  0.099273  0.095753  0  1.020894  0
H  H15  1  0.84343107  0.52020753  0.51816444  1  0  0.086725  0  0.959713  0  0  0.097563  0  1.019855  0  0  0.100059  0  1.018543  0  0  0.099265  0.095727  0  1.020877  0
H  H16  1  0.98733171  0.51164946  0.66799635  1  0  0.107987  0  0.969322  0  0  0.118398  0  1.031713  0  0  0.121573  0  1.030843  0  0  0.104308  0.116217  0  1.032204  0
H  H17  1  0.01266615  0.48834720  0.33200565  1  0  0.107944  0  0.969383  0  0  0.118399  0  1.031726  0  0  0.121575  0  1.030856  0  0  0.104302  0.116222  0  1.03221  0
H  H18  1  0.90654156  0.23319155  0.56241121  1  0  0.092257  0  0.949425  0  0  0.103535  0  1.009944  0  0  0.106753  0  1.007581  0  0  0.104475  0.101086  0  1.011859  0
H  H19  1  0.09346441  0.76681075  0.43758602  1  0  0.092262  0  0.949413  0  0  0.103508  0  1.00996  0  0  0.106729  0  1.007598  0  0  0.104498  0.101106  0  1.011843  0
H  H20  1  0.06362492  0.23576236  0.36429347  1  0  0.0863  0  0.963498  0  0  0.096978  0  1.026401  0  0  0.099596  0  1.025958  0  0  0.097502  0.094915  0  1.027214  0
H  H21  1  0.93638106  0.76423995  0.63570376  1  0  0.0863  0  0.963554  0  0  0.096955  0  1.026476  0  0  0.099587  0  1.026012  0  0  0.097529  0.09492  0  1.027262  0
H  H22  1  0.29568590  0.07050291  0.32907457  1  0  0.102581  0  0.948344  0  0  0.114656  0  1.003685  0  0  0.117667  0  1.001491  0  0  0.10762  0.112376  0  1.005517  0
H  H23  1  0.70432117  0.92949940  0.67092321  1  0  0.102569  0  0.948372  0  0  0.114645  0  1.003702  0  0  0.117653  0  1.001533  0  0  0.107656  0.112411  0  1.005503  0
H  H24  1  0.37554794  0.90994664  0.48944872  1  0  0.111508  0  0.957738  0  0  0.123755  0  1.015391  0  0  0.126697  0  1.014914  0  0  0.106492  0.122053  0  1.014804  0
H  H25  1  0.62445809  0.09005567  0.51055171  1  0  0.111551  0  0.957606  0  0  0.123763  0  1.015304  0  0  0.126706  0  1.014827  0  0  0.106507  0.122105  0  1.014681  0
H  H26  1  0.47046440  0.81607458  0.78349933  1  0  0.129733  0  0.939382  0  0  0.138439  0  0.999205  0  0  0.142015  0  0.997668  0  0  0.115496  0.135777  0  1.000653  0
H  H27  1  0.52953914  0.18392492  0.21649992  1  0  0.129783  0  0.939297  0  0  0.138459  0  0.999163  0  0  0.142035  0  0.997627  0  0  0.115514  0.135827  0  1.000574  0
H  H28  1  0.64008179  0.60359869  0.78153090  1  0  0.098446  0  0.978136  0  0  0.105681  0  1.043611  0  0  0.10733  0  1.044641  0  0  0.105165  0.104313  0  1.043259  0
H  H29  1  0.35991771  0.39639985  0.21847029  1  0  0.098409  0  0.978131  0  0  0.105637  0  1.043616  0  0  0.107285  0  1.044649  0  0  0.105153  0.104276  0  1.043249  0
H  H30  1  0.36422513  0.51269823  0.61058438  1  0  0.100056  0  0.964677  0  0  0.1076  0  1.029801  0  0  0.109918  0  1.029557  0  0  0.103675  0.105982  0  1.029923  0
H  H31  1  0.63577221  0.48730030  0.38941730  1  0  0.100012  0  0.964708  0  0  0.107583  0  1.029806  0  0  0.1099  0  1.029562  0  0  0.103667  0.105974  0  1.029916  0
H  H32  1  0.19943614  0.72740727  0.60693242  1  0  0.11208  0  0.957919  0  0  0.123168  0  1.018211  0  0  0.1259  0  1.017703  0  0  0.107343  0.121046  0  1.019132  0
H  H33  1  0.80056338  0.27259500  0.39306867  1  0  0.112101  0  0.957884  0  0  0.123163  0  1.018198  0  0  0.125895  0  1.017689  0  0  0.107333  0.121049  0  1.019113  0
H  H34  1  0.85373726  0.11059586  0.10764534  1  0  0.446204  0  0.825252  0  0  0.416619  0  0.89566  0  0  0.426156  0  0.881669  0  0  0.31698  0.409763  0  0.905739  0
H  H35  1  0.14626196  0.88940360  0.89235488  1  0  0.44619  0  0.825292  0  0  0.416601  0  0.895708  0  0  0.426133  0  0.881718  0  0  0.316953  0.409769  0  0.905755  0
H  H36  1  0.94893152  0.15046638  0.98688184  1  0  0.45835  0  0.83424  0  0  0.425902  0  0.899794  0  0  0.437365  0  0.882932  0  0  0.310162  0.417833  0  0.911646  0
H  H37  1  0.05106906  0.84953216  0.01311911  1  0  0.45833  0  0.834265  0  0  0.42589  0  0.899808  0  0  0.437352  0  0.882948  0  0  0.310154  0.417833  0  0.911645  0
H  H38  1  0.51184682  0.07344747  0.80078768  1  0  0.435553  0  0.870321  0  0  0.405729  0  0.932589  0  0  0.416664  0  0.916626  0  0  0.298097  0.398137  0  0.943673  0
H  H39  1  0.48815402  0.92655015  0.19921343  1  0  0.435551  0  0.870319  0  0  0.405734  0  0.932573  0  0  0.416669  0  0.916611  0  0  0.298109  0.398138  0  0.943662  0
H  H40  1  0.60169688  0.18052607  0.74021368  1  0  0.435399  0  0.864359  0  0  0.405294  0  0.926942  0  0  0.416183  0  0.911101  0  0  0.296889  0.397529  0  0.938256  0
H  H41  1  0.39830235  0.81947340  0.25978734  1  0  0.435402  0  0.864354  0  0  0.405327  0  0.92691  0  0  0.416216  0  0.911069  0  0  0.296905  0.397569  0  0.938213  0
H  H42  1  0.79149687  0.31014404  0.73552212  1  0  0.418652  0  0.866873  0  0  0.385653  0  0.948415  0  0  0.3986  0  0.932541  0  0  0.313205  0.376457  0  0.958753  0
H  H43  1  0.20849798  0.68984794  0.26448008  1  0  0.418611  0  0.866889  0  0  0.385614  0  0.94843  0  0  0.39856  0  0.932581  0  0  0.313202  0.376414  0  0.958771  0
C  C44  1  0.58076419  0.77815743  0.98549216  1  0  0.697097  0  3.88718  0  0  0.652702  0  4.172948  0  0  0.688669  0  4.161629  0  0  0.221085  0.628154  0  4.180012  0
C  C45  1  0.41923666  0.22184391  0.01450725  1  0  0.697093  0  3.887144  0  0  0.652702  0  4.172901  0  0  0.688676  0  4.161573  0  0  0.221098  0.628171  0  4.179938  0
C  C46  1  0.66806869  0.55060675  0.99640840  1  0  -0.04248  0  3.747733  0  0  -0.06561  0  3.99485  0  0  -0.062906  0  4.015196  0  0  -0.079651  -0.067051  0  3.980633  0
C  C47  1  0.33192779  0.44939456  0.00358959  1  0  -0.042446  0  3.747871  0  0  -0.065548  0  3.994986  0  0  -0.062842  0  4.015332  0  0  -0.079618  -0.066987  0  3.980754  0
C  C48  1  0.77094742  0.44618649  0.96351693  1  0  -0.166597  0  3.707026  0  0  -0.190672  0  3.96382  0  0  -0.196556  0  3.980737  0  0  -0.093626  -0.186724  0  3.952356  0
C  C49  1  0.22904849  0.55381667  0.03647914  1  0  -0.166681  0  3.70706  0  0  -0.19071  0  3.963844  0  0  -0.196595  0  3.980762  0  0  -0.093643  -0.18676  0  3.952391  0
C  C50  1  0.90922560  0.45964757  0.89298271  1  0  0.299844  0  3.757789  0  0  0.286168  0  4.019972  0  0  0.299644  0  4.03398  0  0  0.096454  0.276956  0  4.010381  0
C  C51  1  0.09076708  0.54035556  0.10701490  1  0  0.29985  0  3.757816  0  0  0.286119  0  4.020083  0  0  0.299595  0  4.034094  0  0  0.096463  0.276899  0  4.010483  0
C  C52  1  0.94854987  0.57444996  0.86091598  1  0  -0.204683  0  3.754512  0  0  -0.222464  0  4.00831  0  0  -0.230143  0  4.028456  0  0  -0.102677  -0.217246  0  3.99451  0
C  C53  1  0.05144846  0.42554856  0.13908066  1  0  -0.204751  0  3.75465  0  0  -0.222501  0  4.008476  0  0  -0.230179  0  4.028615  0  0  -0.102738  -0.217283  0  3.994681  0
C  C54  1  0.84348078  0.67885936  0.89402962  1  0  -0.02598  0  3.702308  0  0  -0.053268  0  3.954701  0  0  -0.04902  0  3.972087  0  0  -0.074504  -0.055751  0  3.942872  0
C  C55  1  0.15651786  0.32113824  0.10596958  1  0  -0.025958  0  3.702175  0  0  -0.053272  0  3.954568  0  0  -0.049006  0  3.971964  0  0  -0.074518  -0.055747  0  3.942742  0
C  C56  1  0.70132502  0.66817893  0.95973085  1  0  -0.102136  0  3.772586  0  0  -0.081497  0  4.00833  0  0  -0.093142  0  4.032616  0  0  -0.027669  -0.074058  0  3.992078  0
C  C57  1  0.29867447  0.33182334  0.04026865  1  0  -0.102233  0  3.772702  0  0  -0.08159  0  4.008441  0  0  -0.093238  0  4.032721  0  0  -0.02775  -0.074175  0  3.992188  0
C  C58  1  0.09785772  0.34065743  0.76134950  1  0  0.305853  0  3.715835  0  0  0.283213  0  3.978169  0  0  0.298759  0  3.991619  0  0  0.104504  0.272262  0  3.969163  0
C  C59  1  0.90213964  0.65934110  0.23865378  1  0  0.30596  0  3.715639  0  0  0.283263  0  3.978071  0  0  0.298809  0  3.991521  0  0  0.104503  0.272302  0  3.969063  0
C  C60  1  0.21151718  0.23031451  0.75442264  1  0  -0.178615  0  3.716225  0  0  -0.163873  0  3.961839  0  0  -0.176443  0  3.982486  0  0  -0.026963  -0.15568  0  3.948648  0
C  C61  1  0.78848095  0.76968495  0.24557783  1  0  -0.178696  0  3.71622  0  0  -0.163933  0  3.961853  0  0  -0.176502  0  3.982499  0  0  -0.027019  -0.155774  0  3.948698  0
C  C62  1  0.30615421  0.21500839  0.64801957  1  0  -0.023324  0  3.737598  0  0  -0.050392  0  3.990734  0  0  -0.046187  0  4.008838  0  0  -0.077041  -0.053233  0  3.978538  0
C  C63  1  0.69384284  0.78499106  0.35198114  1  0  -0.023254  0  3.737551  0  0  -0.050312  0  3.990682  0  0  -0.046106  0  4.008779  0  0  -0.077037  -0.053187  0  3.978541  0
C  C64  1  0.28910407  0.30373657  0.55053149  1  0  -0.095238  0  3.787785  0  0  -0.111772  0  4.043829  0  0  -0.117582  0  4.067044  0  0  -0.101915  -0.107968  0  4.027827  0
C  C65  1  0.71089217  0.69626195  0.44946963  1  0  -0.095235  0  3.787787  0  0  -0.111792  0  4.04383  0  0  -0.1176  0  4.067044  0  0  -0.101925  -0.107998  0  4.027867  0
C  C66  1  0.17380759  0.41063213  0.55826835  1  0  -0.02801  0  3.762717  0  0  -0.038785  0  4.008127  0  0  -0.036247  0  4.027419  0  0  -0.083672  -0.039991  0  3.99473  0
C  C67  1  0.82619055  0.58936734  0.44173293  1  0  -0.027898  0  3.762627  0  0  -0.038684  0  4.008066  0  0  -0.036144  0  4.027352  0  0  -0.08364  -0.039903  0  3.994687  0
C  C68  1  0.07879711  0.42959267  0.66272893  1  0  -0.212061  0  3.766409  0  0  -0.233442  0  4.023746  0  0  -0.241325  0  4.043411  0  0  -0.108947  -0.228056  0  4.009956  0
C  C69  1  0.92120155  0.57040493  0.33727187  1  0  -0.212115  0  3.76637  0  0  -0.233517  0  4.02376  0  0  -0.241403  0  4.043427  0  0  -0.108957  -0.228129  0  4.009967  0
C  C70  1  0.23146266  0.12851336  0.85333149  1  0  0.674905  0  3.869904  0  0  0.62298  0  4.163216  0  0  0.658793  0  4.15276  0  0  0.204488  0.59873  0  4.169807  0
C  C71  1  0.76853574  0.87148517  0.14666915  1  0  0.674894  0  3.869976  0  0  0.622984  0  4.163287  0  0  0.658798  0  4.152828  0  0  0.204515  0.598713  0  4.169892  0
C  C72  1  0.94730855  0.06789529  0.75019528  1  0  0.677081  0  3.884348  0  0  0.62573  0  4.179717  0  0  0.661304  0  4.169567  0  0  0.204655  0.601533  0  4.186061  0
C  C73  1  0.05269335  0.93210605  0.24980229  1  0  0.677045  0  3.884383  0  0  0.625724  0  4.179724  0  0  0.661299  0  4.169576  0  0  0.204644  0.60149  0  4.18609  0
C  C74  1  0.05045320  0.07055381  0.63642112  1  0  -0.166191  0  3.736947  0  0  -0.150059  0  3.977574  0  0  -0.161905  0  4.000175  0  0  -0.023702  -0.142474  0  3.962727  0
C  C75  1  0.94955091  0.92944756  0.36357836  1  0  -0.166222  0  3.737041  0  0  -0.150137  0  3.97774  0  0  -0.161986  0  4.000345  0  0  -0.023682  -0.142434  0  3.96287  0
C  C76  1  0.01023280  0.16333636  0.54504393  1  0  -0.042507  0  3.74744  0  0  -0.066184  0  3.997331  0  0  -0.063907  0  4.01817  0  0  -0.078102  -0.067794  0  3.983195  0
C  C77  1  0.98977209  0.83666594  0.45495354  1  0  -0.042488  0  3.747351  0  0  -0.066122  0  3.99724  0  0  -0.063851  0  4.018089  0  0  -0.077929  -0.067605  0  3.983029  0
C  C78  1  0.09711974  0.16441238  0.43501481  1  0  -0.096379  0  3.782323  0  0  -0.11445  0  4.043182  0  0  -0.119568  0  4.065314  0  0  -0.099743  -0.110802  0  4.028251  0
C  C79  1  0.90288734  0.83558994  0.56498377  1  0  -0.096412  0  3.782369  0  0  -0.114462  0  4.043199  0  0  -0.119587  0  4.065328  0  0  -0.09968  -0.110766  0  4.028219  0
C  C80  1  0.22799718  0.07249553  0.41499113  1  0  -0.012426  0  3.741614  0  0  -0.029424  0  3.995477  0  0  -0.026562  0  4.014037  0  0  -0.079375  -0.031295  0  3.982466  0
C  C81  1  0.77201017  0.92750586  0.58500761  1  0  -0.012365  0  3.741719  0  0  -0.029346  0  3.995541  0  0  -0.026496  0  4.014106  0  0  -0.079294  -0.031112  0  3.982448  0
C  C82  1  0.27246358  0.98084204  0.50467245  1  0  -0.200409  0  3.751991  0  0  -0.221407  0  4.007979  0  0  -0.228837  0  4.028286  0  0  -0.103478  -0.215831  0  3.992263  0
C  C83  1  0.72754161  0.01915933  0.49532679  1  0  -0.200552  0  3.751964  0  0  -0.221517  0  4.007961  0  0  -0.228946  0  4.028269  0  0  -0.103303  -0.215793  0  3.992171  0
C  C84  1  0.18420648  0.97947503  0.61488882  1  0  0.278496  0  3.740731  0  0  0.258903  0  4.004701  0  0  0.271887  0  4.019955  0  0  0.096546  0.249884  0  3.994303  0
C  C85  1  0.81579896  0.02052541  0.38510978  1  0  0.278639  0  3.740766  0  0  0.259018  0  4.004771  0  0  0.272005  0  4.020022  0  0  0.096584  0.249996  0  3.994413  0
C  C86  1  0.32682126  0.78224693  0.69573062  1  0  0.290071  0  3.765522  0  0  0.279265  0  4.025504  0  0  0.291655  0  4.03983  0  0  0.095706  0.270659  0  4.015827  0
C  C87  1  0.67318013  0.21775255  0.30426992  1  0  0.290064  0  3.765633  0  0  0.27922  0  4.025611  0  0  0.291607  0  4.039941  0  0  0.095675  0.270601  0  4.015957  0
C  C88  1  0.45012802  0.74881342  0.74503273  1  0  -0.170839  0  3.70281  0  0  -0.193755  0  3.9596  0  0  -0.199789  0  3.977692  0  0  -0.091121  -0.189861  0  3.94775  0
C  C89  1  0.54987658  0.25118608  0.25496468  1  0  -0.170844  0  3.702865  0  0  -0.193745  0  3.95967  0  0  -0.199774  0  3.977759  0  0  -0.091125  -0.189866  0  3.947791  0
C  C90  1  0.54317288  0.63052480  0.74415962  1  0  -0.037652  0  3.725497  0  0  -0.059289  0  3.971593  0  0  -0.05639  0  3.991213  0  0  -0.075173  -0.060994  0  3.958667  0
C  C91  1  0.45682906  0.36947282  0.25584204  1  0  -0.037649  0  3.72555  0  0  -0.059261  0  3.971624  0  0  -0.056364  0  3.991246  0  0  -0.075138  -0.060943  0  3.958666  0
C  C92  1  0.51213915  0.54488984  0.69613456  1  0  -0.102369  0  3.780905  0  0  -0.081127  0  4.015488  0  0  -0.092007  0  4.039218  0  0  -0.023524  -0.074244  0  3.999814  0
C  C93  1  0.48786039  0.45510871  0.30386903  1  0  -0.102336  0  3.780963  0  0  -0.081125  0  4.01558  0  0  -0.092003  0  4.039312  0  0  -0.023538  -0.074232  0  3.999893  0
C  C94  1  0.38768919  0.58006590  0.64711541  1  0  -0.031254  0  3.726701  0  0  -0.055672  0  3.973955  0  0  -0.052603  0  3.993431  0  0  -0.07368  -0.057501  0  3.96069  0
C  C95  1  0.61230737  0.41993170  0.35288907  1  0  -0.031164  0  3.726778  0  0  -0.055584  0  3.973993  0  0  -0.052515  0  3.993469  0  0  -0.073611  -0.057404  0  3.960709  0
C  C96  1  0.29558271  0.69881143  0.64558168  1  0  -0.182864  0  3.735447  0  0  -0.201782  0  3.986214  0  0  -0.208134  0  4.005091  0  0  -0.095927  -0.197721  0  3.97401  0
C  C97  1  0.70441383  0.30118616  0.35442201  1  0  -0.18293  0  3.735523  0  0  -0.201825  0  3.986301  0  0  -0.208174  0  4.005178  0  0  -0.095926  -0.197772  0  3.974101  0
C  C98  1  0.60720355  0.41703237  0.69730617  1  0  0.654812  0  3.811625  0  0  0.603997  0  4.110075  0  0  0.637965  0  4.100459  0  0  0.23532  0.58072  0  4.116467  0
C  C99  1  0.39279520  0.58296897  0.30269773  1  0  0.654835  0  3.811552  0  0  0.604034  0  4.11  0  0  0.638  0  4.100386  0  0  0.23536  0.580766  0  4.11639  0
O  O100  1  0.84689156  0.13899884  0.02783413  1  0  -0.904245  0  1.848291  0  0  -0.860315  0  2.059224  0  0  -0.87845  0  2.027868  0  0  -0.634506  -0.847211  0  2.081171  0
O  O101  1  0.15310767  0.86100063  0.97216689  1  0  -0.904235  0  1.848345  0  0  -0.860313  0  2.059221  0  0  -0.878437  0  2.02789  0  0  -0.63442  -0.847184  0  2.081118  0
O  O102  1  0.61120674  0.09389336  0.78439470  1  0  -0.930465  0  1.886845  0  0  -0.880834  0  2.079844  0  0  -0.90121  0  2.050087  0  0  -0.654461  -0.865998  0  2.100545  0
O  O103  1  0.38879383  0.90610519  0.21560545  1  0  -0.93049  0  1.886852  0  0  -0.880879  0  2.079755  0  0  -0.901255  0  2.049993  0  0  -0.654488  -0.866043  0  2.100458  0
O  O104  1  0.60704683  0.88713935  0.95869513  1  0  -0.810503  0  2.122654  0  0  -0.753206  0  2.387926  0  0  -0.778787  0  2.375878  0  0  -0.42683  -0.734962  0  2.39522  0
O  O105  1  0.39295155  0.11286290  0.04130301  1  0  -0.810507  0  2.122577  0  0  -0.753191  0  2.387805  0  0  -0.778768  0  2.375746  0  0  -0.426835  -0.734966  0  2.395161  0
O  O106  1  0.44900525  0.76304076  0.03067738  1  0  -0.703216  0  1.990999  0  0  -0.655513  0  2.239844  0  0  -0.679587  0  2.22964  0  0  -0.395933  -0.638321  0  2.246362  0
O  O107  1  0.55099666  0.23696059  0.96932099  1  0  -0.703184  0  1.991068  0  0  -0.655483  0  2.239913  0  0  -0.679563  0  2.229708  0  0  -0.395901  -0.638303  0  2.246437  0
O  O108  1  0.86175296  0.16870708  0.78079791  1  0  -0.696838  0  2.028675  0  0  -0.633795  0  2.265897  0  0  -0.660098  0  2.256326  0  0  -0.355511  -0.615024  0  2.271723  0
O  O109  1  0.13824623  0.83129238  0.21920072  1  0  -0.696758  0  2.028672  0  0  -0.633742  0  2.265906  0  0  -0.660046  0  2.25634  0  0  -0.355414  -0.614883  0  2.271711  0
O  O110  1  0.93854246  0.96436415  0.81783490  1  0  -0.687072  0  1.991277  0  0  -0.639675  0  2.236742  0  0  -0.662858  0  2.225548  0  0  -0.377351  -0.623402  0  2.244153  0
O  O111  1  0.06146136  0.03563815  0.18216362  1  0  -0.687095  0  1.991216  0  0  -0.639722  0  2.236701  0  0  -0.66289  0  2.225474  0  0  -0.37724  -0.62327  0  2.244049  0
O  O112  1  0.13491349  0.12673230  0.94747599  1  0  -0.703831  0  2.123728  0  0  -0.650448  0  2.370974  0  0  -0.674833  0  2.360856  0  0  -0.369427  -0.633226  0  2.377417  0
O  O113  1  0.86508491  0.87326623  0.05252465  1  0  -0.703787  0  2.123763  0  0  -0.650443  0  2.371036  0  0  -0.674828  0  2.36092  0  0  -0.369523  -0.633318  0  2.377529  0
O  O114  1  0.34877474  0.03826887  0.84610202  1  0  -0.716665  0  2.027159  0  0  -0.660203  0  2.26589  0  0  -0.685246  0  2.255371  0  0  -0.366269  -0.642343  0  2.272536  0
O  O115  1  0.65122446  0.96173059  0.15389741  1  0  -0.716677  0  2.027123  0  0  -0.660226  0  2.265862  0  0  -0.685265  0  2.255336  0  0  -0.366195  -0.642225  0  2.272457  0
O  O116  1  0.73705748  0.40152755  0.72437367  1  0  -0.554501  0  2.111616  0  0  -0.504332  0  2.342635  0  0  -0.526346  0  2.32716  0  0  -0.325038  -0.48882  0  2.352099  0
O  O117  1  0.26294307  0.59846727  0.27562737  1  0  -0.554486  0  2.111586  0  0  -0.504298  0  2.34257  0  0  -0.526309  0  2.327118  0  0  -0.325025  -0.488803  0  2.352043  0
O  O118  1  0.56863222  0.33319902  0.67442065  1  0  -0.56701  0  1.960745  0  0  -0.519821  0  2.176062  0  0  -0.541287  0  2.167915  0  0  -0.287617  -0.504994  0  2.181328  0
O  O119  1  0.43135843  0.66680413  0.32558545  1  0  -0.567  0  1.960735  0  0  -0.51984  0  2.176069  0  0  -0.541306  0  2.167923  0  0  -0.287701  -0.505061  0  2.181346  0
O  O120  1  0.23109507  0.89699609  0.70730168  1  0  -0.296045  0  2.392689  0  0  -0.222501  0  2.616455  0  0  -0.241422  0  2.618265  0  0  -0.140797  -0.208686  0  2.614792  0
O  O121  1  0.76890822  0.10300434  0.29269821  1  0  -0.296135  0  2.392757  0  0  -0.222522  0  2.61648  0  0  -0.241443  0  2.618296  0  0  -0.140804  -0.208705  0  2.614831  0
O  O122  1  0.00504446  0.35079382  0.86570051  1  0  -0.27209  0  2.430443  0  0  -0.194393  0  2.650142  0  0  -0.21502  0  2.65416  0  0  -0.128985  -0.179706  0  2.647062  0
O  O123  1  0.99495235  0.64920656  0.13430164  1  0  -0.271977  0  2.430397  0  0  -0.194288  0  2.65018  0  0  -0.214914  0  2.6542  0  0  -0.128922  -0.179606  0  2.647098  0
