# generated using pymatgen
data_Mn3H12C16(NO8)2
_symmetry_space_group_name_H-M   'P 1'
_cell_length_a   6.36737944
_cell_length_b   8.43541323
_cell_length_c   9.84854659
_cell_angle_alpha   110.17223758
_cell_angle_beta   95.80097140
_cell_angle_gamma   100.43784189
_symmetry_Int_Tables_number   1
_chemical_formula_structural   Mn3H12C16(NO8)2
_chemical_formula_sum   'Mn3 H12 C16 N2 O16'
_cell_volume   480.59106995
_cell_formula_units_Z   1
loop_
 _symmetry_equiv_pos_site_id
 _symmetry_equiv_pos_as_xyz
  1  'x, y, z'
loop_
 _atom_site_type_symbol
 _atom_site_label
 _atom_site_symmetry_multiplicity
 _atom_site_fract_x
 _atom_site_fract_y
 _atom_site_fract_z
 _atom_site_occupancy
 _atom_site_pbe_cm5_charge
 _atom_site_pbe_ddec_charge
 _atom_site_pbe_ddec_spin_density
 _atom_site_pbe_ddec_sum_bond_order
 _atom_site_pbe_magmom
Mn  Mn0  1  0.92851948  0.93806206  0.67399074  1  0.5918  0.990995  4.693457  2.161351  4.505
Mn  Mn1  1  0.07148175  0.06193778  0.32600914  1  0.591806  0.991021  4.69346  2.161294  4.505
Mn  Mn2  1  0.50000050  0.50000045  0.00000031  1  0.631235  1.145735  -4.623038  2.255993  -4.456
H  H3  1  0.70583844  0.33064470  0.21530479  1  0.121136  0.139852  0.000384  1.007368  0.0
H  H4  1  0.29416084  0.66935385  0.78469662  1  0.121132  0.139851  0.000384  1.00733  0.0
H  H5  1  0.63121670  0.29432792  0.63573409  1  0.123989  0.141377  8.8e-05  0.988744  0.0
H  H6  1  0.36878220  0.70567454  0.36426846  1  0.124003  0.141396  8.8e-05  0.988738  0.0
H  H7  1  0.70949358  0.22560436  0.92580997  1  0.29759  0.399449  -0.001103  0.927541  -0.002
H  H8  1  0.29050725  0.77439418  0.07418848  1  0.297601  0.399457  -0.001103  0.927515  -0.002
H  H9  1  0.45484270  0.15688311  0.87662112  1  0.297084  0.38593  -0.00143  0.952473  -0.002
H  H10  1  0.54515657  0.84311545  0.12337928  1  0.2971  0.385938  -0.00143  0.952456  -0.002
H  H11  1  0.00981580  0.14728219  0.97936508  1  0.303044  0.388704  0.000205  0.94371  0.001
H  H12  1  0.99018543  0.85271765  0.02063379  1  0.303073  0.388792  0.000205  0.943603  0.001
H  H13  1  0.04759575  0.25545173  0.87678805  1  0.299048  0.374019  0.001432  0.977026  0.001
H  H14  1  0.95240391  0.74454813  0.12321174  1  0.299037  0.374002  0.001432  0.977054  0.001
C  C15  1  0.78987061  0.56847787  0.40689036  1  0.116293  0.103583  0.006534  4.003292  0.006
C  C16  1  0.21012707  0.43152070  0.59310791  1  0.11632  0.10362  0.006534  4.003374  0.006
C  C17  1  0.85013152  0.68505054  0.32472691  1  0.234613  0.561343  -0.004567  4.164753  -0.005
C  C18  1  0.14986813  0.31494931  0.67527186  1  0.234609  0.56134  -0.004567  4.164729  -0.005
C  C19  1  0.78357507  0.64342752  0.79466323  1  0.22637  0.557028  -0.014689  4.198177  -0.013
C  C20  1  0.21642656  0.35657362  0.20533706  1  0.226395  0.557058  -0.014689  4.198132  -0.013
C  C21  1  0.71842583  0.38931669  0.33413496  1  -0.064595  -0.149518  -0.002605  3.895165  -0.002
C  C22  1  0.28157187  0.61068188  0.66586534  1  -0.064619  -0.149541  -0.002605  3.895098  -0.002
C  C23  1  0.67572114  0.36903109  0.56794335  1  -0.062725  -0.130213  -0.002922  3.882447  -0.002
C  C24  1  0.32427853  0.63096876  0.43205746  1  -0.06272  -0.130206  -0.002922  3.882602  -0.002
C  C25  1  0.58398447  0.09519366  0.34234740  1  0.239466  0.606158  0.019571  4.14619  0.018
C  C26  1  0.41601678  0.90480618  0.65765349  1  0.239471  0.606225  0.019572  4.146173  0.018
C  C27  1  0.66127328  0.28794614  0.41666289  1  0.011138  0.011319  0.004491  3.957339  0.003
C  C28  1  0.33872598  0.71205242  0.58333649  1  0.011151  0.011273  0.004491  3.957424  0.003
C  C29  1  0.75484581  0.54834019  0.63183438  1  0.111959  0.09372  0.003236  4.001948  0.004
C  C30  1  0.24515425  0.45166097  0.36816582  1  0.111965  0.093721  0.003236  4.001987  0.004
N  N31  1  0.81276234  0.64666778  0.55340595  1  -0.3068  -0.308915  0.026767  3.55517  0.009
N  N32  1  0.18723576  0.35333209  0.44659476  1  -0.306831  -0.308984  0.026767  3.555311  0.009
O  O33  1  0.95701679  0.83886502  0.40112280  1  -0.269894  -0.520472  0.044786  2.336425  0.025
O  O34  1  0.04298287  0.16113484  0.59887699  1  -0.269898  -0.520469  0.044785  2.336441  0.025
O  O35  1  0.79487249  0.62029698  0.18522828  1  -0.286468  -0.549413  -0.026992  2.3299  -0.01
O  O36  1  0.20512717  0.37970287  0.81477151  1  -0.286452  -0.549408  -0.026992  2.32985  -0.01
O  O37  1  0.94328127  0.15698985  0.88694339  1  -0.553065  -0.734421  0.035693  2.180001  0.025
O  O38  1  0.05671800  0.84300870  0.11305599  1  -0.553084  -0.734506  0.035695  2.179988  0.025
O  O39  1  0.40007529  0.02319628  0.35643832  1  -0.29088  -0.525078  0.040952  2.281008  0.026
O  O40  1  0.59992634  0.97680486  0.64356197  1  -0.290878  -0.52509  0.040953  2.281055  0.026
O  O41  1  0.86996861  0.80572094  0.84349463  1  -0.283692  -0.523898  0.020686  2.257808  0.011
O  O42  1  0.13003577  0.19427887  0.15650544  1  -0.283702  -0.523889  0.020687  2.257818  0.011
O  O43  1  0.56864595  0.25138031  0.95332617  1  -0.573642  -0.776635  -0.041018  2.122743  -0.023
O  O44  1  0.43135488  0.74861823  0.04667229  1  -0.573669  -0.776638  -0.041019  2.122758  -0.023
O  O45  1  0.71166069  0.01656675  0.26621065  1  -0.28913  -0.546563  0.041738  2.288918  0.028
O  O46  1  0.28833937  0.98343441  0.73379056  1  -0.289131  -0.546596  0.041739  2.2889  0.028
O  O47  1  0.72530198  0.55487644  0.87089185  1  -0.308267  -0.561222  -0.033179  2.352078  -0.013
O  O48  1  0.27469847  0.44512601  0.12910876  1  -0.308285  -0.561228  -0.033179  2.352002  -0.013
