# generated using pymatgen
data_ZnH18C18(NO2)2
_symmetry_space_group_name_H-M   'P 1'
_cell_length_a   8.04849748
_cell_length_b   8.91100300
_cell_length_c   11.49642792
_cell_angle_alpha   96.18422306
_cell_angle_beta   95.56929182
_cell_angle_gamma   100.53965411
_symmetry_Int_Tables_number   1
_chemical_formula_structural   ZnH18C18(NO2)2
_chemical_formula_sum   'Zn2 H36 C36 N4 O8'
_cell_volume   800.12740842
_cell_formula_units_Z   2
loop_
 _symmetry_equiv_pos_site_id
 _symmetry_equiv_pos_as_xyz
  1  'x, y, z'
loop_
 _atom_site_type_symbol
 _atom_site_label
 _atom_site_symmetry_multiplicity
 _atom_site_fract_x
 _atom_site_fract_y
 _atom_site_fract_z
 _atom_site_occupancy
 _atom_site_hle17_bader_spin_density
 _atom_site_hle17_ddec_charge
 _atom_site_hle17_ddec_spin_density
 _atom_site_hle17_ddec_sum_bond_order
 _atom_site_hle17_magmom
 _atom_site_hse06_10hf_bader_spin_density
 _atom_site_hse06_10hf_ddec_charge
 _atom_site_hse06_10hf_ddec_spin_density
 _atom_site_hse06_10hf_ddec_sum_bond_order
 _atom_site_hse06_10hf_magmom
 _atom_site_hse06_bader_spin_density
 _atom_site_hse06_ddec_charge
 _atom_site_hse06_ddec_spin_density
 _atom_site_hse06_ddec_sum_bond_order
 _atom_site_hse06_magmom
 _atom_site_pbe_bader_spin_density
 _atom_site_pbe_cm5_charge
 _atom_site_pbe_ddec_charge
 _atom_site_pbe_ddec_spin_density
 _atom_site_pbe_ddec_sum_bond_order
 _atom_site_pbe_magmom
Zn  Zn0  1  0.35008328  0.04126788  0.37759336  1  0  1.043014  0  1.831042  0  0  0.849653  0  2.31034  0  0  0.901812  0  2.249615  0  0  0.676206  0.812384  0  2.352394  0
Zn  Zn1  1  0.64991857  0.95873257  0.62240505  1  0  1.04298  0  1.831084  0  0  0.84964  0  2.31037  0  0  0.901795  0  2.249645  0  0  0.676201  0.812371  0  2.352426  0
H  H2  1  0.86838021  0.08639397  0.16625208  1  0  0.090043  0  0.94112  0  0  0.107174  0  0.999752  0  0  0.108844  0  0.999479  0  0  0.091191  0.105906  0  1.000195  0
H  H3  1  0.13161309  0.91360766  0.83375539  1  0  0.089872  0  0.94119  0  0  0.107017  0  0.999852  0  0  0.108686  0  0.999583  0  0  0.091096  0.105745  0  1.000299  0
H  H4  1  0.95533526  0.27163932  0.13067433  1  0  0.085442  0  0.94422  0  0  0.100735  0  1.006782  0  0  0.102128  0  1.007115  0  0  0.089109  0.099542  0  1.006997  0
H  H5  1  0.04465189  0.72836251  0.86932836  1  0  0.085343  0  0.944251  0  0  0.10067  0  1.006793  0  0  0.102065  0  1.007124  0  0  0.089106  0.099488  0  1.006993  0
H  H6  1  0.87265267  0.09098056  0.94764864  1  0  0.059248  0  0.968051  0  0  0.076796  0  1.031818  0  0  0.076807  0  1.034745  0  0  0.083529  0.076872  0  1.029706  0
H  H7  1  0.12733429  0.90901544  0.05235698  1  0  0.059273  0  0.968013  0  0  0.076769  0  1.031835  0  0  0.076778  0  1.034759  0  0  0.083512  0.076845  0  1.029722  0
H  H8  1  0.09589095  0.15418176  0.97082424  1  0  0.055752  0  0.945908  0  0  0.074411  0  1.011886  0  0  0.075429  0  1.011756  0  0  0.083527  0.073568  0  1.012321  0
H  H9  1  0.90410061  0.84581767  0.02917855  1  0  0.055874  0  0.945715  0  0  0.074485  0  1.011767  0  0  0.075503  0  1.011631  0  0  0.083547  0.073639  0  1.012204  0
H  H10  1  0.82689771  0.35401070  0.33142127  1  0  0.093711  0  0.949314  0  0  0.107859  0  1.011163  0  0  0.10926  0  1.012278  0  0  0.091271  0.106873  0  1.01045  0
H  H11  1  0.17310731  0.64598736  0.66857715  1  0  0.093715  0  0.949299  0  0  0.107856  0  1.011148  0  0  0.109258  0  1.012263  0  0  0.091267  0.10687  0  1.010436  0
H  H12  1  0.97022407  0.24961914  0.39774878  1  0  0.113643  0  0.935486  0  0  0.127716  0  0.994777  0  0  0.129861  0  0.994707  0  0  0.100707  0.126346  0  0.994803  0
H  H13  1  0.02978328  0.75038348  0.60225197  1  0  0.113657  0  0.935512  0  0  0.127742  0  0.994775  0  0  0.129887  0  0.994705  0  0  0.100732  0.126371  0  0.994805  0
H  H14  1  0.82058871  0.50043432  0.53350020  1  0  0.055976  0  0.938963  0  0  0.077008  0  0.996546  0  0  0.07709  0  0.998111  0  0  0.084615  0.076887  0  0.995518  0
H  H15  1  0.17940763  0.49956394  0.46649674  1  0  0.056049  0  0.93891  0  0  0.077053  0  0.996512  0  0  0.077133  0  0.998081  0  0  0.084626  0.076931  0  0.995483  0
H  H16  1  0.96363591  0.39328695  0.59446567  1  0  0.057777  0  0.960636  0  0  0.075032  0  1.025492  0  0  0.075641  0  1.026363  0  0  0.083653  0.074552  0  1.024986  0
H  H17  1  0.03636245  0.60671467  0.40553607  1  0  0.057788  0  0.960699  0  0  0.075068  0  1.025494  0  0  0.075675  0  1.026369  0  0  0.083664  0.074587  0  1.024985  0
H  H18  1  0.57704493  0.02576654  0.17802482  1  0  0.084688  0  0.954595  0  0  0.093411  0  1.018778  0  0  0.096034  0  1.016307  0  0  0.116054  0.09147  0  1.020476  0
H  H19  1  0.42295916  0.97423273  0.82197191  1  0  0.084762  0  0.95455  0  0  0.093457  0  1.018767  0  0  0.096081  0  1.016295  0  0  0.116044  0.091518  0  1.020466  0
H  H20  1  0.58956767  0.85875428  0.98851199  1  0  0.116762  0  0.959818  0  0  0.125206  0  1.022255  0  0  0.128292  0  1.022046  0  0  0.109271  0.123292  0  1.021766  0
H  H21  1  0.41043718  0.14123797  0.01148850  1  0  0.116716  0  0.959863  0  0  0.125154  0  1.022311  0  0  0.128242  0  1.022099  0  0  0.10924  0.123239  0  1.021823  0
H  H22  1  0.17581387  0.53039771  0.08355052  1  0  0.106321  0  0.948284  0  0  0.118582  0  1.005579  0  0  0.121989  0  1.004265  0  0  0.10776  0.11608  0  1.006517  0
H  H23  1  0.82418737  0.46960037  0.91645198  1  0  0.106331  0  0.948253  0  0  0.118604  0  1.005547  0  0  0.122007  0  1.004238  0  0  0.107778  0.116097  0  1.006504  0
H  H24  1  0.18469952  0.70861071  0.26728206  1  0  0.081221  0  0.958174  0  0  0.089545  0  1.023566  0  0  0.092137  0  1.021268  0  0  0.115891  0.087499  0  1.025403  0
H  H25  1  0.81530067  0.29139323  0.73271741  1  0  0.081198  0  0.95818  0  0  0.089553  0  1.02354  0  0  0.092126  0  1.021263  0  0  0.115909  0.087536  0  1.025346  0
H  H26  1  0.48828452  0.64330426  0.85605481  1  0  0.121433  0  0.973307  0  0  0.131327  0  1.034695  0  0  0.135152  0  1.031532  0  0  0.109582  0.128226  0  1.037635  0
H  H27  1  0.51171922  0.35669377  0.14394699  1  0  0.12145  0  0.973247  0  0  0.131328  0  1.034672  0  0  0.135145  0  1.031536  0  0  0.109578  0.128228  0  1.037607  0
H  H28  1  0.17697105  0.40878066  0.90522276  1  0  0.087412  0  0.955466  0  0  0.100484  0  1.016215  0  0  0.10322  0  1.015281  0  0  0.10224  0.098251  0  1.017394  0
H  H29  1  0.82303409  0.59121275  0.09477698  1  0  0.087437  0  0.955395  0  0  0.100515  0  1.016143  0  0  0.103262  0  1.015198  0  0  0.102228  0.098282  0  1.017322  0
H  H30  1  0.50939385  0.53215826  0.69540699  1  0  0.123345  0  0.952585  0  0  0.131797  0  1.014429  0  0  0.135433  0  1.012892  0  0  0.111918  0.129621  0  1.014548  0
H  H31  1  0.49060830  0.46784337  0.30458981  1  0  0.123387  0  0.95246  0  0  0.131836  0  1.014295  0  0  0.135473  0  1.012755  0  0  0.111925  0.129658  0  1.014414  0
H  H32  1  0.52189645  0.36594410  0.51067574  1  0  0.069104  0  0.97087  0  0  0.078863  0  1.036375  0  0  0.080392  0  1.035505  0  0  0.113948  0.07786  0  1.036789  0
H  H33  1  0.47810626  0.63405982  0.48932131  1  0  0.069138  0  0.970809  0  0  0.078839  0  1.03639  0  0  0.080368  0  1.035518  0  0  0.113885  0.077836  0  1.036805  0
H  H34  1  0.11472968  0.03785596  0.57169660  1  0  0.083903  0  0.948897  0  0  0.092065  0  1.013883  0  0  0.094361  0  1.011796  0  0  0.118852  0.090374  0  1.015232  0
H  H35  1  0.88527782  0.96214204  0.42830287  1  0  0.083959  0  0.948941  0  0  0.092125  0  1.0139  0  0  0.094422  0  1.011812  0  0  0.118868  0.090433  0  1.015251  0
H  H36  1  0.08229450  0.18579808  0.75719239  1  0  0.113418  0  0.961931  0  0  0.119408  0  1.031643  0  0  0.123092  0  1.030144  0  0  0.107764  0.11659  0  1.033101  0
H  H37  1  0.91771299  0.81419992  0.24280707  1  0  0.11344  0  0.962013  0  0  0.119516  0  1.031618  0  0  0.123202  0  1.030113  0  0  0.107812  0.116677  0  1.033095  0
C  C38  1  0.14035543  0.15686558  0.21061163  1  0  0.6829  0  3.882994  0  0  0.643219  0  4.176829  0  0  0.676102  0  4.169902  0  0  0.194884  0.620832  0  4.180493  0
C  C39  1  0.85963631  0.84313967  0.78938909  1  0  0.682924  0  3.883014  0  0  0.643194  0  4.176947  0  0  0.676078  0  4.170022  0  0  0.194862  0.620804  0  4.180616  0
C  C40  1  0.97632801  0.15302194  0.13069954  1  0  -0.261716  0  3.687325  0  0  -0.299903  0  3.937725  0  0  -0.30515  0  3.946189  0  0  -0.17272  -0.296026  0  3.931983  0
C  C41  1  0.02366159  0.84697980  0.86930593  1  0  -0.261349  0  3.687015  0  0  -0.299574  0  3.937499  0  0  -0.304828  0  3.945964  0  0  -0.172597  -0.295695  0  3.931749  0
C  C42  1  0.98815299  0.08356040  0.00446809  1  0  -0.087645  0  3.68569  0  0  -0.12684  0  3.94388  0  0  -0.127664  0  3.958227  0  0  -0.169707  -0.126281  0  3.934043  0
C  C43  1  0.01183649  0.91643559  0.99553510  1  0  -0.087811  0  3.685534  0  0  -0.126986  0  3.94382  0  0  -0.127794  0  3.958151  0  0  -0.16969  -0.126428  0  3.933983  0
C  C44  1  0.71867459  0.19359794  0.44220551  1  0  0.716976  0  3.840352  0  0  0.663749  0  4.145338  0  0  0.698847  0  4.136007  0  0  0.218134  0.640113  0  4.15002  0
C  C45  1  0.28132945  0.80640129  0.55779382  1  0  0.717037  0  3.840374  0  0  0.66374  0  4.145446  0  0  0.698839  0  4.136112  0  0  0.218093  0.640102  0  4.150131  0
C  C46  1  0.86529907  0.31049359  0.41354758  1  0  -0.274276  0  3.675316  0  0  -0.308496  0  3.923039  0  0  -0.315245  0  3.93168  0  0  -0.170517  -0.303978  0  3.916794  0
C  C47  1  0.13470400  0.68950680  0.58645265  1  0  -0.274239  0  3.675266  0  0  -0.308459  0  3.923007  0  0  -0.315207  0  3.931647  0  0  -0.170493  -0.303937  0  3.916759  0
C  C48  1  0.92584079  0.44159967  0.51421880  1  0  -0.077006  0  3.698903  0  0  -0.117384  0  3.957782  0  0  -0.11756  0  3.972021  0  0  -0.167959  -0.117026  0  3.947919  0
C  C49  1  0.07415425  0.55839856  0.48578239  1  0  -0.077285  0  3.699044  0  0  -0.117617  0  3.957874  0  0  -0.117795  0  3.972113  0  0  -0.168046  -0.117259  0  3.948009  0
C  C50  1  0.49065661  0.91524967  0.15227861  1  0  0.126173  0  3.718866  0  0  0.093894  0  3.973187  0  0  0.101308  0  3.99158  0  0  0.045022  0.088793  0  3.960384  0
C  C51  1  0.50934645  0.08475071  0.84772249  1  0  0.126018  0  3.718893  0  0  0.093734  0  3.973248  0  0  0.10115  0  3.99164  0  0  0.044983  0.088633  0  3.960446  0
C  C52  1  0.49578024  0.82341110  0.04755577  1  0  -0.167812  0  3.682124  0  0  -0.183052  0  3.927369  0  0  -0.191754  0  3.949078  0  0  -0.080249  -0.177759  0  3.912028  0
C  C53  1  0.50422281  0.17658927  0.95244620  1  0  -0.167604  0  3.682029  0  0  -0.182838  0  3.927291  0  0  -0.191536  0  3.94899  0  0  -0.080163  -0.177546  0  3.911951  0
C  C54  1  0.37904402  0.68325825  0.01676334  1  0  0.140207  0  3.796106  0  0  0.155309  0  4.024641  0  0  0.160419  0  4.047835  0  0  0.010293  0.15186  0  4.008648  0
C  C55  1  0.62096192  0.31673859  0.98323851  1  0  0.140057  0  3.79627  0  0  0.155185  0  4.024816  0  0  0.160295  0  4.048006  0  0  0.010244  0.151739  0  4.008817  0
C  C56  1  0.26526478  0.64029108  0.09851984  1  0  -0.163919  0  3.691594  0  0  -0.180253  0  3.936609  0  0  -0.188285  0  3.957621  0  0  -0.080533  -0.174217  0  3.921325  0
C  C57  1  0.73473771  0.35970698  0.90148187  1  0  -0.163935  0  3.691637  0  0  -0.180318  0  3.936703  0  0  -0.188343  0  3.95771  0  0  -0.08061  -0.174285  0  3.92142  0
C  C58  1  0.26998954  0.73820505  0.20163219  1  0  0.124048  0  3.720556  0  0  0.092471  0  3.975198  0  0  0.099413  0  3.993563  0  0  0.044181  0.088118  0  3.961992  0
C  C59  1  0.73001160  0.26179770  0.79836812  1  0  0.124053  0  3.720506  0  0  0.092467  0  3.975169  0  0  0.099421  0  3.993537  0  0  0.044164  0.088095  0  3.961955  0
C  C60  1  0.38543447  0.59379689  0.90430971  1  0  -0.093427  0  3.683924  0  0  -0.113733  0  3.932213  0  0  -0.115487  0  3.951154  0  0  -0.074245  -0.112506  0  3.919591  0
C  C61  1  0.61456447  0.40619668  0.09568786  1  0  -0.09325  0  3.68357  0  0  -0.113563  0  3.931886  0  0  -0.115316  0  3.950817  0  0  -0.074166  -0.112338  0  3.919262  0
C  C62  1  0.27968370  0.46044585  0.85764745  1  0  -0.107215  0  3.719825  0  0  -0.127458  0  3.971863  0  0  -0.131764  0  3.992392  0  0  -0.081504  -0.12481  0  3.958023  0
C  C63  1  0.72031967  0.53955572  0.14235118  1  0  -0.107262  0  3.719603  0  0  -0.127522  0  3.97166  0  0  -0.131837  0  3.992198  0  0  -0.081458  -0.124872  0  3.957817  0
C  C64  1  0.29469570  0.37373160  0.74560434  1  0  0.136727  0  3.799795  0  0  0.150837  0  4.030049  0  0  0.156706  0  4.053  0  0  0.009956  0.14707  0  4.014202  0
C  C65  1  0.70530836  0.62626764  0.25439412  1  0  0.136653  0  3.799911  0  0  0.150782  0  4.030154  0  0  0.156651  0  4.053107  0  0  0.009954  0.147015  0  4.014298  0
C  C66  1  0.41873651  0.42338248  0.67201908  1  0  -0.159731  0  3.664815  0  0  -0.174066  0  3.90847  0  0  -0.182306  0  3.930046  0  0  -0.078166  -0.168645  0  3.893189  0
C  C67  1  0.58126648  0.57662259  0.32797810  1  0  -0.159777  0  3.664722  0  0  -0.174089  0  3.90832  0  0  -0.182331  0  3.929898  0  0  -0.078194  -0.168666  0  3.893038  0
C  C68  1  0.42677790  0.33076132  0.56864438  1  0  0.123821  0  3.733855  0  0  0.092623  0  3.986794  0  0  0.099403  0  4.006159  0  0  0.041599  0.087995  0  3.974216  0
C  C69  1  0.57322411  0.66924492  0.43135370  1  0  0.123799  0  3.733766  0  0  0.092638  0  3.986689  0  0  0.099418  0  4.006054  0  0  0.04165  0.088007  0  3.974114  0
C  C70  1  0.20040900  0.14763300  0.60153926  1  0  0.148589  0  3.682359  0  0  0.117036  0  3.934105  0  0  0.12471  0  3.952028  0  0  0.0496  0.112148  0  3.921232  0
C  C71  1  0.79959589  0.85236970  0.39845957  1  0  0.148593  0  3.682295  0  0  0.117021  0  3.934109  0  0  0.124695  0  3.952032  0  0  0.049602  0.112137  0  3.921221  0
C  C72  1  0.18290054  0.23258142  0.70655758  1  0  -0.165896  0  3.677421  0  0  -0.183392  0  3.927469  0  0  -0.191354  0  3.947037  0  0  -0.081405  -0.178007  0  3.914363  0
C  C73  1  0.81710368  0.76742361  0.29344055  1  0  -0.165955  0  3.677519  0  0  -0.183524  0  3.927563  0  0  -0.191488  0  3.947126  0  0  -0.08151  -0.178118  0  3.914465  0
N  N74  1  0.37885730  0.87491181  0.22837436  1  0  -0.324511  0  3.242623  0  0  -0.248739  0  3.510508  0  0  -0.267208  0  3.527572  0  0  -0.319881  -0.235732  0  3.498433  0
N  N75  1  0.62114234  0.12508984  0.77162400  1  0  -0.324506  0  3.242609  0  0  -0.248728  0  3.510491  0  0  -0.267202  0  3.527563  0  0  -0.319851  -0.235724  0  3.49843  0
N  N76  1  0.32206337  0.19364600  0.53346431  1  0  -0.337343  0  3.257471  0  0  -0.259358  0  3.526594  0  0  -0.278243  0  3.542447  0  0  -0.321175  -0.246676  0  3.515839  0
N  N77  1  0.67794124  0.80635555  0.46653440  1  0  -0.337312  0  3.257305  0  0  -0.259339  0  3.526417  0  0  -0.278225  0  3.542271  0  0  -0.321137  -0.246657  0  3.515666  0
O  O78  1  0.12786153  0.06736248  0.29248619  1  0  -0.673408  0  2.036732  0  0  -0.599495  0  2.305977  0  0  -0.63019  0  2.293894  0  0  -0.336816  -0.577802  0  2.313399  0
O  O79  1  0.87213946  0.93264487  0.70751626  1  0  -0.673398  0  2.036766  0  0  -0.599461  0  2.30603  0  0  -0.630154  0  2.293945  0  0  -0.336761  -0.577767  0  2.313457  0
O  O80  1  0.27585623  0.24027705  0.19193451  1  0  -0.643598  0  1.895533  0  0  -0.598768  0  2.121561  0  0  -0.621059  0  2.111534  0  0  -0.340626  -0.58267  0  2.12723  0
O  O81  1  0.72413227  0.75972488  0.80806045  1  0  -0.643663  0  1.895623  0  0  -0.598813  0  2.121684  0  0  -0.621109  0  2.111659  0  0  -0.340645  -0.582712  0  2.127356  0
O  O82  1  0.58775698  0.15428325  0.36566830  1  0  -0.647944  0  2.093997  0  0  -0.579581  0  2.381655  0  0  -0.606843  0  2.364233  0  0  -0.316832  -0.560542  0  2.392007  0
O  O83  1  0.41224485  0.84571717  0.63433185  1  0  -0.647957  0  2.09405  0  0  -0.579567  0  2.381731  0  0  -0.606827  0  2.364307  0  0  -0.316834  -0.560527  0  2.392085  0
O  O84  1  0.73691547  0.14512338  0.54168542  1  0  -0.65618  0  2.117853  0  0  -0.585637  0  2.404202  0  0  -0.613706  0  2.389121  0  0  -0.318435  -0.566394  0  2.414011  0
O  O85  1  0.26309192  0.85486889  0.45831004  1  0  -0.656229  0  2.117844  0  0  -0.585646  0  2.4042  0  0  -0.613724  0  2.389126  0  0  -0.318407  -0.566399  0  2.414003  0
