# generated using pymatgen
data_Zn2PH6C8NO8
_symmetry_space_group_name_H-M   'P 1'
_cell_length_a   6.64602395
_cell_length_b   9.66095246
_cell_length_c   16.60932095
_cell_angle_alpha   89.58982715
_cell_angle_beta   90.00014002
_cell_angle_gamma   89.99998331
_symmetry_Int_Tables_number   1
_chemical_formula_structural   Zn2PH6C8NO8
_chemical_formula_sum   'Zn8 P4 H24 C32 N4 O32'
_cell_volume   1066.40603775
_cell_formula_units_Z   4
loop_
 _symmetry_equiv_pos_site_id
 _symmetry_equiv_pos_as_xyz
  1  'x, y, z'
loop_
 _atom_site_type_symbol
 _atom_site_label
 _atom_site_symmetry_multiplicity
 _atom_site_fract_x
 _atom_site_fract_y
 _atom_site_fract_z
 _atom_site_occupancy
 _atom_site_hle17_bader_spin_density
 _atom_site_hle17_ddec_charge
 _atom_site_hle17_ddec_spin_density
 _atom_site_hle17_ddec_sum_bond_order
 _atom_site_hle17_magmom
 _atom_site_hse06_10hf_bader_spin_density
 _atom_site_hse06_10hf_ddec_charge
 _atom_site_hse06_10hf_ddec_spin_density
 _atom_site_hse06_10hf_ddec_sum_bond_order
 _atom_site_hse06_10hf_magmom
 _atom_site_hse06_bader_spin_density
 _atom_site_hse06_ddec_charge
 _atom_site_hse06_ddec_spin_density
 _atom_site_hse06_ddec_sum_bond_order
 _atom_site_hse06_magmom
 _atom_site_pbe_bader_spin_density
 _atom_site_pbe_cm5_charge
 _atom_site_pbe_ddec_charge
 _atom_site_pbe_ddec_spin_density
 _atom_site_pbe_ddec_sum_bond_order
 _atom_site_pbe_magmom
Zn  Zn0  1  0.65846862  0.57965552  0.43965126  1  0  1.299052  0  1.651866  0  0  1.134995  0  2.107924  0  0  1.18015  0  2.04568  0  0  0.720283  1.102779  0  2.151382  0
Zn  Zn1  1  0.15846923  0.92034813  0.56034591  1  0  1.299044  0  1.65182  0  0  1.134961  0  2.107894  0  0  1.180116  0  2.045647  0  0  0.720238  1.102745  0  2.151349  0
Zn  Zn2  1  0.34153668  0.42034901  0.56034464  1  0  1.29902  0  1.651822  0  0  1.134969  0  2.107886  0  0  1.180126  0  2.045645  0  0  0.720238  1.102749  0  2.151343  0
Zn  Zn3  1  0.84153306  0.07965431  0.43965179  1  0  1.299037  0  1.651823  0  0  1.134957  0  2.107892  0  0  1.180111  0  2.045644  0  0  0.720262  1.102738  0  2.151347  0
Zn  Zn4  1  0.94823342  0.61126699  0.62671500  1  0  1.200471  0  1.746103  0  0  1.039666  0  2.19585  0  0  1.083583  0  2.137834  0  0  0.710987  1.008729  0  2.236034  0
Zn  Zn5  1  0.44822386  0.88873658  0.37328426  1  0  1.200471  0  1.746118  0  0  1.039649  0  2.195876  0  0  1.083556  0  2.13786  0  0  0.711001  1.00871  0  2.23606  0
Zn  Zn6  1  0.05177489  0.38873647  0.37328512  1  0  1.20047  0  1.746084  0  0  1.039644  0  2.195826  0  0  1.083549  0  2.137812  0  0  0.711018  1.008712  0  2.236011  0
Zn  Zn7  1  0.55177091  0.11126687  0.62671586  1  0  1.200486  0  1.74605  0  0  1.039701  0  2.195794  0  0  1.083617  0  2.137782  0  0  0.711019  1.008757  0  2.235978  0
P  P8  1  0.66268647  0.84527496  0.54988714  1  0  1.78277  0  4.895152  0  0  1.595092  0  5.400009  0  0  1.653583  0  5.349512  0  0  0.383799  1.554101  0  5.434594  0
P  P9  1  0.16268499  0.65472975  0.45010762  1  0  1.782824  0  4.8951  0  0  1.595243  0  5.399779  0  0  1.653763  0  5.349205  0  0  0.383818  1.554258  0  5.434386  0
P  P10  1  0.33731883  0.15472957  0.45010815  1  0  1.782875  0  4.89507  0  0  1.595262  0  5.399774  0  0  1.653784  0  5.349202  0  0  0.383766  1.554274  0  5.434381  0
P  P11  1  0.83731278  0.34527583  0.54988587  1  0  1.782662  0  4.895101  0  0  1.595038  0  5.399889  0  0  1.653547  0  5.349374  0  0  0.383713  1.554051  0  5.434485  0
H  H12  1  0.96411877  0.66266356  0.84400777  1  0  0.12214  0  0.94255  0  0  0.130957  0  1.006104  0  0  0.134583  0  1.003963  0  0  0.112224  0.128357  0  1.007757  0
H  H13  1  0.46410638  0.83733377  0.15599392  1  0  0.122065  0  0.942626  0  0  0.130889  0  1.006162  0  0  0.134511  0  1.004018  0  0  0.112209  0.128296  0  1.007817  0
H  H14  1  0.03588954  0.33733364  0.15599657  1  0  0.122083  0  0.942633  0  0  0.130915  0  1.006162  0  0  0.134536  0  1.004019  0  0  0.112215  0.128328  0  1.007805  0
H  H15  1  0.53588538  0.16266450  0.84400680  1  0  0.122093  0  0.942582  0  0  0.130922  0  1.006122  0  0  0.134543  0  1.00398  0  0  0.112228  0.128329  0  1.007765  0
H  H16  1  0.45248823  0.90444560  0.91661588  1  0  0.115933  0  0.961454  0  0  0.124249  0  1.02517  0  0  0.127795  0  1.022929  0  0  0.107999  0.121647  0  1.026928  0
H  H17  1  0.95247489  0.59554239  0.08338822  1  0  0.115907  0  0.961425  0  0  0.124221  0  1.025144  0  0  0.127771  0  1.022914  0  0  0.107968  0.121618  0  1.026901  0
H  H18  1  0.54752008  0.09554952  0.08338906  1  0  0.115911  0  0.961465  0  0  0.124201  0  1.025199  0  0  0.127749  0  1.022967  0  0  0.107984  0.121598  0  1.026956  0
H  H19  1  0.04751386  0.40444966  0.91661372  1  0  0.115941  0  0.961447  0  0  0.124279  0  1.025127  0  0  0.127829  0  1.022896  0  0  0.107999  0.121676  0  1.026884  0
H  H20  1  0.24419497  0.78623251  0.81284362  1  0  0.110935  0  0.963447  0  0  0.116785  0  1.029879  0  0  0.120674  0  1.026657  0  0  0.105908  0.113891  0  1.032456  0
H  H21  1  0.74418072  0.71376383  0.18715846  1  0  0.11084  0  0.963468  0  0  0.116738  0  1.029872  0  0  0.12063  0  1.026645  0  0  0.105869  0.113842  0  1.032451  0
H  H22  1  0.75581484  0.21377093  0.18715770  1  0  0.110929  0  0.963405  0  0  0.116766  0  1.029872  0  0  0.120658  0  1.026645  0  0  0.105867  0.113869  0  1.032454  0
H  H23  1  0.25580953  0.28623338  0.81284407  1  0  0.110881  0  0.963484  0  0  0.116787  0  1.029866  0  0  0.120679  0  1.026637  0  0  0.105887  0.113892  0  1.032444  0
H  H24  1  0.88601621  0.46064856  0.76023583  1  0  0.30205  0  0.912424  0  0  0.292923  0  0.967343  0  0  0.296889  0  0.966883  0  0  0.298522  0.290282  0  0.967556  0
H  H25  1  0.38601348  0.03934645  0.23976186  1  0  0.302006  0  0.912536  0  0  0.292912  0  0.967434  0  0  0.296877  0  0.966975  0  0  0.298479  0.29027  0  0.967648  0
H  H26  1  0.11398307  0.53934973  0.23976248  1  0  0.302007  0  0.912466  0  0  0.292896  0  0.967375  0  0  0.296861  0  0.966916  0  0  0.298497  0.290254  0  0.967587  0
H  H27  1  0.61398881  0.96064875  0.76023525  1  0  0.302007  0  0.912503  0  0  0.292912  0  0.967406  0  0  0.296878  0  0.966947  0  0  0.298496  0.290271  0  0.967618  0
H  H28  1  0.67361235  0.45720595  0.70363533  1  0  0.329898  0  0.910561  0  0  0.311869  0  0.973379  0  0  0.319389  0  0.967303  0  0  0.301146  0.306489  0  0.977817  0
H  H29  1  0.17360846  0.04279740  0.29636154  1  0  0.32984  0  0.910663  0  0  0.311791  0  0.973504  0  0  0.31931  0  0.967431  0  0  0.301105  0.30641  0  0.977938  0
H  H30  1  0.32638994  0.54280062  0.29636297  1  0  0.329875  0  0.91056  0  0  0.311839  0  0.973388  0  0  0.31936  0  0.967313  0  0  0.301115  0.30646  0  0.977823  0
H  H31  1  0.82639232  0.95720608  0.70363556  1  0  0.329865  0  0.910601  0  0  0.311857  0  0.973401  0  0  0.319379  0  0.96732  0  0  0.301126  0.306476  0  0.977835  0
H  H32  1  0.84537619  0.02030845  0.02084862  1  0  0.390055  0  0.907923  0  0  0.358592  0  0.986905  0  0  0.371718  0  0.973389  0  0  0.302425  0.349433  0  0.996194  0
H  H33  1  0.34536280  0.47968446  0.97915385  1  0  0.390079  0  0.907959  0  0  0.358519  0  0.987104  0  0  0.371642  0  0.973596  0  0  0.302414  0.349359  0  0.996393  0
H  H34  1  0.15463663  0.97968670  0.97915452  1  0  0.39013  0  0.907865  0  0  0.358485  0  0.987157  0  0  0.371605  0  0.973661  0  0  0.302406  0.349327  0  0.996444  0
H  H35  1  0.65462294  0.52031071  0.02084687  1  0  0.390009  0  0.908021  0  0  0.358498  0  0.987088  0  0  0.371624  0  0.973576  0  0  0.30239  0.349337  0  0.996377  0
C  C36  1  0.34646636  0.59413780  0.70946676  1  0  0.707917  0  3.821572  0  0  0.651478  0  4.11412  0  0  0.688204  0  4.104458  0  0  0.231101  0.626383  0  4.120187  0
C  C37  1  0.84645418  0.90586581  0.29053120  1  0  0.707965  0  3.821327  0  0  0.651441  0  4.113993  0  0  0.688168  0  4.104334  0  0  0.231076  0.626325  0  4.120091  0
C  C38  1  0.65355097  0.40585948  0.29052975  1  0  0.708085  0  3.821259  0  0  0.651591  0  4.11384  0  0  0.688315  0  4.104184  0  0  0.231229  0.626496  0  4.119911  0
C  C39  1  0.15353908  0.09413974  0.70946651  1  0  0.70813  0  3.8213  0  0  0.651647  0  4.113859  0  0  0.688372  0  4.104199  0  0  0.231214  0.626546  0  4.119939  0
C  C40  1  0.48261863  0.65481071  0.77168960  1  0  -0.141794  0  3.655561  0  0  -0.127219  0  3.894614  0  0  -0.136911  0  3.914966  0  0  -0.013872  -0.121034  0  3.8813  0
C  C41  1  0.98260608  0.84519181  0.22831090  1  0  -0.141733  0  3.655295  0  0  -0.12712  0  3.894353  0  0  -0.136809  0  3.914702  0  0  -0.013807  -0.120931  0  3.881051  0
C  C42  1  0.51738968  0.34519377  0.22831172  1  0  -0.141893  0  3.655516  0  0  -0.127223  0  3.894478  0  0  -0.136913  0  3.914827  0  0  -0.013875  -0.12104  0  3.881169  0
C  C43  1  0.01738567  0.15480956  0.77169042  1  0  -0.141821  0  3.655644  0  0  -0.127106  0  3.894531  0  0  -0.136798  0  3.914885  0  0  -0.01384  -0.120924  0  3.881224  0
C  C44  1  0.68749454  0.61709823  0.78107678  1  0  0.301275  0  3.733068  0  0  0.290557  0  3.984796  0  0  0.299833  0  4.005736  0  0  0.103786  0.28406  0  3.970648  0
C  C45  1  0.18749456  0.88289922  0.21891923  1  0  0.301196  0  3.73303  0  0  0.290437  0  3.984815  0  0  0.299715  0  4.005747  0  0  0.103677  0.283939  0  3.97067  0
C  C46  1  0.31250173  0.38290214  0.21892094  1  0  0.301333  0  3.732793  0  0  0.290562  0  3.984568  0  0  0.299841  0  4.005499  0  0  0.103769  0.284065  0  3.970425  0
C  C47  1  0.81250924  0.11709805  0.78107789  1  0  0.30132  0  3.733053  0  0  0.290559  0  3.984811  0  0  0.299838  0  4.005745  0  0  0.103783  0.28406  0  3.970664  0
C  C48  1  0.80456169  0.68680580  0.83833269  1  0  -0.164262  0  3.646805  0  0  -0.196078  0  3.902442  0  0  -0.199455  0  3.920843  0  0  -0.085222  -0.194133  0  3.890573  0
C  C49  1  0.30454784  0.81318950  0.16166945  1  0  -0.164166  0  3.646899  0  0  -0.195967  0  3.902544  0  0  -0.199332  0  3.920931  0  0  -0.085139  -0.194039  0  3.89069  0
C  C50  1  0.19544210  0.31318934  0.16167165  1  0  -0.164228  0  3.646652  0  0  -0.196058  0  3.902346  0  0  -0.199424  0  3.920731  0  0  -0.085211  -0.19413  0  3.890491  0
C  C51  1  0.69544392  0.18680669  0.83833248  1  0  -0.164232  0  3.646804  0  0  -0.19604  0  3.902437  0  0  -0.199407  0  3.92083  0  0  -0.0852  -0.194095  0  3.890573  0
C  C52  1  0.72032499  0.78965179  0.88642233  1  0  -0.049873  0  3.795144  0  0  -0.030775  0  4.036194  0  0  -0.035849  0  4.057692  0  0  -0.016728  -0.027313  0  4.021707  0
C  C53  1  0.22031088  0.71033733  0.11357853  1  0  -0.049838  0  3.794939  0  0  -0.030768  0  4.036044  0  0  -0.03584  0  4.057537  0  0  -0.016679  -0.027293  0  4.021548  0
C  C54  1  0.27967881  0.21033818  0.11358081  1  0  -0.049989  0  3.79497  0  0  -0.030895  0  4.036083  0  0  -0.035968  0  4.057573  0  0  -0.01672  -0.02742  0  4.021583  0
C  C55  1  0.77967636  0.28965369  0.88642280  1  0  -0.049897  0  3.795101  0  0  -0.030808  0  4.036172  0  0  -0.035883  0  4.057667  0  0  -0.016731  -0.027349  0  4.02169  0
C  C56  1  0.51589145  0.82402342  0.87889243  1  0  -0.102817  0  3.746152  0  0  -0.132787  0  4.006134  0  0  -0.134579  0  4.024744  0  0  -0.097108  -0.131742  0  3.993801  0
C  C57  1  0.01587289  0.67597295  0.12111244  1  0  -0.102696  0  3.746272  0  0  -0.132627  0  4.006184  0  0  -0.134432  0  4.024811  0  0  -0.097084  -0.131584  0  3.993842  0
C  C58  1  0.48411987  0.17597481  0.12111251  1  0  -0.102631  0  3.746233  0  0  -0.132534  0  4.006128  0  0  -0.134335  0  4.024748  0  0  -0.097078  -0.131491  0  3.993787  0
C  C59  1  0.98411285  0.32402631  0.87889370  1  0  -0.102743  0  3.74601  0  0  -0.132712  0  4.005987  0  0  -0.134517  0  4.024611  0  0  -0.09709  -0.131664  0  3.99365  0
C  C60  1  0.40103464  0.75772500  0.82123801  1  0  -0.051235  0  3.738328  0  0  -0.076539  0  3.995317  0  0  -0.074348  0  4.012021  0  0  -0.08392  -0.078184  0  3.984521  0
C  C61  1  0.90102334  0.74227237  0.17876181  1  0  -0.051212  0  3.73856  0  0  -0.076585  0  3.995538  0  0  -0.074394  0  4.012239  0  0  -0.083901  -0.078229  0  3.984742  0
C  C62  1  0.59897066  0.24227534  0.17876271  1  0  -0.05122  0  3.738594  0  0  -0.076564  0  3.995551  0  0  -0.074377  0  4.01226  0  0  -0.083835  -0.078207  0  3.984757  0
C  C63  1  0.09897293  0.25772798  0.82123831  1  0  -0.051279  0  3.738354  0  0  -0.076676  0  3.995312  0  0  -0.074487  0  4.012015  0  0  -0.083934  -0.07832  0  3.984517  0
C  C64  1  0.84960093  0.87271279  0.94046553  1  0  0.66342  0  3.791824  0  0  0.610751  0  4.090321  0  0  0.644892  0  4.081013  0  0  0.242576  0.587712  0  4.095632  0
C  C65  1  0.34958652  0.62728146  0.05953605  1  0  0.66338  0  3.791782  0  0  0.610596  0  4.090429  0  0  0.644736  0  4.081125  0  0  0.242454  0.587543  0  4.095757  0
C  C66  1  0.15040287  0.12728027  0.05953942  1  0  0.663501  0  3.791828  0  0  0.610692  0  4.090514  0  0  0.644833  0  4.081207  0  0  0.242543  0.587649  0  4.095826  0
C  C67  1  0.65040523  0.37271264  0.94046708  1  0  0.663401  0  3.791744  0  0  0.610692  0  4.090306  0  0  0.644835  0  4.080997  0  0  0.24257  0.587652  0  4.09562  0
N  N68  1  0.77958706  0.51843239  0.73103447  1  0  -0.671622  0  3.155906  0  0  -0.621244  0  3.395918  0  0  -0.641756  0  3.393889  0  0  -0.594738  -0.606552  0  3.396959  0
N  N69  1  0.27957832  0.98156707  0.26896524  1  0  -0.671579  0  3.155998  0  0  -0.621223  0  3.395978  0  0  -0.641737  0  3.393954  0  0  -0.594689  -0.60652  0  3.397007  0
N  N70  1  0.22041824  0.48157002  0.26896625  1  0  -0.671576  0  3.155791  0  0  -0.621205  0  3.395787  0  0  -0.64172  0  3.393761  0  0  -0.59471  -0.606511  0  3.396819  0
N  N71  1  0.72041644  0.01843121  0.73103488  1  0  -0.671561  0  3.155817  0  0  -0.621276  0  3.395855  0  0  -0.64179  0  3.393825  0  0  -0.594738  -0.606577  0  3.396886  0
O  O72  1  0.61052271  0.77555596  0.46820608  1  0  -0.951248  0  2.09467  0  0  -0.841424  0  2.40562  0  0  -0.871939  0  2.37453  0  0  -0.376119  -0.819993  0  2.426824  0
O  O73  1  0.11053074  0.72444561  0.53179346  1  0  -0.951242  0  2.09458  0  0  -0.841435  0  2.405524  0  0  -0.87195  0  2.37442  0  0  -0.376138  -0.82002  0  2.426737  0
O  O74  1  0.38947506  0.22444544  0.53179223  1  0  -0.951255  0  2.094613  0  0  -0.84146  0  2.405567  0  0  -0.871976  0  2.374466  0  0  -0.376114  -0.820031  0  2.426771  0
O  O75  1  0.88947456  0.27555785  0.46820546  1  0  -0.951202  0  2.094592  0  0  -0.841395  0  2.40556  0  0  -0.871906  0  2.374455  0  0  -0.376112  -0.819981  0  2.426778  0
O  O76  1  0.47299268  0.92607015  0.58028825  1  0  -0.957262  0  2.084592  0  0  -0.849237  0  2.396046  0  0  -0.880126  0  2.364885  0  0  -0.380622  -0.826953  0  2.416165  0
O  O77  1  0.97298744  0.57393237  0.41971164  1  0  -0.957263  0  2.084618  0  0  -0.8493  0  2.39614  0  0  -0.880157  0  2.364889  0  0  -0.3806  -0.827005  0  2.416218  0
O  O78  1  0.52701112  0.07393228  0.41971067  1  0  -0.957239  0  2.084571  0  0  -0.849272  0  2.396102  0  0  -0.880133  0  2.364859  0  0  -0.380555  -0.826984  0  2.416206  0
O  O79  1  0.02701184  0.42607005  0.58028787  1  0  -0.957207  0  2.084485  0  0  -0.849247  0  2.39601  0  0  -0.880127  0  2.364795  0  0  -0.380587  -0.82695  0  2.416094  0
O  O80  1  0.72679269  0.74233762  0.61511813  1  0  -0.894911  0  1.99943  0  0  -0.796388  0  2.28782  0  0  -0.826704  0  2.263871  0  0  -0.381932  -0.774756  0  2.303815  0
O  O81  1  0.22678174  0.75766602  0.38487911  1  0  -0.894933  0  1.999649  0  0  -0.796396  0  2.28795  0  0  -0.826717  0  2.264025  0  0  -0.381906  -0.774761  0  2.303918  0
O  O82  1  0.27321863  0.25766690  0.38487898  1  0  -0.894926  0  1.999585  0  0  -0.796375  0  2.287877  0  0  -0.826696  0  2.263948  0  0  -0.381886  -0.774741  0  2.303847  0
O  O83  1  0.77321152  0.24233849  0.61511860  1  0  -0.894836  0  1.99938  0  0  -0.796351  0  2.287779  0  0  -0.826685  0  2.263842  0  0  -0.381874  -0.7747  0  2.303742  0
O  O84  1  0.83109838  0.95531896  0.53567399  1  0  -0.964349  0  2.099278  0  0  -0.859496  0  2.411221  0  0  -0.89062  0  2.38132  0  0  -0.381143  -0.837454  0  2.431651  0
O  O85  1  0.33109402  0.54468260  0.46432154  1  0  -0.964312  0  2.099121  0  0  -0.859558  0  2.411125  0  0  -0.890686  0  2.381222  0  0  -0.381176  -0.837525  0  2.431558  0
O  O86  1  0.16890692  0.04468453  0.46432131  1  0  -0.964383  0  2.099115  0  0  -0.859577  0  2.411088  0  0  -0.890701  0  2.381179  0  0  -0.381156  -0.837543  0  2.431524  0
O  O87  1  0.66890526  0.45532090  0.53567375  1  0  -0.964387  0  2.099375  0  0  -0.859545  0  2.411315  0  0  -0.890673  0  2.381411  0  0  -0.381151  -0.837507  0  2.43175  0
O  O88  1  0.40667369  0.48741847  0.67101502  1  0  -0.64498  0  2.078676  0  0  -0.566538  0  2.342991  0  0  -0.594856  0  2.326484  0  0  -0.303335  -0.547023  0  2.354039  0
O  O89  1  0.90666792  0.01258792  0.32898268  1  0  -0.644973  0  2.078501  0  0  -0.566499  0  2.342846  0  0  -0.594817  0  2.326343  0  0  -0.303325  -0.546973  0  2.353897  0
O  O90  1  0.59333311  0.51258914  0.32898268  1  0  -0.645127  0  2.078193  0  0  -0.5667  0  2.342571  0  0  -0.59502  0  2.326066  0  0  -0.303435  -0.54719  0  2.353626  0
O  O91  1  0.09332384  0.98742177  0.67101381  1  0  -0.645092  0  2.078487  0  0  -0.566661  0  2.342855  0  0  -0.594978  0  2.326347  0  0  -0.303423  -0.547146  0  2.353914  0
O  O92  1  0.17759393  0.65388557  0.70039749  1  0  -0.636828  0  2.08515  0  0  -0.567784  0  2.359292  0  0  -0.595491  0  2.343791  0  0  -0.308185  -0.548629  0  2.369471  0
O  O93  1  0.67757731  0.84612325  0.29959910  1  0  -0.636827  0  2.085045  0  0  -0.567736  0  2.359178  0  0  -0.595445  0  2.343682  0  0  -0.308147  -0.548573  0  2.369359  0
O  O94  1  0.82242040  0.34612310  0.29959721  1  0  -0.636825  0  2.085214  0  0  -0.567727  0  2.35931  0  0  -0.595433  0  2.343817  0  0  -0.308222  -0.548573  0  2.369481  0
O  O95  1  0.32240993  0.15388332  0.70039861  1  0  -0.63687  0  2.085095  0  0  -0.567833  0  2.359271  0  0  -0.59553  0  2.34375  0  0  -0.308186  -0.548677  0  2.369457  0
O  O96  1  0.75061256  0.95092698  0.99165076  1  0  -0.534611  0  2.124372  0  0  -0.484667  0  2.347451  0  0  -0.507459  0  2.333969  0  0  -0.318019  -0.46873  0  2.356059  0
O  O97  1  0.25059938  0.54906523  0.00834953  1  0  -0.534706  0  2.124396  0  0  -0.484595  0  2.347537  0  0  -0.507399  0  2.33408  0  0  -0.31798  -0.468653  0  2.35615  0
O  O98  1  0.24939424  0.04907024  0.00835057  1  0  -0.534689  0  2.124381  0  0  -0.48456  0  2.347645  0  0  -0.507365  0  2.334194  0  0  -0.317968  -0.468624  0  2.356253  0
O  O99  1  0.74939088  0.45093201  0.99164999  1  0  -0.534579  0  2.124407  0  0  -0.484576  0  2.347542  0  0  -0.507363  0  2.334052  0  0  -0.317977  -0.468638  0  2.356149  0
O  O100  1  0.03719938  0.87140871  0.93452094  1  0  -0.560206  0  2.001438  0  0  -0.507697  0  2.218641  0  0  -0.531175  0  2.211395  0  0  -0.279843  -0.491324  0  2.22301  0
O  O101  1  0.53718291  0.62857836  0.06548155  1  0  -0.560091  0  2.001599  0  0  -0.507577  0  2.218763  0  0  -0.531059  0  2.211516  0  0  -0.279746  -0.491197  0  2.223134  0
O  O102  1  0.96280592  0.12857397  0.06548702  1  0  -0.56022  0  2.001537  0  0  -0.507683  0  2.218657  0  0  -0.531164  0  2.211407  0  0  -0.279849  -0.49131  0  2.22303  0
O  O103  1  0.46280282  0.37141060  0.93451859  1  0  -0.560109  0  2.00134  0  0  -0.507668  0  2.218575  0  0  -0.531149  0  2.211326  0  0  -0.279836  -0.491294  0  2.222945  0
