# generated using pymatgen
data_Zn2H22C23(NO6)2
_symmetry_space_group_name_H-M   'P 1'
_cell_length_a   11.31369723
_cell_length_b   13.24079450
_cell_length_c   20.15495973
_cell_angle_alpha   89.99981111
_cell_angle_beta   89.99986804
_cell_angle_gamma   89.99991356
_symmetry_Int_Tables_number   1
_chemical_formula_structural   Zn2H22C23(NO6)2
_chemical_formula_sum   'Zn8 H88 C92 N8 O48'
_cell_volume   3019.26013044
_cell_formula_units_Z   4
loop_
 _symmetry_equiv_pos_site_id
 _symmetry_equiv_pos_as_xyz
  1  'x, y, z'
loop_
 _atom_site_type_symbol
 _atom_site_label
 _atom_site_symmetry_multiplicity
 _atom_site_fract_x
 _atom_site_fract_y
 _atom_site_fract_z
 _atom_site_occupancy
 _atom_site_pbe_bader_charge
 _atom_site_pbe_bader_spin_density
 _atom_site_pbe_cm5_charge
 _atom_site_pbe_ddec_charge
 _atom_site_pbe_ddec_spin_density
 _atom_site_pbe_ddec_sum_bond_order
 _atom_site_pbe_magmom
Zn  Zn0  1  0.32170185  0.01910079  0.53407328  1  1.381082  0  0.700206  0.975237  0  2.300547  0
Zn  Zn1  1  0.17829887  0.98090393  0.03407331  1  1.381077  0  0.700206  0.975245  0  2.300511  0
Zn  Zn2  1  0.67829836  0.51909893  0.96592651  1  1.38111  0  0.700209  0.975281  0  2.300491  0
Zn  Zn3  1  0.82169994  0.48090072  0.46592694  1  1.381059  0  0.700197  0.975212  0  2.300587  0
Zn  Zn4  1  0.11226001  0.92839729  0.64238472  1  1.319256  0  0.680681  0.926809  0  2.308713  0
Zn  Zn5  1  0.38774203  0.07160235  0.14238398  1  1.319204  0  0.680658  0.926787  0  2.308782  0
Zn  Zn6  1  0.88774213  0.42839756  0.85761765  1  1.319134  0  0.680675  0.926772  0  2.308645  0
Zn  Zn7  1  0.61225927  0.57160187  0.35761568  1  1.319067  0  0.680642  0.926769  0  2.308579  0
H  H8  1  0.36071817  0.70892900  0.71739760  1  0.109992  0  0.112599  0.130125  0  1.020723  0
H  H9  1  0.13928356  0.29107782  0.21739670  1  0.110033  0  0.112602  0.130176  0  1.020726  0
H  H10  1  0.63928436  0.20892694  0.78260276  1  0.109982  0  0.112592  0.130107  0  1.020801  0
H  H11  1  0.86071205  0.79107438  0.28260545  1  0.110085  0  0.112613  0.130175  0  1.020714  0
H  H12  1  0.45190981  0.72980283  0.51064097  1  0.123406  0  0.112906  0.129377  0  0.995606  0
H  H13  1  0.04809454  0.27020276  0.01064122  1  0.123458  0  0.112955  0.129408  0  0.995564  0
H  H14  1  0.54809180  0.22980060  0.98936034  1  0.123406  0  0.112905  0.129342  0  0.995555  0
H  H15  1  0.95191348  0.77019666  0.48936197  1  0.123339  0  0.112891  0.129307  0  0.995619  0
H  H16  1  0.60144268  0.49298583  0.63012338  1  0.090667  0  0.106372  0.119318  0  1.038667  0
H  H17  1  0.89855612  0.50701625  0.13012367  1  0.090633  0  0.106376  0.119353  0  1.038732  0
H  H18  1  0.39855581  0.99298557  0.86987636  1  0.090658  0  0.106363  0.119336  0  1.03867  0
H  H19  1  0.10144441  0.00701294  0.36987762  1  0.090791  0  0.106395  0.11934  0  1.038681  0
H  H20  1  0.64666022  0.47629543  0.74214543  1  0.1014  0  0.120624  0.071684  0  0.960983  0
H  H21  1  0.85333724  0.52370458  0.24214524  1  0.101326  0  0.120657  0.07174  0  0.960925  0
H  H22  1  0.35334184  0.97629654  0.75785386  1  0.101406  0  0.120628  0.071689  0  0.960896  0
H  H23  1  0.14665884  0.02370026  0.25785403  1  0.101362  0  0.120632  0.071721  0  0.96096  0
H  H24  1  0.54302909  0.45040112  0.80811191  1  0.077431  0  0.122018  0.078193  0  0.974348  0
H  H25  1  0.95696368  0.54959932  0.30811401  1  0.077389  0  0.122001  0.078186  0  0.97433  0
H  H26  1  0.45697037  0.95040394  0.69188445  1  0.077768  0  0.122024  0.078186  0  0.974303  0
H  H27  1  0.04303059  0.04959546  0.19188619  1  0.077402  0  0.122033  0.078194  0  0.974362  0
H  H28  1  0.32983886  0.46223821  0.78822264  1  0.114063  0  0.109482  0.124018  0  1.041288  0
H  H29  1  0.17016081  0.53775995  0.28822017  1  0.114097  0  0.109456  0.123979  0  1.041368  0
H  H30  1  0.67016234  0.96223990  0.71177767  1  0.114047  0  0.109484  0.123981  0  1.041354  0
H  H31  1  0.82984055  0.03775951  0.21177559  1  0.113998  0  0.109455  0.123955  0  1.041352  0
H  H32  1  0.09369267  0.21919415  0.74062137  1  0.106032  0  0.108919  0.12421  0  1.010969  0
H  H33  1  0.40630366  0.78080651  0.24061907  1  0.106054  0  0.108885  0.124204  0  1.010989  0
H  H34  1  0.90630454  0.71919152  0.75937847  1  0.106059  0  0.108929  0.124235  0  1.010941  0
H  H35  1  0.59369462  0.28080538  0.25937865  1  0.106072  0  0.108892  0.124152  0  1.010989  0
H  H36  1  0.44792629  0.21765645  0.66199931  1  0.119053  0  0.111712  0.131902  0  0.994933  0
H  H37  1  0.05206772  0.78234385  0.16199944  1  0.119052  0  0.111717  0.131926  0  0.99491  0
H  H38  1  0.55206827  0.71765615  0.83799905  1  0.119024  0  0.111718  0.131913  0  0.994948  0
H  H39  1  0.94792879  0.28233961  0.33800224  1  0.11911  0  0.111739  0.132011  0  0.994859  0
H  H40  1  0.53971822  0.10480644  0.44797364  1  0.098241  0  0.123434  0.048009  0  1.015848  0
H  H41  1  0.96028546  0.89519405  0.94797500  1  0.098266  0  0.123393  0.047959  0  1.015832  0
H  H42  1  0.46028125  0.60480996  0.05202892  1  0.098586  0  0.123434  0.048041  0  1.0158  0
H  H43  1  0.03971497  0.39519089  0.55202397  1  0.09822  0  0.123451  0.048016  0  1.015858  0
H  H44  1  0.66726357  0.91530655  0.55341472  1  0.082036  0  0.114168  0.138503  0  0.990096  0
H  H45  1  0.83273555  0.08469666  0.05341402  1  0.082032  0  0.114202  0.138563  0  0.990082  0
H  H46  1  0.33274125  0.41530634  0.94658669  1  0.081941  0  0.11419  0.138495  0  0.990122  0
H  H47  1  0.16726042  0.58469405  0.44658363  1  0.081937  0  0.114167  0.13852  0  0.990088  0
H  H48  1  0.80219551  0.98483703  0.55855076  1  0.091898  0  0.10693  0.138047  0  1.015452  0
H  H49  1  0.69780358  0.01516617  0.05854989  1  0.091793  0  0.106924  0.138087  0  1.015468  0
H  H50  1  0.19780653  0.48483474  0.94144950  1  0.091847  0  0.106882  0.137975  0  1.01547  0
H  H51  1  0.30219251  0.51516416  0.44144692  1  0.091911  0  0.106927  0.13806  0  1.015433  0
H  H52  1  0.78279711  0.89360476  0.49428133  1  0.073038  0  0.103789  0.122208  0  1.015872  0
H  H53  1  0.71720372  0.10639777  0.99427975  1  0.072981  0  0.103778  0.122197  0  1.015968  0
H  H54  1  0.21720892  0.39360387  0.00571961  1  0.07308  0  0.103812  0.122209  0  1.015898  0
H  H55  1  0.28279280  0.60639570  0.50571686  1  0.072998  0  0.103796  0.122254  0  1.015877  0
H  H56  1  0.71240188  0.13348674  0.40545543  1  0.063719  0  0.107127  0.116998  0  1.015314  0
H  H57  1  0.78760285  0.86651472  0.90545558  1  0.063696  0  0.107155  0.11702  0  1.015403  0
H  H58  1  0.28759931  0.63348498  0.09454608  1  0.064136  0  0.10716  0.117005  0  1.015441  0
H  H59  1  0.21240028  0.36651490  0.59454295  1  0.06376  0  0.107144  0.117027  0  1.015252  0
H  H60  1  0.81030897  0.02774529  0.40388912  1  0.073628  0  0.104012  0.121466  0  1.004453  0
H  H61  1  0.68969489  0.97225466  0.90388867  1  0.073637  0  0.104006  0.121425  0  1.004449  0
H  H62  1  0.18969506  0.52774365  0.09611113  1  0.073584  0  0.104053  0.121471  0  1.004573  0
H  H63  1  0.31030452  0.47225622  0.59610864  1  0.073688  0  0.104034  0.121483  0  1.004397  0
H  H64  1  0.82971620  0.12493492  0.46428455  1  0.068868  0  0.104972  0.123571  0  0.989143  0
H  H65  1  0.67028741  0.87506625  0.96428385  1  0.068952  0  0.105028  0.123616  0  0.989094  0
H  H66  1  0.17028235  0.62493435  0.03571697  1  0.068892  0  0.105  0.12358  0  0.98905  0
H  H67  1  0.32971571  0.37506658  0.53571417  1  0.068866  0  0.105007  0.123622  0  0.989151  0
H  H68  1  0.19768061  0.15750371  0.42302263  1  0.098448  0  0.124055  0.060642  0  0.996798  0
H  H69  1  0.30231320  0.84249906  0.92302132  1  0.09852  0  0.124034  0.060693  0  0.996693  0
H  H70  1  0.80231789  0.65750289  0.07697734  1  0.098476  0  0.12405  0.060673  0  0.996725  0
H  H71  1  0.69768644  0.34249644  0.57698024  1  0.098535  0  0.124047  0.060702  0  0.996713  0
H  H72  1  0.30927651  0.25247563  0.28681330  1  0.092259  0  0.111521  0.138805  0  0.970443  0
H  H73  1  0.19072052  0.74752481  0.78681334  1  0.092211  0  0.111472  0.138706  0  0.970519  0
H  H74  1  0.69072005  0.75247426  0.21318646  1  0.092232  0  0.111478  0.138723  0  0.970513  0
H  H75  1  0.80928018  0.24752212  0.71318694  1  0.092228  0  0.111507  0.13877  0  0.97049  0
H  H76  1  0.25000658  0.36239269  0.32614646  1  0.098681  0  0.109398  0.139197  0  0.998866  0
H  H77  1  0.24999205  0.63761057  0.82614617  1  0.098755  0  0.109415  0.139244  0  0.998825  0
H  H78  1  0.74999155  0.86239144  0.17385306  1  0.098724  0  0.109425  0.139245  0  0.998833  0
H  H79  1  0.75001149  0.13760589  0.67385286  1  0.098663  0  0.109378  0.13917  0  0.998885  0
H  H80  1  0.17390688  0.24307964  0.33205238  1  0.070231  0  0.105577  0.11424  0  1.035127  0
H  H81  1  0.32608907  0.75692208  0.83205273  1  0.070321  0  0.105589  0.114302  0  1.035087  0
H  H82  1  0.82608969  0.74307757  0.16794690  1  0.070313  0  0.105572  0.114266  0  1.035096  0
H  H83  1  0.67391249  0.25691828  0.66794704  1  0.070315  0  0.105562  0.114253  0  1.035018  0
H  H84  1  0.47109857  0.29626554  0.44992139  1  0.067556  0  0.104884  0.119378  0  1.006817  0
H  H85  1  0.02889690  0.70373483  0.94992223  1  0.0675  0  0.104899  0.119326  0  1.00686  0
H  H86  1  0.52889968  0.79626520  0.05007729  1  0.067467  0  0.104906  0.119379  0  1.006842  0
H  H87  1  0.97110475  0.20373049  0.55007765  1  0.067513  0  0.104909  0.119336  0  1.006846  0
H  H88  1  0.43972162  0.38025162  0.38164333  1  0.155545  0  0.110181  0.144185  0  1.031793  0
H  H89  1  0.06027590  0.61974758  0.88164481  1  0.155535  0  0.110204  0.144136  0  1.03185  0
H  H90  1  0.56027648  0.88025241  0.11835466  1  0.155284  0  0.110206  0.144184  0  1.031784  0
H  H91  1  0.93972502  0.11974444  0.61835575  1  0.15548  0  0.11019  0.144128  0  1.031868  0
H  H92  1  0.50729207  0.26113565  0.36656524  1  0.055825  0  0.101817  0.115767  0  1.008103  0
H  H93  1  0.99270311  0.73886373  0.86656491  1  0.055792  0  0.101786  0.11564  0  1.008112  0
H  H94  1  0.49270448  0.76113721  0.13343351  1  0.055836  0  0.101801  0.115699  0  1.008135  0
H  H95  1  0.00729937  0.23885946  0.63343439  1  0.055751  0  0.101791  0.115647  0  1.008191  0
C  C96  1  0.48357739  0.59676429  0.68155982  1  0.378821  0  0.081446  0.255369  0  4.068474  0
C  C97  1  0.01642184  0.40324120  0.18155883  1  0.378941  0  0.081484  0.255412  0  4.0685  0
C  C98  1  0.51642269  0.09676221  0.81843980  1  0.37897  0  0.081455  0.25536  0  4.068454  0
C  C99  1  0.98357622  0.90323742  0.31844358  1  0.378967  0  0.081504  0.255468  0  4.068571  0
C  C100  1  0.40991352  0.68095794  0.67488797  1  -0.033331  0  -0.087355  -0.190773  0  3.921935  0
C  C101  1  0.09008574  0.31904758  0.17488856  1  -0.033312  0  -0.087354  -0.190872  0  3.921949  0
C  C102  1  0.59008994  0.18095498  0.82511196  1  -0.033447  0  -0.087369  -0.190818  0  3.921948  0
C  C103  1  0.90990982  0.81904688  0.32511403  1  -0.033483  0  -0.087333  -0.190803  0  3.921943  0
C  C104  1  0.39975512  0.72939704  0.61368462  1  0.028743  0  -0.018205  -0.022931  0  4.004563  0
C  C105  1  0.10024969  0.27060879  0.11368481  1  0.028918  0  -0.018144  -0.022709  0  4.004497  0
C  C106  1  0.60024737  0.22939526  0.88631570  1  0.028701  0  -0.018118  -0.022821  0  4.004562  0
C  C107  1  0.89975391  0.77060402  0.38631838  1  0.028714  0  -0.018212  -0.023013  0  4.004335  0
C  C108  1  0.46102083  0.69255720  0.55846447  1  -0.012772  0  -0.081808  -0.12564  0  3.949895  0
C  C109  1  0.03898333  0.30744664  0.05846515  1  -0.012722  0  -0.081906  -0.12577  0  3.950137  0
C  C110  1  0.53898085  0.19255599  0.94153544  1  -0.012716  0  -0.081848  -0.125588  0  3.950038  0
C  C111  1  0.96102286  0.80744227  0.44153647  1  -0.012333  0  -0.081763  -0.12544  0  3.949761  0
C  C112  1  0.53197824  0.60690593  0.56505743  1  -0.013335  0  -0.018875  -0.020483  0  4.000406  0
C  C113  1  0.96802525  0.39309647  0.06505589  1  -0.01334  0  -0.018944  -0.020552  0  4.000582  0
C  C114  1  0.46802447  0.10690560  0.93494415  1  -0.013325  0  -0.018948  -0.020637  0  4.000566  0
C  C115  1  0.03197814  0.89309334  0.43494604  1  -0.013796  0  -0.018987  -0.020654  0  4.000548  0
C  C116  1  0.54547949  0.55948792  0.62680803  1  0.017821  0  -0.097614  -0.220295  0  3.955249  0
C  C117  1  0.95452021  0.44051644  0.12680690  1  0.017768  0  -0.097601  -0.220328  0  3.955385  0
C  C118  1  0.45452065  0.05948716  0.87319216  1  0.017852  0  -0.097576  -0.220259  0  3.955255  0
C  C119  1  0.04547955  0.94051209  0.37319543  1  0.017728  0  -0.097665  -0.220364  0  3.95539  0
C  C120  1  0.32090992  0.81952085  0.60624770  1  1.566478  0  0.217688  0.592095  0  4.17854  0
C  C121  1  0.17909492  0.18048350  0.10624897  1  1.56613  0  0.217603  0.591932  0  4.178474  0
C  C122  1  0.67909153  0.31952045  0.89375193  1  1.566464  0  0.217706  0.592232  0  4.178498  0
C  C123  1  0.82090884  0.68047805  0.39375491  1  1.566476  0  0.217797  0.592346  0  4.178423  0
C  C124  1  0.59100067  0.56310429  0.50522304  1  1.564025  0  0.224527  0.615317  0  4.158991  0
C  C125  1  0.90900042  0.43689690  0.00522247  1  1.564072  0  0.224543  0.615334  0  4.158867  0
C  C126  1  0.40899947  0.06310222  0.99477814  1  1.563898  0  0.224526  0.615333  0  4.159007  0
C  C127  1  0.09100819  0.93689943  0.49477639  1  1.564003  0  0.224544  0.615183  0  4.158953  0
C  C128  1  0.55301796  0.46568431  0.75493838  1  0.917899  0  0.029886  0.178985  0  3.918767  0
C  C129  1  0.94697679  0.53431563  0.25494053  1  0.918408  0  0.029875  0.178923  0  3.918566  0
C  C130  1  0.44698235  0.96568461  0.74505795  1  0.917894  0  0.029916  0.179  0  3.918545  0
C  C131  1  0.05302015  0.03431300  0.24506020  1  0.918306  0  0.029846  0.178893  0  3.91871  0
C  C132  1  0.40358245  0.34386022  0.72541535  1  0.444191  0  0.078866  0.252644  0  4.05982  0
C  C133  1  0.09641395  0.65613825  0.22541421  1  0.444346  0  0.078901  0.252681  0  4.059796  0
C  C134  1  0.59641277  0.84386018  0.77458422  1  0.444257  0  0.078891  0.252777  0  4.05966  0
C  C135  1  0.90358367  0.15613815  0.27458476  1  0.444329  0  0.07879  0.252544  0  4.059848  0
C  C136  1  0.31540691  0.39059152  0.76313709  1  -0.008045  0  -0.094006  -0.216275  0  3.939634  0
C  C137  1  0.18459286  0.60940752  0.26313495  1  -0.008087  0  -0.094052  -0.216366  0  3.939842  0
C  C138  1  0.68459265  0.89059080  0.73686188  1  -0.008081  0  -0.09406  -0.216377  0  3.939676  0
C  C139  1  0.81541013  0.10940697  0.23686215  1  -0.008081  0  -0.093999  -0.216224  0  3.939661  0
C  C140  1  0.20303784  0.34632234  0.76719031  1  -0.032516  0  -0.016735  -0.004087  0  3.983467  0
C  C141  1  0.29696192  0.65367593  0.26718594  1  -0.032597  0  -0.016709  -0.003921  0  3.983355  0
C  C142  1  0.79695914  0.84632149  0.73281124  1  -0.032485  0  -0.016739  -0.003974  0  3.98324  0
C  C143  1  0.70304012  0.15367554  0.23281007  1  -0.032515  0  -0.016729  -0.004074  0  3.983377  0
C  C144  1  0.18024703  0.25421542  0.73594452  1  -0.025248  0  -0.087795  -0.139183  0  3.958418  0
C  C145  1  0.31975109  0.74578376  0.23594190  1  -0.024996  0  -0.087745  -0.139268  0  3.958566  0
C  C146  1  0.81975100  0.75421439  0.76405575  1  -0.025224  0  -0.087778  -0.139239  0  3.958453  0
C  C147  1  0.68024813  0.24578249  0.26405638  1  -0.025333  0  -0.087703  -0.139015  0  3.95833  0
C  C148  1  0.26908459  0.20832244  0.69815332  1  -0.035691  0  -0.024314  -0.032495  0  4.021374  0
C  C149  1  0.23091103  0.79167995  0.19815022  1  -0.035827  0  -0.02434  -0.032515  0  4.021539  0
C  C150  1  0.73091086  0.70832058  0.80184655  1  -0.035529  0  -0.024278  -0.032425  0  4.021523  0
C  C151  1  0.76908546  0.29167611  0.30184896  1  -0.035192  0  -0.024329  -0.032657  0  4.021547  0
C  C152  1  0.38014287  0.25365576  0.69215417  1  0.005302  0  -0.088865  -0.189884  0  3.932153  0
C  C153  1  0.11985366  0.74634514  0.19215430  1  0.005107  0  -0.08881  -0.189829  0  3.932205  0
C  C154  1  0.61985251  0.75365477  0.80784411  1  0.005262  0  -0.088858  -0.189934  0  3.932311  0
C  C155  1  0.88014467  0.24634189  0.30784697  1  0.005126  0  -0.088847  -0.189906  0  3.932213  0
C  C156  1  0.10682867  0.40137187  0.80408148  1  1.556018  0  0.202033  0.572985  0  4.21266  0
C  C157  1  0.39317005  0.59862545  0.30407859  1  1.556128  0  0.202027  0.572903  0  4.21271  0
C  C158  1  0.89317087  0.90137184  0.69591996  1  1.555997  0  0.201975  0.572832  0  4.212733  0
C  C159  1  0.60683120  0.09862613  0.19591803  1  1.556035  0  0.202068  0.573001  0  4.212791  0
C  C160  1  0.24640870  0.11208965  0.66178273  1  1.531905  0  0.221911  0.591812  0  4.180317  0
C  C161  1  0.25358442  0.88791292  0.16177841  1  1.532151  0  0.222058  0.592039  0  4.180026  0
C  C162  1  0.75358693  0.61208909  0.83821784  1  1.53146  0  0.221967  0.591889  0  4.180275  0
C  C163  1  0.74641102  0.38790666  0.33822156  1  1.531611  0  0.221992  0.592061  0  4.180122  0
C  C164  1  0.56990550  0.04554856  0.48235877  1  1.392525  0  0.180597  0.302339  0  4.083069  0
C  C165  1  0.93009538  0.95445251  0.98235954  1  1.392526  0  0.180676  0.302366  0  4.083019  0
C  C166  1  0.43009938  0.54555002  0.01764193  1  1.392066  0  0.180596  0.302224  0  4.083235  0
C  C167  1  0.06990318  0.45445024  0.51763880  1  1.392564  0  0.180602  0.302289  0  4.083147  0
C  C168  1  0.73775867  0.95079841  0.52451604  1  0.255696  0  -0.134531  -0.274538  0  3.845042  0
C  C169  1  0.76224233  0.04920420  0.02451451  1  0.255815  0  -0.134568  -0.274711  0  3.845151  0
C  C170  1  0.26224696  0.45079738  0.97548479  1  0.255661  0  -0.134537  -0.274462  0  3.845163  0
C  C171  1  0.23775547  0.54920211  0.47548221  1  0.255759  0  -0.134554  -0.274687  0  3.84501  0
C  C172  1  0.76375997  0.08129188  0.43631833  1  0.262914  0  -0.127611  -0.273682  0  3.901419  0
C  C173  1  0.73624464  0.91870943  0.93631794  1  0.26292  0  -0.127685  -0.273768  0  3.901449  0
C  C174  1  0.23624220  0.58129034  0.06368429  1  0.262486  0  -0.127734  -0.273716  0  3.901593  0
C  C175  1  0.26375752  0.41870970  0.56367899  1  0.262775  0  -0.127643  -0.273792  0  3.901342  0
C  C176  1  0.28597265  0.18855539  0.43406994  1  1.367967  0  0.17352  0.291881  0  4.088226  0
C  C177  1  0.21402200  0.81144430  0.93407130  1  1.367878  0  0.173429  0.291641  0  4.088219  0
C  C178  1  0.71402402  0.68855322  0.06592847  1  1.367855  0  0.173553  0.29194  0  4.088328  0
C  C179  1  0.78597946  0.31144465  0.56592983  1  1.368051  0  0.173459  0.291656  0  4.088137  0
C  C180  1  0.26050542  0.28021557  0.33044028  1  0.228078  0  -0.129826  -0.285838  0  3.878834  0
C  C181  1  0.23949054  0.71978841  0.83044081  1  0.228005  0  -0.129819  -0.285934  0  3.878868  0
C  C182  1  0.73949197  0.78021361  0.16955893  1  0.227855  0  -0.129846  -0.285804  0  3.878841  0
C  C183  1  0.76051109  0.21978299  0.66955903  1  0.228032  0  -0.12977  -0.285847  0  3.87877  0
C  C184  1  0.44316085  0.30134166  0.39799919  1  0.198013  0  -0.138526  -0.28352  0  3.869018  0
C  C185  1  0.05683660  0.69865746  0.89800050  1  0.19808  0  -0.138466  -0.283243  0  3.868983  0
C  C186  1  0.55683916  0.80134027  0.10199848  1  0.198375  0  -0.138512  -0.283331  0  3.869104  0
C  C187  1  0.94316683  0.19865440  0.60199988  1  0.198398  0  -0.13843  -0.283203  0  3.868828  0
N  N188  1  0.68562012  0.02716289  0.48134408  1  -1.21018  0  -0.27269  0.044262  0  3.7157  0
N  N189  1  0.81438165  0.97283819  0.98134397  1  -1.210174  0  -0.272695  0.044441  0  3.715505  0
N  N190  1  0.31438037  0.52716374  0.01865716  1  -1.209969  0  -0.27271  0.044236  0  3.715638  0
N  N191  1  0.18561600  0.47283728  0.51865433  1  -1.210003  0  -0.272699  0.044409  0  3.715506  0
N  N192  1  0.32610633  0.25628933  0.39075445  1  -1.193173  0  -0.274843  0.045505  0  3.713166  0
N  N193  1  0.17388938  0.74370832  0.89075402  1  -1.193265  0  -0.274876  0.045675  0  3.712861  0
N  N194  1  0.67389199  0.75628926  0.10924332  1  -1.193157  0  -0.2749  0.045252  0  3.713393  0
N  N195  1  0.82611309  0.24370689  0.60924577  1  -1.193499  0  -0.274963  0.045541  0  3.712569  0
O  O196  1  0.25615378  0.84311603  0.65612080  1  -1.177011  0  -0.318681  -0.55949  0  2.327222  0
O  O197  1  0.24384821  0.15688656  0.15612154  1  -1.177017  0  -0.31865  -0.559459  0  2.327175  0
O  O198  1  0.74384410  0.34311731  0.84388027  1  -1.176983  0  -0.31868  -0.559561  0  2.327433  0
O  O199  1  0.75615559  0.65688446  0.34388140  1  -1.176913  0  -0.318714  -0.559643  0  2.327391  0
O  O200  1  0.32319572  0.86546687  0.55108455  1  -1.179252  0  -0.315391  -0.561356  0  2.354612  0
O  O201  1  0.17680758  0.13453851  0.05108444  1  -1.179163  0  -0.315327  -0.561238  0  2.354429  0
O  O202  1  0.67680653  0.36546469  0.94891845  1  -1.179255  0  -0.315408  -0.56143  0  2.354425  0
O  O203  1  0.82319272  0.63453353  0.44891806  1  -1.179356  0  -0.315411  -0.561364  0  2.354569  0
O  O204  1  0.55792315  0.59735391  0.44932909  1  -1.1601  0  -0.305301  -0.540966  0  2.377472  0
O  O205  1  0.94207611  0.40264355  0.94933005  1  -1.160153  0  -0.305347  -0.540963  0  2.377446  0
O  O206  1  0.44207899  0.09735477  0.05067299  1  -1.160176  0  -0.305374  -0.541066  0  2.377395  0
O  O207  1  0.05792696  0.90264684  0.55067188  1  -1.160133  0  -0.305398  -0.541034  0  2.37737  0
O  O208  1  0.66759282  0.49353891  0.51464804  1  -1.186553  0  -0.327197  -0.592685  0  2.375708  0
O  O209  1  0.83240557  0.50646375  0.01464593  1  -1.186607  0  -0.327137  -0.592662  0  2.375596  0
O  O210  1  0.33240920  0.99353967  0.98535369  1  -1.186509  0  -0.327131  -0.592629  0  2.375973  0
O  O211  1  0.16759938  0.00646053  0.48535238  1  -1.186704  0  -0.327112  -0.592488  0  2.375824  0
O  O212  1  0.48675663  0.55520620  0.74404522  1  -1.07804  0  -0.182274  -0.233123  0  2.570724  0
O  O213  1  0.01324058  0.44479595  0.24404465  1  -1.077981  0  -0.182298  -0.233124  0  2.570604  0
O  O214  1  0.51324352  0.05520595  0.75595547  1  -1.078035  0  -0.18229  -0.233089  0  2.570661  0
O  O215  1  0.98675653  0.94479324  0.25595717  1  -1.077937  0  -0.182318  -0.233124  0  2.570686  0
O  O216  1  0.51593209  0.38219775  0.71599175  1  -1.082628  0  -0.188238  -0.250046  0  2.574299  0
O  O217  1  0.98406370  0.61780314  0.21599417  1  -1.083196  0  -0.188238  -0.25004  0  2.574286  0
O  O218  1  0.48406571  0.88219781  0.78400526  1  -1.083065  0  -0.188247  -0.250097  0  2.574323  0
O  O219  1  0.01593486  0.11780037  0.28400738  1  -1.083023  0  -0.1882  -0.250011  0  2.574254  0
O  O220  1  0.13012508  0.48100069  0.83487032  1  -1.184562  0  -0.318343  -0.559023  0  2.175364  0
O  O221  1  0.36987440  0.51899875  0.33486566  1  -1.184557  0  -0.318297  -0.558924  0  2.175626  0
O  O222  1  0.86987697  0.98099858  0.66513193  1  -1.18453  0  -0.318303  -0.558957  0  2.175634  0
O  O223  1  0.63012345  0.01899729  0.16513263  1  -1.184496  0  -0.318387  -0.559041  0  2.175576  0
O  O224  1  0.00260903  0.36051262  0.80040359  1  -1.151363  0  -0.341169  -0.56539  0  2.271574  0
O  O225  1  0.49738971  0.63948623  0.30040147  1  -1.151376  0  -0.341205  -0.565411  0  2.271442  0
O  O226  1  0.99739235  0.86051319  0.69959794  1  -1.151364  0  -0.34116  -0.565329  0  2.271494  0
O  O227  1  0.50261058  0.13948854  0.19959556  1  -1.151438  0  -0.341144  -0.565373  0  2.271587  0
O  O228  1  0.14778402  0.06770942  0.67190542  1  -1.159262  0  -0.308328  -0.545849  0  2.364442  0
O  O229  1  0.35221083  0.93229234  0.17190186  1  -1.159481  0  -0.30839  -0.545927  0  2.364296  0
O  O230  1  0.85221434  0.56771331  0.82809774  1  -1.159144  0  -0.308328  -0.545859  0  2.364375  0
O  O231  1  0.64778718  0.43228702  0.32809751  1  -1.159417  0  -0.308361  -0.545941  0  2.364369  0
O  O232  1  0.32794802  0.08107267  0.62324034  1  -1.188052  0  -0.318941  -0.572189  0  2.416947  0
O  O233  1  0.17204084  0.91893160  0.12323754  1  -1.187981  0  -0.319001  -0.572291  0  2.416922  0
O  O234  1  0.67204678  0.58107127  0.87675931  1  -1.187883  0  -0.318988  -0.572264  0  2.417005  0
O  O235  1  0.82795366  0.41892656  0.37676384  1  -1.187902  0  -0.318977  -0.572289  0  2.416886  0
O  O236  1  0.49878902  0.99955849  0.51969499  1  -1.166602  0  -0.30041  -0.449991  0  2.409977  0
O  O237  1  0.00121088  0.00044403  0.01969590  1  -1.166662  0  -0.300415  -0.450005  0  2.409996  0
O  O238  1  0.50120858  0.49956166  0.98030672  1  -1.16653  0  -0.300381  -0.449883  0  2.4103  0
O  O239  1  0.99878701  0.50044169  0.48030292  1  -1.166693  0  -0.300431  -0.449996  0  2.410071  0
O  O240  1  0.34321734  0.16026765  0.48446100  1  -1.170909  0  -0.309994  -0.48538  0  2.387122  0
O  O241  1  0.15678240  0.83973481  0.98445940  1  -1.170832  0  -0.309934  -0.485309  0  2.387523  0
O  O242  1  0.65678380  0.66026656  0.01553598  1  -1.170773  0  -0.309987  -0.485359  0  2.387329  0
O  O243  1  0.84321901  0.33973080  0.51554068  1  -1.170958  0  -0.309951  -0.485278  0  2.387466  0
