# generated using pymatgen
data_CuH8C12NClO
_symmetry_space_group_name_H-M   'P 1'
_cell_length_a   3.71036175
_cell_length_b   11.48295087
_cell_length_c   11.64407292
_cell_angle_alpha   88.05720147
_cell_angle_beta   81.25297847
_cell_angle_gamma   85.20686102
_symmetry_Int_Tables_number   1
_chemical_formula_structural   CuH8C12NClO
_chemical_formula_sum   'Cu2 H16 C24 N2 Cl2 O2'
_cell_volume   488.50830293
_cell_formula_units_Z   2
loop_
 _symmetry_equiv_pos_site_id
 _symmetry_equiv_pos_as_xyz
  1  'x, y, z'
loop_
 _atom_site_type_symbol
 _atom_site_label
 _atom_site_symmetry_multiplicity
 _atom_site_fract_x
 _atom_site_fract_y
 _atom_site_fract_z
 _atom_site_occupancy
 _atom_site_hle17_bader_spin_density
 _atom_site_hle17_ddec_charge
 _atom_site_hle17_ddec_spin_density
 _atom_site_hle17_ddec_sum_bond_order
 _atom_site_hle17_magmom
 _atom_site_hse06_10hf_bader_spin_density
 _atom_site_hse06_10hf_ddec_charge
 _atom_site_hse06_10hf_ddec_spin_density
 _atom_site_hse06_10hf_ddec_sum_bond_order
 _atom_site_hse06_10hf_magmom
 _atom_site_hse06_bader_spin_density
 _atom_site_hse06_ddec_charge
 _atom_site_hse06_ddec_spin_density
 _atom_site_hse06_ddec_sum_bond_order
 _atom_site_hse06_magmom
 _atom_site_pbe_bader_spin_density
 _atom_site_pbe_cm5_charge
 _atom_site_pbe_ddec_charge
 _atom_site_pbe_ddec_spin_density
 _atom_site_pbe_ddec_sum_bond_order
 _atom_site_pbe_magmom
Cu  Cu0  1  0.33645235  0.11085742  0.51384968  1  0  0.436319  0  1.923052  0  0  0.345558  0  2.402872  0  0  0.353632  0  2.348673  0  0  0.360634  0.342467  0  2.43809  0
Cu  Cu1  1  0.66354707  0.88914021  0.48615128  1  0  0.436299  0  1.923025  0  0  0.345512  0  2.402863  0  0  0.353653  0  2.348694  0  0  0.360657  0.34242  0  2.438178  0
H  H2  1  0.36661303  0.55404444  0.31201674  1  0  0.101441  0  0.9555  0  0  0.110304  0  1.019853  0  0  0.11396  0  1.017641  0  0  0.105753  0.107626  0  1.02157  0
H  H3  1  0.63336180  0.44595329  0.68798200  1  0  0.101505  0  0.955504  0  0  0.110393  0  1.019804  0  0  0.114047  0  1.017597  0  0  0.105781  0.107717  0  1.021521  0
H  H4  1  0.95314358  0.29132858  0.56102710  1  0  0.089282  0  1.006586  0  0  0.093308  0  1.085576  0  0  0.099509  0  1.078981  0  0  0.085621  0.088646  0  1.090425  0
H  H5  1  0.04683457  0.70866651  0.43897153  1  0  0.089243  0  1.006517  0  0  0.093246  0  1.085548  0  0  0.099467  0  1.078932  0  0  0.085622  0.088576  0  1.090427  0
H  H6  1  0.74065671  0.07042143  0.26903417  1  0  0.125837  0  0.968755  0  0  0.133128  0  1.03241  0  0  0.136897  0  1.030162  0  0  0.110801  0.130108  0  1.03459  0
H  H7  1  0.25935929  0.92957528  0.73096686  1  0  0.125817  0  0.968812  0  0  0.133108  0  1.032456  0  0  0.136877  0  1.030207  0  0  0.110812  0.130087  0  1.034639  0
H  H8  1  0.10532020  0.07510964  0.07400048  1  0  0.08957  0  0.955503  0  0  0.103733  0  1.014278  0  0  0.106254  0  1.013574  0  0  0.100617  0.101872  0  1.014873  0
H  H9  1  0.89466789  0.92488978  0.92599928  1  0  0.089566  0  0.955553  0  0  0.103742  0  1.014317  0  0  0.106264  0  1.013613  0  0  0.100627  0.101883  0  1.014911  0
H  H10  1  0.39079472  0.08124313  0.86658015  1  0  0.084881  0  0.962429  0  0  0.09563  0  1.02563  0  0  0.098185  0  1.024812  0  0  0.092631  0.093751  0  1.026306  0
H  H11  1  0.60920898  0.91875973  0.13342048  1  0  0.08495  0  0.962417  0  0  0.095657  0  1.025651  0  0  0.098212  0  1.024833  0  0  0.092674  0.093782  0  1.026325  0
H  H12  1  0.32275726  0.26080675  0.74746466  1  0  0.084864  0  0.968128  0  0  0.094825  0  1.034095  0  0  0.097112  0  1.033325  0  0  0.090113  0.092952  0  1.034977  0
H  H13  1  0.67726246  0.73919777  0.25253943  1  0  0.084896  0  0.968206  0  0  0.094857  0  1.03414  0  0  0.097151  0  1.033367  0  0  0.090173  0.092987  0  1.035032  0
H  H14  1  0.98013784  0.44075936  0.83727556  1  0  0.083302  0  0.962921  0  0  0.092215  0  1.02777  0  0  0.094805  0  1.026507  0  0  0.095698  0.090374  0  1.028769  0
H  H15  1  0.01987719  0.55924170  0.16272713  1  0  0.083401  0  0.962891  0  0  0.092322  0  1.027732  0  0  0.094913  0  1.026464  0  0  0.095725  0.090481  0  1.028727  0
H  H16  1  0.69364810  0.43570984  0.04358533  1  0  0.090113  0  0.969665  0  0  0.099669  0  1.036628  0  0  0.102365  0  1.035241  0  0  0.099646  0.097716  0  1.037685  0
H  H17  1  0.30635305  0.56429217  0.95641372  1  0  0.090147  0  0.969696  0  0  0.09971  0  1.036649  0  0  0.102406  0  1.035262  0  0  0.099658  0.09777  0  1.037692  0
C  C18  1  0.18344669  0.41140110  0.42701821  1  0  -0.02035  0  3.816126  0  0  -0.005647  0  4.053937  0  0  -0.00732  0  4.074513  0  0  -0.013409  -0.004937  0  4.040356  0
C  C19  1  0.81656241  0.58860181  0.57297614  1  0  -0.02025  0  3.816218  0  0  -0.005617  0  4.054094  0  0  -0.007291  0  4.074665  0  0  -0.013493  -0.004909  0  4.040534  0
C  C20  1  0.20233902  0.53019966  0.39362709  1  0  -0.080227  0  3.712424  0  0  -0.103888  0  3.963618  0  0  -0.10447  0  3.982232  0  0  -0.084651  -0.103411  0  3.951209  0
C  C21  1  0.79765198  0.46979890  0.60636997  1  0  -0.080446  0  3.712328  0  0  -0.104115  0  3.963546  0  0  -0.104701  0  3.982159  0  0  -0.08469  -0.10364  0  3.951145  0
C  C22  1  0.97746843  0.38281546  0.53468252  1  0  -0.078515  0  3.717037  0  0  -0.097008  0  3.964327  0  0  -0.098558  0  3.981364  0  0  -0.086131  -0.096067  0  3.95347  0
C  C23  1  0.02252025  0.61718135  0.46531642  1  0  -0.078526  0  3.717285  0  0  -0.097007  0  3.964629  0  0  -0.098578  0  3.981642  0  0  -0.086108  -0.096065  0  3.953787  0
C  C24  1  0.37671941  0.32127802  0.35293983  1  0  0.360361  0  3.683988  0  0  0.324486  0  3.959281  0  0  0.343077  0  3.967222  0  0  0.206344  0.312311  0  3.953844  0
C  C25  1  0.62327979  0.67872051  0.64705854  1  0  0.360293  0  3.684155  0  0  0.324494  0  3.959362  0  0  0.343099  0  3.967286  0  0  0.206399  0.312315  0  3.953961  0
C  C26  1  0.64641727  0.16218589  0.27369014  1  0  -0.045202  0  3.677204  0  0  -0.087286  0  3.949573  0  0  -0.087889  0  3.966243  0  0  -0.006275  -0.087337  0  3.939447  0
C  C27  1  0.35357355  0.83781353  0.72630949  1  0  -0.045198  0  3.677174  0  0  -0.08729  0  3.949569  0  0  -0.087886  0  3.966235  0  0  -0.006263  -0.087335  0  3.939456  0
C  C28  1  0.69979730  0.25005380  0.19194504  1  0  0.179714  0  3.710046  0  0  0.161256  0  3.978897  0  0  0.169123  0  3.995246  0  0  0.07927  0.155724  0  3.968245  0
C  C29  1  0.30019878  0.74994649  0.80805345  1  0  0.179772  0  3.709901  0  0  0.161273  0  3.978787  0  0  0.169144  0  3.995131  0  0  0.079263  0.155744  0  3.968132  0
C  C30  1  0.87585172  0.25506931  0.07247400  1  0  0.010226  0  3.85222  0  0  0.026739  0  4.085922  0  0  0.024815  0  4.109885  0  0  -0.016233  0.028091  0  4.069627  0
C  C31  1  0.12414418  0.74493184  0.92752619  1  0  0.010221  0  3.852222  0  0  0.026791  0  4.085877  0  0  0.024861  0  4.109839  0  0  -0.016234  0.02814  0  4.069578  0
C  C32  1  0.07460358  0.15496184  0.02175799  1  0  -0.10157  0  3.729735  0  0  -0.12073  0  3.972124  0  0  -0.122974  0  3.99354  0  0  -0.087496  -0.119036  0  3.957517  0
C  C33  1  0.92539776  0.84503930  0.97824108  1  0  -0.101586  0  3.72982  0  0  -0.12077  0  3.972178  0  0  -0.12301  0  3.993591  0  0  -0.087486  -0.119074  0  3.957567  0
C  C34  1  0.23341489  0.15807858  0.90572856  1  0  -0.061325  0  3.77069  0  0  -0.074693  0  4.020173  0  0  -0.076638  0  4.042051  0  0  -0.090871  -0.073517  0  4.005587  0
C  C35  1  0.76659679  0.84192514  0.09427080  1  0  -0.061311  0  3.77086  0  0  -0.074644  0  4.020344  0  0  -0.076586  0  4.042222  0  0  -0.090923  -0.073469  0  4.005753  0
C  C36  1  0.19822932  0.26036810  0.83840893  1  0  -0.051665  0  3.745133  0  0  -0.067401  0  3.990737  0  0  -0.068991  0  4.014177  0  0  -0.0893  -0.066389  0  3.975241  0
C  C37  1  0.80178238  0.73963561  0.16159214  1  0  -0.051789  0  3.745255  0  0  -0.067501  0  3.990847  0  0  -0.069104  0  4.014282  0  0  -0.089367  -0.0665  0  3.975354  0
C  C38  1  0.00648201  0.36019924  0.88867855  1  0  -0.079548  0  3.78867  0  0  -0.089181  0  4.038992  0  0  -0.092698  0  4.062131  0  0  -0.094787  -0.0867  0  4.023238  0
C  C39  1  0.99353806  0.63980358  0.11132128  1  0  -0.079584  0  3.788678  0  0  -0.089239  0  4.039018  0  0  -0.092756  0  4.062162  0  0  -0.09479  -0.086755  0  4.02326  0
C  C40  1  0.84595989  0.35799729  0.00481615  1  0  -0.091176  0  3.720197  0  0  -0.11728  0  3.971055  0  0  -0.118491  0  3.992071  0  0  -0.09039  -0.116325  0  3.95669  0
C  C41  1  0.15404673  0.64200470  0.99518350  1  0  -0.091277  0  3.720329  0  0  -0.117406  0  3.971194  0  0  -0.118615  0  3.992209  0  0  -0.090423  -0.116457  0  3.956822  0
N  N42  1  0.44315847  0.20770475  0.37426646  1  0  -0.359435  0  3.360252  0  0  -0.297083  0  3.676847  0  0  -0.30812  0  3.68033  0  0  -0.382407  -0.290463  0  3.674245  0
N  N43  1  0.55683844  0.79229200  0.62573637  1  0  -0.359415  0  3.360415  0  0  -0.297039  0  3.676936  0  0  -0.308109  0  3.680463  0  0  -0.382414  -0.290431  0  3.674424  0
Cl  Cl44  1  0.20790961  0.92100992  0.37345832  1  0  -0.517276  0  1.439313  0  0  -0.444099  0  1.831183  0  0  -0.460116  0  1.791376  0  0  -0.276447  -0.432347  0  1.857759  0
Cl  Cl45  1  0.79208962  0.07898858  0.62654349  1  0  -0.517325  0  1.439312  0  0  -0.444154  0  1.831173  0  0  -0.460148  0  1.791331  0  0  -0.276469  -0.432405  0  1.857671  0
O  O46  1  0.52785710  0.35172807  0.24238197  1  0  -0.249517  0  2.332381  0  0  -0.176429  0  2.558342  0  0  -0.193378  0  2.562469  0  0  -0.108707  -0.164981  0  2.555354  0
O  O47  1  0.47213375  0.64827133  0.75761937  1  0  -0.249508  0  2.332309  0  0  -0.176446  0  2.558288  0  0  -0.193399  0  2.562405  0  0  -0.108757  -0.164991  0  2.555311  0
