# generated using pymatgen
data_ZnH13C15NO7
_symmetry_space_group_name_H-M   'P 1'
_cell_length_a   7.94282421
_cell_length_b   10.35712818
_cell_length_c   9.72022933
_cell_angle_alpha   105.53225662
_cell_angle_beta   89.02038595
_cell_angle_gamma   79.24747679
_symmetry_Int_Tables_number   1
_chemical_formula_structural   ZnH13C15NO7
_chemical_formula_sum   'Zn2 H26 C30 N2 O14'
_cell_volume   755.00174410
_cell_formula_units_Z   2
loop_
 _symmetry_equiv_pos_site_id
 _symmetry_equiv_pos_as_xyz
  1  'x, y, z'
loop_
 _atom_site_type_symbol
 _atom_site_label
 _atom_site_symmetry_multiplicity
 _atom_site_fract_x
 _atom_site_fract_y
 _atom_site_fract_z
 _atom_site_occupancy
 _atom_site_hle17_bader_spin_density
 _atom_site_hle17_ddec_charge
 _atom_site_hle17_ddec_spin_density
 _atom_site_hle17_ddec_sum_bond_order
 _atom_site_hle17_magmom
 _atom_site_hse06_10hf_bader_spin_density
 _atom_site_hse06_10hf_ddec_charge
 _atom_site_hse06_10hf_ddec_spin_density
 _atom_site_hse06_10hf_ddec_sum_bond_order
 _atom_site_hse06_10hf_magmom
 _atom_site_hse06_bader_spin_density
 _atom_site_hse06_ddec_charge
 _atom_site_hse06_ddec_spin_density
 _atom_site_hse06_ddec_sum_bond_order
 _atom_site_hse06_magmom
 _atom_site_pbe_bader_spin_density
 _atom_site_pbe_cm5_charge
 _atom_site_pbe_ddec_charge
 _atom_site_pbe_ddec_spin_density
 _atom_site_pbe_ddec_sum_bond_order
 _atom_site_pbe_magmom
Zn  Zn0  1  0.74476704  0.47380937  0.61046870  1  0  1.162036  0  1.646533  0  0  0.995307  0  2.096641  0  0  1.046086  0  2.033482  0  0  0.692307  0.955411  0  2.143888  0
Zn  Zn1  1  0.25523439  0.52619011  0.38952637  1  0  1.162114  0  1.646538  0  0  0.995326  0  2.096618  0  0  1.046114  0  2.03346  0  0  0.692331  0.955426  0  2.143866  0
H  H2  1  0.35591400  0.85688380  0.74173420  1  0  0.100517  0  0.98075  0  0  0.109086  0  1.048248  0  0  0.112161  0  1.046428  0  0  0.105372  0.106656  0  1.050059  0
H  H3  1  0.64408236  0.14310298  0.25825743  1  0  0.100512  0  0.980853  0  0  0.109107  0  1.048315  0  0  0.112167  0  1.046514  0  0  0.105376  0.106675  0  1.050125  0
H  H4  1  0.37813062  0.26831751  0.74100662  1  0  0.126909  0  0.934239  0  0  0.135319  0  0.994752  0  0  0.139335  0  0.99145  0  0  0.115083  0.132397  0  0.997222  0
H  H5  1  0.62186730  0.73167799  0.25899028  1  0  0.126868  0  0.934294  0  0  0.135264  0  0.994813  0  0  0.13928  0  0.991515  0  0  0.115054  0.13234  0  0.99729  0
H  H6  1  0.80907414  0.94056223  0.56123558  1  0  0.119507  0  0.938559  0  0  0.125014  0  1.006979  0  0  0.129792  0  1.00235  0  0  0.107798  0.121572  0  1.010453  0
H  H7  1  0.19092124  0.05944138  0.43876273  1  0  0.119473  0  0.938643  0  0  0.124977  0  1.007056  0  0  0.129751  0  1.002431  0  0  0.10779  0.121537  0  1.010523  0
H  H8  1  0.91166356  0.02068625  0.89668512  1  0  0.080051  0  0.965795  0  0  0.091332  0  1.02893  0  0  0.094062  0  1.027698  0  0  0.097698  0.089396  0  1.029761  0
H  H9  1  0.08832643  0.97932204  0.10330293  1  0  0.07999  0  0.965782  0  0  0.091297  0  1.028905  0  0  0.094026  0  1.027672  0  0  0.097663  0.089361  0  1.029735  0
H  H10  1  0.60550678  0.05987616  0.97248201  1  0  0.084272  0  0.956978  0  0  0.096439  0  1.015437  0  0  0.098605  0  1.015901  0  0  0.096879  0.094921  0  1.015191  0
H  H11  1  0.39447918  0.94014256  0.02750168  1  0  0.084262  0  0.956877  0  0  0.096365  0  1.015401  0  0  0.098519  0  1.015899  0  0  0.096807  0.094852  0  1.015156  0
H  H12  1  0.43793262  0.29614517  0.07345438  1  0  0.101681  0  0.972311  0  0  0.111526  0  1.033061  0  0  0.115068  0  1.030347  0  0  0.100462  0.109051  0  1.035064  0
H  H13  1  0.56206313  0.70387528  0.92654114  1  0  0.101609  0  0.972442  0  0  0.11148  0  1.033158  0  0  0.115021  0  1.030446  0  0  0.10044  0.109003  0  1.035164  0
H  H14  1  0.58430459  0.49459178  0.11141576  1  0  0.099272  0  0.955139  0  0  0.109514  0  1.015054  0  0  0.112402  0  1.014204  0  0  0.102219  0.107534  0  1.015594  0
H  H15  1  0.41569906  0.50541998  0.88858921  1  0  0.099193  0  0.955371  0  0  0.109519  0  1.015177  0  0  0.112407  0  1.014325  0  0  0.102221  0.107539  0  1.015717  0
H  H16  1  0.89250088  0.45670726  0.03235425  1  0  0.105123  0  0.975349  0  0  0.11058  0  1.044679  0  0  0.11426  0  1.041766  0  0  0.103444  0.107989  0  1.046583  0
H  H17  1  0.10750591  0.54329179  0.96766211  1  0  0.105138  0  0.975356  0  0  0.110545  0  1.044702  0  0  0.114221  0  1.041798  0  0  0.103452  0.107967  0  1.0466  0
H  H18  1  0.02997791  0.54473303  0.68386648  1  0  0.44188  0  0.82118  0  0  0.414518  0  0.890711  0  0  0.423757  0  0.878994  0  0  0.311909  0.407741  0  0.898102  0
H  H19  1  0.97002771  0.45526414  0.31611536  1  0  0.441924  0  0.821141  0  0  0.41453  0  0.890698  0  0  0.42377  0  0.878968  0  0  0.311952  0.407753  0  0.898088  0
H  H20  1  0.06479568  0.39297361  0.58957756  1  0  0.443083  0  0.855781  0  0  0.410906  0  0.920573  0  0  0.421709  0  0.90511  0  0  0.300933  0.403158  0  0.931623  0
H  H21  1  0.93520371  0.60702064  0.41040757  1  0  0.442971  0  0.855944  0  0  0.410762  0  0.920791  0  0  0.421567  0  0.905323  0  0  0.300815  0.403015  0  0.931841  0
H  H22  1  0.67435799  0.36341820  0.35102376  1  0  0.433096  0  0.835443  0  0  0.405009  0  0.908229  0  0  0.414492  0  0.895441  0  0  0.307089  0.398085  0  0.915943  0
H  H23  1  0.32563969  0.63657859  0.64898481  1  0  0.433119  0  0.835327  0  0  0.405048  0  0.908097  0  0  0.414533  0  0.895364  0  0  0.307093  0.398123  0  0.915807  0
H  H24  1  0.81944118  0.27709525  0.42029999  1  0  0.418752  0  0.886068  0  0  0.386191  0  0.957313  0  0  0.398246  0  0.939951  0  0  0.28847  0.37765  0  0.969574  0
H  H25  1  0.18055664  0.72290029  0.57970630  1  0  0.418794  0  0.886094  0  0  0.386207  0  0.957315  0  0  0.398264  0  0.939948  0  0  0.288494  0.37766  0  0.969578  0
H  H26  1  0.09767342  0.03836159  0.76414644  1  0  0.299481  0  0.879707  0  0  0.289846  0  0.931159  0  0  0.296351  0  0.92656  0  0  0.322546  0.285355  0  0.934244  0
H  H27  1  0.90231710  0.96165153  0.23584851  1  0  0.299551  0  0.879571  0  0  0.28987  0  0.931081  0  0  0.296376  0  0.926476  0  0  0.322529  0.285378  0  0.934165  0
C  C28  1  0.67438508  0.73624180  0.61230835  1  0  0.662946  0  3.880118  0  0  0.612835  0  4.163689  0  0  0.647639  0  4.156901  0  0  0.214148  0.588685  0  4.168124  0
C  C29  1  0.32560554  0.26375493  0.38768421  1  0  0.662947  0  3.880408  0  0  0.612805  0  4.164046  0  0  0.647581  0  4.157248  0  0  0.214154  0.588653  0  4.168481  0
C  C30  1  0.59124487  0.88314783  0.64868717  1  0  -0.072115  0  3.793668  0  0  -0.04441  0  4.028494  0  0  -0.055335  0  4.053862  0  0  -0.022288  -0.037416  0  4.012454  0
C  C31  1  0.40874933  0.11685043  0.35131777  1  0  -0.072028  0  3.79362  0  0  -0.044446  0  4.028608  0  0  -0.055274  0  4.053843  0  0  -0.022267  -0.037461  0  4.01258  0
C  C32  1  0.42488890  0.92876734  0.71416417  1  0  -0.138703  0  3.701425  0  0  -0.177132  0  3.957878  0  0  -0.176024  0  3.976186  0  0  -0.080892  -0.177336  0  3.946108  0
C  C33  1  0.57510568  0.07123412  0.28584223  1  0  -0.138813  0  3.701512  0  0  -0.177229  0  3.958044  0  0  -0.176142  0  3.976336  0  0  -0.080993  -0.177428  0  3.946274  0
C  C34  1  0.34659515  0.06678532  0.74587504  1  0  0.240565  0  3.792664  0  0  0.238709  0  4.047781  0  0  0.243083  0  4.068332  0  0  0.095985  0.235458  0  4.033802  0
C  C35  1  0.65340412  0.93321306  0.25412007  1  0  0.240671  0  3.792546  0  0  0.238767  0  4.04769  0  0  0.243142  0  4.068246  0  0  0.096002  0.235511  0  4.033712  0
C  C36  1  0.43721406  0.16056051  0.71571189  1  0  -0.109107  0  3.633991  0  0  -0.146482  0  3.884668  0  0  -0.144864  0  3.900955  0  0  -0.06553  -0.146965  0  3.874037  0
C  C37  1  0.56278966  0.83943896  0.28429129  1  0  -0.109065  0  3.634136  0  0  -0.146364  0  3.884804  0  0  -0.144745  0  3.901086  0  0  -0.0655  -0.146851  0  3.874178  0
C  C38  1  0.60369447  0.11463495  0.64919825  1  0  -0.060751  0  3.773203  0  0  -0.032073  0  4.004204  0  0  -0.042235  0  4.029693  0  0  -0.015258  -0.025989  0  3.988606  0
C  C39  1  0.39630997  0.88536944  0.35080349  1  0  -0.060953  0  3.773483  0  0  -0.032357  0  4.004555  0  0  -0.04252  0  4.030047  0  0  -0.015215  -0.02626  0  3.988934  0
C  C40  1  0.68065990  0.97630428  0.61474656  1  0  -0.064788  0  3.686017  0  0  -0.107354  0  3.940049  0  0  -0.104337  0  3.959076  0  0  -0.073473  -0.109568  0  3.928605  0
C  C41  1  0.31933730  0.02369600  0.38525735  1  0  -0.064729  0  3.686234  0  0  -0.107208  0  3.940292  0  0  -0.104218  0  3.959293  0  0  -0.073502  -0.109417  0  3.92884  0
C  C42  1  0.10671214  0.22196666  0.90991664  1  0  0.544719  0  3.851907  0  0  0.50069  0  4.135067  0  0  0.530187  0  4.133918  0  0  0.240152  0.480803  0  4.135231  0
C  C43  1  0.89329580  0.77801974  0.09008529  1  0  0.544569  0  3.851612  0  0  0.500472  0  4.134904  0  0  0.529966  0  4.133755  0  0  0.239951  0.480583  0  4.13507  0
C  C44  1  0.92280271  0.23709566  0.95700031  1  0  -0.077495  0  3.806055  0  0  -0.053446  0  4.037844  0  0  -0.061449  0  4.062713  0  0  -0.025597  -0.048391  0  4.02088  0
C  C45  1  0.07720689  0.76290231  0.04300522  1  0  -0.077634  0  3.806259  0  0  -0.053664  0  4.038143  0  0  -0.061664  0  4.063011  0  0  -0.025666  -0.048613  0  4.021191  0
C  C46  1  0.84133996  0.12538667  0.94191607  1  0  -0.104788  0  3.78521  0  0  -0.131238  0  4.039616  0  0  -0.13171  0  4.061796  0  0  -0.096748  -0.130325  0  4.024339  0
C  C47  1  0.15866148  0.87461568  0.05808670  1  0  -0.104623  0  3.785077  0  0  -0.131057  0  4.039445  0  0  -0.131528  0  4.061624  0  0  -0.096594  -0.130142  0  4.02417  0
C  C48  1  0.66844735  0.14702273  0.98662849  1  0  -0.074563  0  3.793334  0  0  -0.084765  0  4.046459  0  0  -0.088754  0  4.069969  0  0  -0.097084  -0.082484  0  4.031412  0
C  C49  1  0.33155577  0.85298421  0.01336958  1  0  -0.074564  0  3.793057  0  0  -0.084706  0  4.046197  0  0  -0.088702  0  4.069708  0  0  -0.097051  -0.082435  0  4.031159  0
C  C50  1  0.57495078  0.27961644  0.04577976  1  0  -0.051724  0  3.730559  0  0  -0.071994  0  3.984199  0  0  -0.071405  0  4.002586  0  0  -0.0883  -0.072261  0  3.972363  0
C  C51  1  0.42505131  0.72038660  0.95421993  1  0  -0.051732  0  3.730554  0  0  -0.072008  0  3.98417  0  0  -0.071421  0  4.002561  0  0  -0.088317  -0.072272  0  3.972333  0
C  C52  1  0.65657846  0.39090634  0.06439802  1  0  -0.072066  0  3.735578  0  0  -0.08073  0  3.983013  0  0  -0.084046  0  4.003653  0  0  -0.09034  -0.078401  0  3.968658  0
C  C53  1  0.34342720  0.60909536  0.93560634  1  0  -0.071922  0  3.735588  0  0  -0.080667  0  3.982983  0  0  -0.08398  0  4.003616  0  0  -0.090277  -0.078336  0  3.96863  0
C  C54  1  0.82974416  0.36987093  0.02052880  1  0  -0.062587  0  3.710481  0  0  -0.087055  0  3.954652  0  0  -0.08624  0  3.973991  0  0  -0.083228  -0.086759  0  3.940761  0
C  C55  1  0.17025686  0.63013247  0.97948353  1  0  -0.062626  0  3.710698  0  0  -0.08698  0  3.954871  0  0  -0.086164  0  3.97421  0  0  -0.08328  -0.086686  0  3.940971  0
C  C56  1  0.69563037  0.21376855  0.60820041  1  0  0.652042  0  3.882418  0  0  0.601461  0  4.172398  0  0  0.635696  0  4.167152  0  0  0.211211  0.577933  0  4.175499  0
C  C57  1  0.30437050  0.78623036  0.39179880  1  0  0.652206  0  3.882234  0  0  0.601619  0  4.172258  0  0  0.635853  0  4.167012  0  0  0.211216  0.578087  0  4.175366  0
N  N58  1  0.17482180  0.10562501  0.80327643  1  0  -0.452646  0  3.3357  0  0  -0.401543  0  3.573882  0  0  -0.422463  0  3.582074  0  0  -0.402734  -0.387087  0  3.567688  0
N  N59  1  0.82518304  0.89437848  0.19672618  1  0  -0.452743  0  3.335223  0  0  -0.401542  0  3.573408  0  0  -0.422461  0  3.581598  0  0  -0.402668  -0.387073  0  3.567206  0
O  O60  1  0.58632396  0.65046469  0.64012885  1  0  -0.67819  0  2.046595  0  0  -0.599464  0  2.315996  0  0  -0.629814  0  2.299687  0  0  -0.321463  -0.576869  0  2.328058  0
O  O61  1  0.41368182  0.34953303  0.35987597  1  0  -0.678339  0  2.046623  0  0  -0.599442  0  2.315867  0  0  -0.629808  0  2.299596  0  0  -0.321461  -0.576844  0  2.327924  0
O  O62  1  0.82708008  0.69811683  0.55900719  1  0  -0.645227  0  2.008649  0  0  -0.583345  0  2.229864  0  0  -0.608661  0  2.218931  0  0  -0.312151  -0.564963  0  2.236592  0
O  O63  1  0.17290928  0.30186456  0.44097493  1  0  -0.645201  0  2.008928  0  0  -0.583345  0  2.230164  0  0  -0.608659  0  2.219237  0  0  -0.312149  -0.564979  0  2.236918  0
O  O64  1  0.63476892  0.34178527  0.67030122  1  0  -0.655693  0  2.026539  0  0  -0.583291  0  2.294816  0  0  -0.614199  0  2.281224  0  0  -0.324693  -0.560283  0  2.304786  0
O  O65  1  0.36525121  0.65821524  0.32971411  1  0  -0.655768  0  2.026628  0  0  -0.583327  0  2.294879  0  0  -0.614234  0  2.281287  0  0  -0.324725  -0.56032  0  2.304857  0
O  O66  1  0.82063206  0.16989257  0.51434902  1  0  -0.617084  0  1.934504  0  0  -0.563856  0  2.149927  0  0  -0.587947  0  2.139712  0  0  -0.318477  -0.546394  0  2.156096  0
O  O67  1  0.17936875  0.83010212  0.48564853  1  0  -0.617179  0  1.934406  0  0  -0.563928  0  2.149827  0  0  -0.588019  0  2.139609  0  0  -0.318515  -0.546476  0  2.156015  0
O  O68  1  0.19220177  0.30904978  0.96395252  1  0  -0.536096  0  1.936541  0  0  -0.491832  0  2.150672  0  0  -0.513157  0  2.145114  0  0  -0.286756  -0.476604  0  2.153816  0
O  O69  1  0.80781452  0.69094489  0.03605711  1  0  -0.53585  0  1.936682  0  0  -0.491545  0  2.150828  0  0  -0.512867  0  2.145272  0  0  -0.286582  -0.476315  0  2.153963  0
O  O70  1  0.98691185  0.45938597  0.67066268  1  0  -0.808269  0  1.876541  0  0  -0.738536  0  2.089827  0  0  -0.761502  0  2.055125  0  0  -0.5545  -0.722126  0  2.113197  0
O  O71  1  0.01309273  0.54061700  0.32932635  1  0  -0.808189  0  1.876638  0  0  -0.738393  0  2.090019  0  0  -0.761367  0  2.055308  0  0  -0.554399  -0.721981  0  2.113381  0
O  O72  1  0.78727783  0.36598037  0.39101428  1  0  -0.833977  0  1.908163  0  0  -0.765725  0  2.119242  0  0  -0.788765  0  2.084589  0  0  -0.554185  -0.749562  0  2.142653  0
O  O73  1  0.21271070  0.63401554  0.60898981  1  0  -0.834016  0  1.908093  0  0  -0.76576  0  2.119115  0  0  -0.788805  0  2.08451  0  0  -0.554188  -0.749583  0  2.142555  0
