# generated using pymatgen
data_CuH6C3SN2Cl
_symmetry_space_group_name_H-M   'P 1'
_cell_length_a   7.45500835
_cell_length_b   11.72795503
_cell_length_c   11.91942617
_cell_angle_alpha   66.11968160
_cell_angle_beta   75.93783278
_cell_angle_gamma   87.38354420
_symmetry_Int_Tables_number   1
_chemical_formula_structural   CuH6C3SN2Cl
_chemical_formula_sum   'Cu6 H36 C18 S6 N12 Cl6'
_cell_volume   922.73455162
_cell_formula_units_Z   6
loop_
 _symmetry_equiv_pos_site_id
 _symmetry_equiv_pos_as_xyz
  1  'x, y, z'
loop_
 _atom_site_type_symbol
 _atom_site_label
 _atom_site_symmetry_multiplicity
 _atom_site_fract_x
 _atom_site_fract_y
 _atom_site_fract_z
 _atom_site_occupancy
 _atom_site_hle17_bader_spin_density
 _atom_site_hle17_ddec_charge
 _atom_site_hle17_ddec_spin_density
 _atom_site_hle17_ddec_sum_bond_order
 _atom_site_hle17_magmom
 _atom_site_hse06_10hf_bader_spin_density
 _atom_site_hse06_10hf_ddec_charge
 _atom_site_hse06_10hf_ddec_spin_density
 _atom_site_hse06_10hf_ddec_sum_bond_order
 _atom_site_hse06_10hf_magmom
 _atom_site_hse06_bader_spin_density
 _atom_site_hse06_ddec_charge
 _atom_site_hse06_ddec_spin_density
 _atom_site_hse06_ddec_sum_bond_order
 _atom_site_hse06_magmom
 _atom_site_pbe_bader_spin_density
 _atom_site_pbe_cm5_charge
 _atom_site_pbe_ddec_charge
 _atom_site_pbe_ddec_spin_density
 _atom_site_pbe_ddec_sum_bond_order
 _atom_site_pbe_magmom
Cu  Cu0  1  0.04269360  0.00746496  0.09769415  1  0  0.286866  0  2.288382  0  0  0.233347  0  2.783518  0  0  0.235125  0  2.733068  0  0  0.298182  0.233768  0  2.816604  0
Cu  Cu1  1  0.95730101  0.99253590  0.90230884  1  0  0.286859  0  2.28837  0  0  0.233353  0  2.783492  0  0  0.235122  0  2.73305  0  0  0.298189  0.233771  0  2.816584  0
Cu  Cu2  1  0.86330973  0.79161585  0.26799352  1  0  0.332931  0  2.189962  0  0  0.268905  0  2.687954  0  0  0.271912  0  2.637679  0  0  0.277199  0.268575  0  2.720974  0
Cu  Cu3  1  0.13668608  0.20838314  0.73201002  1  0  0.332907  0  2.189928  0  0  0.268879  0  2.687905  0  0  0.271884  0  2.637632  0  0  0.277181  0.268551  0  2.720931  0
Cu  Cu4  1  0.04101274  0.38376923  0.95472287  1  0  0.352485  0  2.16872  0  0  0.294002  0  2.656724  0  0  0.295026  0  2.61075  0  0  0.297545  0.295116  0  2.686785  0
Cu  Cu5  1  0.95898454  0.61623071  0.04527755  1  0  0.352498  0  2.168709  0  0  0.294002  0  2.656718  0  0  0.295024  0  2.610739  0  0  0.29756  0.29511  0  2.6868  0
H  H6  1  0.83708004  0.99878639  0.36303451  1  0  0.286172  0  0.932631  0  0  0.263881  0  1.011074  0  0  0.272557  0  1.003133  0  0  0.286521  0.25762  0  1.016938  0
H  H7  1  0.16291352  0.00121822  0.63696634  1  0  0.286154  0  0.932616  0  0  0.263867  0  1.011059  0  0  0.272544  0  1.003118  0  0  0.286501  0.257604  0  1.016926  0
H  H8  1  0.96099828  0.37297287  0.21392885  1  0  0.283001  0  0.937705  0  0  0.258423  0  1.01923  0  0  0.267403  0  1.011223  0  0  0.285947  0.251948  0  1.025068  0
H  H9  1  0.03900756  0.62702984  0.78607086  1  0  0.283041  0  0.937797  0  0  0.258446  0  1.019327  0  0  0.267424  0  1.011319  0  0  0.285955  0.251973  0  1.02517  0
H  H10  1  0.53085381  0.66067177  0.40483933  1  0  0.291679  0  0.934398  0  0  0.271077  0  1.00674  0  0  0.279373  0  0.99968  0  0  0.284315  0.265149  0  1.011879  0
H  H11  1  0.46914192  0.33932631  0.59516122  1  0  0.291638  0  0.934364  0  0  0.271044  0  1.00671  0  0  0.27934  0  0.999647  0  0  0.284315  0.265113  0  1.01186  0
H  H12  1  0.59329348  0.49705641  0.15622335  1  0  0.293741  0  0.939227  0  0  0.27497  0  1.008753  0  0  0.283019  0  1.002346  0  0  0.28215  0.269192  0  1.013523  0
H  H13  1  0.40671054  0.50294165  0.84377762  1  0  0.293741  0  0.939276  0  0  0.274962  0  1.008808  0  0  0.283017  0  1.002395  0  0  0.282162  0.26918  0  1.01358  0
H  H14  1  0.64796590  0.15291863  0.93016344  1  0  0.294399  0  0.927374  0  0  0.277557  0  0.991619  0  0  0.284903  0  0.986514  0  0  0.286371  0.272327  0  0.995306  0
H  H15  1  0.35203707  0.84708321  0.06983033  1  0  0.294457  0  0.927589  0  0  0.27756  0  0.991871  0  0  0.2849  0  0.986778  0  0  0.286431  0.272328  0  0.995577  0
H  H16  1  0.53568997  0.95825622  0.31142874  1  0  0.29094  0  0.929806  0  0  0.271761  0  0.999381  0  0  0.279323  0  0.993719  0  0  0.29073  0.266343  0  1.003566  0
H  H17  1  0.46429927  0.04174658  0.68856760  1  0  0.290977  0  0.929573  0  0  0.271789  0  0.999186  0  0  0.279349  0  0.993525  0  0  0.290731  0.266372  0  1.003381  0
H  H18  1  0.65402565  0.10620177  0.49702834  1  0  0.062301  0  0.949274  0  0  0.075481  0  1.013337  0  0  0.076798  0  1.012598  0  0  0.089234  0.074392  0  1.014034  0
H  H19  1  0.34597795  0.89380652  0.50297373  1  0  0.062289  0  0.94919  0  0  0.075441  0  1.013257  0  0  0.076758  0  1.012517  0  0  0.089249  0.074356  0  1.013953  0
H  H20  1  0.85942781  0.05404662  0.55255332  1  0  0.075356  0  0.955829  0  0  0.087775  0  1.021917  0  0  0.088681  0  1.022252  0  0  0.100492  0.08699  0  1.02189  0
H  H21  1  0.14057630  0.94595235  0.44744895  1  0  0.075396  0  0.955719  0  0  0.087825  0  1.021756  0  0  0.08873  0  1.02209  0  0  0.100506  0.087021  0  1.021754  0
H  H22  1  0.01006526  0.25966287  0.44118165  1  0  0.067394  0  0.941189  0  0  0.079016  0  1.009626  0  0  0.080346  0  1.008786  0  0  0.093551  0.077855  0  1.010437  0
H  H23  1  0.98995129  0.74033609  0.55881705  1  0  0.06749  0  0.941022  0  0  0.079081  0  1.009542  0  0  0.080395  0  1.008712  0  0  0.093568  0.077918  0  1.01036  0
H  H24  1  0.77778913  0.30855395  0.45067143  1  0  0.073443  0  0.933585  0  0  0.088845  0  0.995575  0  0  0.089081  0  0.996551  0  0  0.10192  0.088549  0  0.995001  0
H  H25  1  0.22223202  0.69144962  0.54933063  1  0  0.073512  0  0.933656  0  0  0.088891  0  0.995687  0  0  0.089167  0  0.996605  0  0  0.101977  0.088598  0  0.995111  0
H  H26  1  0.20371793  0.62720449  0.38282651  1  0  0.074438  0  0.966727  0  0  0.088963  0  1.031341  0  0  0.090035  0  1.030809  0  0  0.094088  0.088025  0  1.031827  0
H  H27  1  0.79628054  0.37279362  0.61716941  1  0  0.074412  0  0.966743  0  0  0.088918  0  1.031365  0  0  0.089986  0  1.030828  0  0  0.094095  0.087979  0  1.031855  0
H  H28  1  0.26681509  0.47540752  0.47818498  1  0  0.057623  0  0.963848  0  0  0.067222  0  1.03814  0  0  0.067888  0  1.038162  0  0  0.089197  0.066467  0  1.038387  0
H  H29  1  0.73318349  0.52459150  0.52181478  1  0  0.057656  0  0.963848  0  0  0.067245  0  1.038132  0  0  0.067912  0  1.038153  0  0  0.089189  0.066495  0  1.03837  0
H  H30  1  0.25522643  0.42603945  0.30382847  1  0  0.075835  0  0.928858  0  0  0.090218  0  0.989802  0  0  0.090881  0  0.990112  0  0  0.10089  0.089599  0  0.989726  0
H  H31  1  0.74478001  0.57395488  0.69617275  1  0  0.075857  0  0.928834  0  0  0.090235  0  0.989777  0  0  0.090896  0  0.990087  0  0  0.100904  0.089611  0  0.989709  0
H  H32  1  0.27529251  0.58644653  0.19664520  1  0  0.065004  0  0.935906  0  0  0.079889  0  0.999463  0  0  0.08077  0  0.99883  0  0  0.091599  0.078992  0  1.000199  0
H  H33  1  0.72470969  0.41354689  0.80335451  1  0  0.065044  0  0.935895  0  0  0.079874  0  0.999501  0  0  0.080753  0  0.998868  0  0  0.091586  0.078976  0  1.000235  0
H  H34  1  0.56097237  0.30127188  0.04801495  1  0  0.071645  0  0.953116  0  0  0.080794  0  1.022813  0  0  0.081916  0  1.023049  0  0  0.088502  0.07978  0  1.022915  0
H  H35  1  0.43903182  0.69872804  0.95198610  1  0  0.07165  0  0.953134  0  0  0.0808  0  1.022814  0  0  0.08192  0  1.023054  0  0  0.088494  0.079785  0  1.022909  0
H  H36  1  0.35456538  0.24748223  0.02778415  1  0  0.066187  0  0.973364  0  0  0.073833  0  1.050604  0  0  0.075171  0  1.049855  0  0  0.087631  0.072611  0  1.05139  0
H  H37  1  0.64543950  0.75252518  0.97221135  1  0  0.066135  0  0.973501  0  0  0.073796  0  1.050708  0  0  0.075136  0  1.049954  0  0  0.087612  0.07257  0  1.051498  0
H  H38  1  0.42876515  0.18698382  0.27146801  1  0  0.080505  0  0.908963  0  0  0.096792  0  0.962144  0  0  0.09793  0  0.961798  0  0  0.104877  0.09581  0  0.962643  0
H  H39  1  0.57122383  0.81301616  0.72853115  1  0  0.080497  0  0.908935  0  0  0.09678  0  0.962125  0  0  0.097922  0  0.961769  0  0  0.104871  0.095801  0  0.962623  0
H  H40  1  0.26667107  0.10113705  0.24140685  1  0  0.059376  0  0.963853  0  0  0.067341  0  1.041232  0  0  0.068117  0  1.040886  0  0  0.091258  0.066579  0  1.041659  0
H  H41  1  0.73332498  0.89886483  0.75858546  1  0  0.05936  0  0.963802  0  0  0.067328  0  1.041198  0  0  0.068097  0  1.040855  0  0  0.091243  0.066567  0  1.041625  0
C  C42  1  0.91373770  0.18689780  0.25397227  1  0  0.452311  0  3.799208  0  0  0.412718  0  4.08835  0  0  0.439473  0  4.093948  0  0  0.24112  0.394763  0  4.08393  0
C  C43  1  0.08626252  0.81310398  0.74602950  1  0  0.452273  0  3.799213  0  0  0.412646  0  4.088379  0  0  0.4394  0  4.093974  0  0  0.241073  0.394712  0  4.083934  0
C  C44  1  0.80671712  0.11377079  0.47105800  1  0  0.034962  0  3.57428  0  0  -0.019408  0  3.827302  0  0  -0.015999  0  3.837789  0  0  -0.058507  -0.021542  0  3.82021  0
C  C45  1  0.19329166  0.88623378  0.52894137  1  0  0.034948  0  3.574071  0  0  -0.019282  0  3.826969  0  0  -0.015878  0  3.837446  0  0  -0.058503  -0.021424  0  3.81991  0
C  C46  1  0.87856418  0.25104938  0.41772833  1  0  0.038179  0  3.588574  0  0  -0.019462  0  3.847284  0  0  -0.015761  0  3.858417  0  0  -0.055718  -0.021724  0  3.839717  0
C  C47  1  0.12144841  0.74895141  0.58227529  1  0  0.03806  0  3.588597  0  0  -0.019691  0  3.847518  0  0  -0.015984  0  3.858598  0  0  -0.055835  -0.021954  0  3.83997  0
C  C48  1  0.61504498  0.57436855  0.28082576  1  0  0.45195  0  3.793302  0  0  0.41012  0  4.087329  0  0  0.436476  0  4.09315  0  0  0.239432  0.392377  0  4.082848  0
C  C49  1  0.38495359  0.42563048  0.71917315  1  0  0.451823  0  3.793512  0  0  0.41006  0  4.087462  0  0  0.436422  0  4.093279  0  0  0.239418  0.392319  0  4.082975  0
C  C50  1  0.30502953  0.55597556  0.38604535  1  0  0.026397  0  3.587195  0  0  -0.029942  0  3.838057  0  0  -0.026721  0  3.849623  0  0  -0.062249  -0.031768  0  3.830184  0
C  C51  1  0.69496896  0.44402253  0.61395309  1  0  0.026359  0  3.587277  0  0  -0.029926  0  3.8381  0  0  -0.026697  0  3.849655  0  0  -0.06223  -0.03176  0  3.830221  0
C  C52  1  0.32622400  0.51676226  0.27512153  1  0  0.044803  0  3.57662  0  0  -0.008517  0  3.8286  0  0  -0.004796  0  3.839759  0  0  -0.055102  -0.010811  0  3.821001  0
C  C53  1  0.67377837  0.48323302  0.72487826  1  0  0.044719  0  3.576784  0  0  -0.008541  0  3.828688  0  0  -0.004815  0  3.839853  0  0  -0.055125  -0.010832  0  3.821092  0
C  C54  1  0.61810988  0.03201419  0.11691103  1  0  0.454453  0  3.819419  0  0  0.410883  0  4.111943  0  0  0.436341  0  4.119291  0  0  0.23974  0.393642  0  4.106626  0
C  C55  1  0.38188935  0.96799241  0.88307307  1  0  0.454336  0  3.819413  0  0  0.410848  0  4.111878  0  0  0.436301  0  4.119229  0  0  0.239678  0.393605  0  4.106569  0
C  C56  1  0.47348585  0.21830700  0.06986809  1  0  0.033476  0  3.562645  0  0  -0.017891  0  3.806818  0  0  -0.01526  0  3.819047  0  0  -0.059858  -0.019405  0  3.798683  0
C  C57  1  0.52651583  0.78169574  0.93012973  1  0  0.033393  0  3.562775  0  0  -0.017939  0  3.806976  0  0  -0.015305  0  3.819191  0  0  -0.059945  -0.019444  0  3.798826  0
C  C58  1  0.41159745  0.13716046  0.21384604  1  0  0.048559  0  3.545432  0  0  -0.004995  0  3.798651  0  0  -0.000798  0  3.808739  0  0  -0.051992  -0.007662  0  3.791816  0
C  C59  1  0.58839464  0.86284327  0.78614866  1  0  0.048604  0  3.545469  0  0  -0.004961  0  3.798657  0  0  -0.000759  0  3.808744  0  0  -0.051967  -0.007631  0  3.791823  0
S  S60  1  0.96062588  0.19137415  0.10551581  1  0  -0.367787  0  2.841033  0  0  -0.360153  0  3.354401  0  0  -0.363995  0  3.319443  0  0  -0.229484  -0.358314  0  3.37774  0
S  S61  1  0.03936587  0.80862578  0.89448798  1  0  -0.367754  0  2.841095  0  0  -0.360105  0  3.354468  0  0  -0.363941  0  3.319509  0  0  -0.229474  -0.358278  0  3.377819  0
S  S62  1  0.85047093  0.60599047  0.24286779  1  0  -0.394677  0  2.631696  0  0  -0.377573  0  3.114496  0  0  -0.381482  0  3.079419  0  0  -0.223864  -0.375608  0  3.137879  0
S  S63  1  0.14952791  0.39401134  0.75713167  1  0  -0.394683  0  2.631817  0  0  -0.377595  0  3.114586  0  0  -0.381509  0  3.079513  0  0  -0.22388  -0.375638  0  3.137966  0
S  S64  1  0.75113809  0.91485282  0.09691072  1  0  -0.368751  0  2.87698  0  0  -0.352801  0  3.383619  0  0  -0.353995  0  3.345394  0  0  -0.238133  -0.352858  0  3.409388  0
S  S65  1  0.24885634  0.08514618  0.90309218  1  0  -0.368746  0  2.877053  0  0  -0.352791  0  3.383639  0  0  -0.35398  0  3.345414  0  0  -0.238117  -0.352843  0  3.409406  0
N  N66  1  0.87736820  0.08172141  0.36175024  1  0  -0.409489  0  3.263582  0  0  -0.348881  0  3.508462  0  0  -0.36774  0  3.515484  0  0  -0.423836  -0.336259  0  3.503755  0
N  N67  1  0.12263046  0.91827852  0.63825081  1  0  -0.409537  0  3.263665  0  0  -0.348931  0  3.508514  0  0  -0.367796  0  3.515537  0  0  -0.423828  -0.336307  0  3.503803  0
N  N68  1  0.90594123  0.28758536  0.28136704  1  0  -0.394017  0  3.285648  0  0  -0.330388  0  3.526756  0  0  -0.349721  0  3.535154  0  0  -0.417968  -0.317431  0  3.520968  0
N  N69  1  0.09406573  0.71241454  0.71863443  1  0  -0.394035  0  3.28569  0  0  -0.330351  0  3.526899  0  0  -0.349697  0  3.5353  0  0  -0.417937  -0.317371  0  3.521047  0
N  N70  1  0.49249494  0.60739218  0.36340864  1  0  -0.397061  0  3.299282  0  0  -0.332651  0  3.54124  0  0  -0.351969  0  3.550328  0  0  -0.419495  -0.319811  0  3.535028  0
N  N71  1  0.50750095  0.39260777  0.63659116  1  0  -0.396889  0  3.29923  0  0  -0.332555  0  3.541186  0  0  -0.351869  0  3.550267  0  0  -0.419495  -0.319716  0  3.53498  0
N  N72  1  0.52784114  0.51086670  0.23577277  1  0  -0.395259  0  3.249987  0  0  -0.334182  0  3.490396  0  0  -0.353172  0  3.498564  0  0  -0.418824  -0.321671  0  3.484931  0
N  N73  1  0.47216142  0.48913041  0.76422963  1  0  -0.39523  0  3.250053  0  0  -0.334151  0  3.490393  0  0  -0.353154  0  3.498561  0  0  -0.418824  -0.321636  0  3.484917  0
N  N74  1  0.58155778  0.13234182  0.02273675  1  0  -0.389351  0  3.322492  0  0  -0.320774  0  3.553609  0  0  -0.341521  0  3.566923  0  0  -0.41659  -0.307123  0  3.544745  0
N  N75  1  0.41843598  0.86764963  0.97727760  1  0  -0.38937  0  3.322015  0  0  -0.320828  0  3.553261  0  0  -0.341581  0  3.566575  0  0  -0.41659  -0.307171  0  3.544405  0
N  N76  1  0.53500800  0.03359186  0.22904412  1  0  -0.403585  0  3.306191  0  0  -0.341404  0  3.547039  0  0  -0.361772  0  3.558774  0  0  -0.421253  -0.327773  0  3.539109  0
N  N77  1  0.46498195  0.96640338  0.77096514  1  0  -0.403429  0  3.306717  0  0  -0.341256  0  3.547534  0  0  -0.361613  0  3.559262  0  0  -0.421137  -0.327632  0  3.539615  0
Cl  Cl78  1  0.16921413  0.85330441  0.24831801  1  0  -0.478285  0  1.289056  0  0  -0.417065  0  1.627613  0  0  -0.429409  0  1.597901  0  0  -0.282357  -0.408384  0  1.647522  0
Cl  Cl79  1  0.83078177  0.14669554  0.75168262  1  0  -0.478257  0  1.289018  0  0  -0.417078  0  1.627622  0  0  -0.429419  0  1.597901  0  0  -0.282367  -0.408398  0  1.647539  0
Cl  Cl80  1  0.67467593  0.79676008  0.45481426  1  0  -0.586038  0  0.979696  0  0  -0.528695  0  1.247722  0  0  -0.542075  0  1.222892  0  0  -0.317112  -0.518836  0  1.264481  0
Cl  Cl81  1  0.32531850  0.20323893  0.54518780  1  0  -0.585995  0  0.979687  0  0  -0.528661  0  1.247733  0  0  -0.542042  0  1.222905  0  0  -0.317089  -0.518794  0  1.264496  0
Cl  Cl82  1  0.77684662  0.50876036  0.97470628  1  0  -0.542145  0  1.259444  0  0  -0.479033  0  1.584516  0  0  -0.492359  0  1.556747  0  0  -0.29015  -0.469491  0  1.603289  0
Cl  Cl83  1  0.22314936  0.49124056  0.02528977  1  0  -0.542125  0  1.25947  0  0  -0.479026  0  1.584557  0  0  -0.492356  0  1.556793  0  0  -0.290146  -0.469484  0  1.603331  0
