# generated using pymatgen
data_CuH36C31BrN2
_symmetry_space_group_name_H-M   'P 1'
_cell_length_a   13.23501745
_cell_length_b   13.65414388
_cell_length_c   19.55701163
_cell_angle_alpha   107.51553265
_cell_angle_beta   89.99986578
_cell_angle_gamma   89.99975114
_symmetry_Int_Tables_number   1
_chemical_formula_structural   CuH36C31BrN2
_chemical_formula_sum   'Cu4 H144 C124 Br4 N8'
_cell_volume   3370.34104490
_cell_formula_units_Z   4
loop_
 _symmetry_equiv_pos_site_id
 _symmetry_equiv_pos_as_xyz
  1  'x, y, z'
loop_
 _atom_site_type_symbol
 _atom_site_label
 _atom_site_symmetry_multiplicity
 _atom_site_fract_x
 _atom_site_fract_y
 _atom_site_fract_z
 _atom_site_occupancy
 _atom_site_pbe_bader_charge
 _atom_site_pbe_bader_spin_density
 _atom_site_pbe_cm5_charge
 _atom_site_pbe_ddec_charge
 _atom_site_pbe_ddec_spin_density
 _atom_site_pbe_ddec_sum_bond_order
 _atom_site_pbe_magmom
Cu  Cu0  1  0.48734085  0.09021214  0.98276239  1  0.654233  0  0.43046  0.315902  0  2.57371  0
Cu  Cu1  1  0.98733614  0.90978711  0.51723941  1  0.654365  0  0.43043  0.315877  0  2.573725  0
Cu  Cu2  1  0.51266292  0.90977615  0.01723649  1  0.654724  0  0.430603  0.316068  0  2.573877  0
Cu  Cu3  1  0.01266460  0.09021429  0.48276676  1  0.654418  0  0.430381  0.315869  0  2.573553  0
H  H4  1  0.27774710  0.38142255  0.90653818  1  0.135016  0  0.1121  0.115692  0  1.00011  0
H  H5  1  0.77775175  0.61857631  0.59346592  1  0.13501  0  0.112093  0.115677  0  1.00013  0
H  H6  1  0.72225137  0.61857262  0.09345802  1  0.135114  0  0.11208  0.115627  0  1.000243  0
H  H7  1  0.22225050  0.38142046  0.40653725  1  0.134949  0  0.112095  0.115669  0  1.000092  0
H  H8  1  0.28076669  0.56622499  0.91606611  1  0.099176  0  0.111776  0.116221  0  1.000608  0
H  H9  1  0.78076691  0.43377925  0.58394063  1  0.099454  0  0.11174  0.116165  0  1.000559  0
H  H10  1  0.71923858  0.43378020  0.08393624  1  0.099097  0  0.111742  0.116139  0  1.000658  0
H  H11  1  0.21923308  0.56621750  0.41605999  1  0.099462  0  0.111744  0.116146  0  1.000641  0
H  H12  1  0.07538229  0.12186309  0.88312394  1  0.032282  0  0.09664  0.093898  0  1.031834  0
H  H13  1  0.57538494  0.87814525  0.61687630  1  0.032086  0  0.096673  0.093941  0  1.031824  0
H  H14  1  0.92461543  0.87813747  0.11687542  1  0.032323  0  0.096634  0.093917  0  1.031794  0
H  H15  1  0.42461882  0.12185914  0.38312179  1  0.03247  0  0.096648  0.093916  0  1.031809  0
H  H16  1  0.10861708  0.11928142  0.75724244  1  0.073667  0  0.092892  0.09467  0  1.035986  0
H  H17  1  0.60861399  0.88072597  0.74275755  1  0.073942  0  0.092885  0.094693  0  1.035987  0
H  H18  1  0.89138593  0.88071534  0.24276022  1  0.073632  0  0.092886  0.094671  0  1.03591  0
H  H19  1  0.39138675  0.11927534  0.25723992  1  0.073914  0  0.092933  0.094711  0  1.035967  0
H  H20  1  0.28017635  0.15182012  0.72056046  1  0.034221  0  0.098513  0.100623  0  1.01827  0
H  H21  1  0.78017554  0.84818100  0.77944052  1  0.034255  0  0.098472  0.100566  0  1.018258  0
H  H22  1  0.71981608  0.84817585  0.27943897  1  0.034288  0  0.09848  0.100556  0  1.018235  0
H  H23  1  0.21982369  0.15181803  0.22055903  1  0.034254  0  0.098478  0.100513  0  1.018298  0
H  H24  1  0.28168416  0.15834206  0.02102608  1  0.038545  0  0.080342  0.052178  0  1.034716  0
H  H25  1  0.78168571  0.84166068  0.47897212  1  0.038395  0  0.080339  0.052178  0  1.034651  0
H  H26  1  0.71831960  0.84166076  0.97896914  1  0.03843  0  0.080353  0.052189  0  1.034664  0
H  H27  1  0.21831277  0.15834063  0.52102586  1  0.038524  0  0.080331  0.052174  0  1.034702  0
H  H28  1  0.09077294  0.28136301  0.01134265  1  -0.000223  0  0.082686  0.111818  0  1.021881  0
H  H29  1  0.59077349  0.71863848  0.48865764  1  -0.0002  0  0.08269  0.111836  0  1.021847  0
H  H30  1  0.90922629  0.71864217  0.98865868  1  -0.000389  0  0.082654  0.111787  0  1.021945  0
H  H31  1  0.40922499  0.28136286  0.51134290  1  -0.000191  0  0.082685  0.111815  0  1.021892  0
H  H32  1  0.21422106  0.33242960  0.03177888  1  0.022921  0  0.07953  0.108433  0  1.024694  0
H  H33  1  0.71422191  0.66757275  0.46822088  1  0.022938  0  0.079544  0.108421  0  1.024719  0
H  H34  1  0.78578120  0.66757174  0.96822166  1  0.022938  0  0.079554  0.10843  0  1.024716  0
H  H35  1  0.28577959  0.33242780  0.53177797  1  0.022939  0  0.079536  0.108393  0  1.024731  0
H  H36  1  0.15137643  0.27780175  0.09185751  1  0.027122  0  0.083859  0.114122  0  1.01355  0
H  H37  1  0.65137951  0.72219941  0.40814158  1  0.02713  0  0.083849  0.11411  0  1.013565  0
H  H38  1  0.84862658  0.72219882  0.90814235  1  0.027115  0  0.083855  0.11411  0  1.013503  0
H  H39  1  0.34862274  0.27780193  0.59185844  1  0.027092  0  0.083852  0.11411  0  1.013496  0
H  H40  1  0.06634408  0.07666810  0.98210212  1  0.016116  0  0.081813  0.110541  0  1.025775  0
H  H41  1  0.56634233  0.92333259  0.51789554  1  0.016121  0  0.081789  0.110508  0  1.025767  0
H  H42  1  0.93365742  0.92333324  0.01789842  1  0.016083  0  0.081812  0.110555  0  1.025765  0
H  H43  1  0.43366143  0.07666875  0.48210551  1  0.016058  0  0.081798  0.110546  0  1.025824  0
H  H44  1  0.13359983  0.08391246  0.06163118  1  0.01915  0  0.081265  0.109113  0  1.025228  0
H  H45  1  0.63359816  0.91609108  0.43836691  1  0.019072  0  0.081302  0.10913  0  1.025061  0
H  H46  1  0.86640771  0.91609040  0.93836814  1  0.019043  0  0.081297  0.109141  0  1.025169  0
H  H47  1  0.36640333  0.08391642  0.56163644  1  0.019021  0  0.081288  0.109105  0  1.025035  0
H  H48  1  0.17703697  0.00143231  0.97841682  1  0.040304  0  0.084758  0.123641  0  1.022688  0
H  H49  1  0.67703638  0.99856855  0.52157916  1  0.04033  0  0.08475  0.123638  0  1.022672  0
H  H50  1  0.82296529  0.99857209  0.02158282  1  0.040276  0  0.084758  0.123657  0  1.022619  0
H  H51  1  0.32296587  0.00143281  0.47842291  1  0.040265  0  0.084737  0.123675  0  1.022633  0
H  H52  1  0.49936343  0.22764862  0.84684218  1  0.012408  0  0.091255  0.054796  0  1.001405  0
H  H53  1  0.99936113  0.77235286  0.65315852  1  0.012461  0  0.091245  0.054808  0  1.001414  0
H  H54  1  0.50063127  0.77235579  0.15315796  1  0.012324  0  0.091284  0.054828  0  1.001483  0
H  H55  1  0.00064112  0.22764851  0.34684509  1  0.01241  0  0.091274  0.054841  0  1.001431  0
H  H56  1  0.41368036  0.23383642  0.70264438  1  0.025028  0  0.083257  0.107954  0  1.032714  0
H  H57  1  0.91367155  0.76616784  0.79735909  1  0.024971  0  0.083267  0.107948  0  1.032562  0
H  H58  1  0.58631962  0.76616876  0.29735695  1  0.025041  0  0.083235  0.107932  0  1.03265  0
H  H59  1  0.08632617  0.23383506  0.20264382  1  0.024981  0  0.083273  0.108001  0  1.0326  0
H  H60  1  0.52885569  0.28653367  0.74353130  1  0.037293  0  0.084794  0.115658  0  1.027451  0
H  H61  1  0.02885235  0.71346955  0.75646847  1  0.037394  0  0.08479  0.115673  0  1.027351  0
H  H62  1  0.47113749  0.71346840  0.25646530  1  0.037228  0  0.084817  0.115739  0  1.027277  0
H  H63  1  0.97114612  0.28653258  0.24353428  1  0.037383  0  0.084818  0.115703  0  1.027371  0
H  H64  1  0.41228747  0.33894545  0.78270290  1  0.02336  0  0.080809  0.109758  0  1.025558  0
H  H65  1  0.91228167  0.66105724  0.71729615  1  0.023323  0  0.080782  0.109729  0  1.025506  0
H  H66  1  0.58771025  0.66105817  0.21729504  1  0.023439  0  0.080837  0.1098  0  1.025514  0
H  H67  1  0.08771680  0.33894258  0.28270561  1  0.02333  0  0.080827  0.109753  0  1.025497  0
H  H68  1  0.50985127  0.03961995  0.79308515  1  0.024868  0  0.081051  0.114001  0  1.045533  0
H  H69  1  0.00984776  0.96038033  0.70691711  1  0.024902  0  0.081043  0.113992  0  1.04553  0
H  H70  1  0.49014796  0.96038138  0.20691436  1  0.02481  0  0.081089  0.114059  0  1.045575  0
H  H71  1  0.99015072  0.03962106  0.29308855  1  0.024809  0  0.08111  0.114063  0  1.04551  0
H  H72  1  0.58026216  0.10345955  0.74183799  1  0.027599  0  0.083819  0.116735  0  1.013311  0
H  H73  1  0.08025875  0.89654341  0.75816318  1  0.027669  0  0.083797  0.116706  0  1.013254  0
H  H74  1  0.41973556  0.89654791  0.25816176  1  0.027684  0  0.083864  0.116786  0  1.013297  0
H  H75  1  0.91974124  0.10345874  0.24184110  1  0.027737  0  0.083803  0.116711  0  1.013291  0
H  H76  1  0.46039396  0.04965324  0.71079500  1  0.012938  0  0.085498  0.120755  0  1.01872  0
H  H77  1  0.96039266  0.95034843  0.78920428  1  0.0129  0  0.085469  0.120694  0  1.01875  0
H  H78  1  0.53960376  0.95035113  0.28920105  1  0.013019  0  0.085478  0.120808  0  1.018683  0
H  H79  1  0.03960733  0.04964986  0.21079819  1  0.013011  0  0.085468  0.120776  0  1.018684  0
H  H80  1  0.92666608  0.19737109  0.97237521  1  0.04444  0  0.095412  0.091219  0  1.037885  0
H  H81  1  0.42666842  0.80263079  0.52762672  1  0.044611  0  0.095438  0.091276  0  1.037864  0
H  H82  1  0.07333240  0.80262260  0.02762683  1  0.044488  0  0.095471  0.091348  0  1.037849  0
H  H83  1  0.57333156  0.19737362  0.47237342  1  0.04449  0  0.095476  0.091336  0  1.037827  0
H  H84  1  0.96830706  0.23014128  0.10096889  1  0.0496  0  0.095046  0.091265  0  1.039869  0
H  H85  1  0.46831355  0.76986587  0.39903298  1  0.049514  0  0.095026  0.091168  0  1.039844  0
H  H86  1  0.03168159  0.76985622  0.89903035  1  0.049412  0  0.09498  0.091146  0  1.039852  0
H  H87  1  0.53168719  0.23012704  0.60096735  1  0.049555  0  0.09501  0.091153  0  1.039876  0
H  H88  1  0.83068861  0.24665526  0.19005130  1  0.025645  0  0.094367  0.087107  0  1.049172  0
H  H89  1  0.33069246  0.75335263  0.30995094  1  0.025646  0  0.09438  0.087101  0  1.049106  0
H  H90  1  0.16930533  0.75334839  0.80994971  1  0.025596  0  0.094364  0.087078  0  1.049175  0
H  H91  1  0.66931206  0.24663796  0.69004789  1  0.025326  0  0.094406  0.087121  0  1.049066  0
H  H92  1  0.55448509  0.23183576  0.13972404  1  0.054578  0  0.085637  0.055474  0  1.007659  0
H  H93  1  0.05448870  0.76816747  0.36027819  1  0.054603  0  0.085626  0.055464  0  1.007766  0
H  H94  1  0.44550885  0.76816786  0.86027441  1  0.054645  0  0.085628  0.05546  0  1.007742  0
H  H95  1  0.94551431  0.23183310  0.63972219  1  0.054534  0  0.085629  0.055454  0  1.007737  0
H  H96  1  0.62579699  0.07582904  0.15792041  1  0.02836  0  0.079177  0.111223  0  1.038064  0
H  H97  1  0.12579845  0.92416997  0.34208033  1  0.02835  0  0.079169  0.111203  0  1.03807  0
H  H98  1  0.37419922  0.92417076  0.84207878  1  0.028367  0  0.079149  0.111214  0  1.0381  0
H  H99  1  0.87420078  0.07582677  0.65792029  1  0.028335  0  0.079157  0.111211  0  1.038044  0
H  H100  1  0.57443520  0.15524073  0.23974420  1  0.00782  0  0.082756  0.113979  0  1.01699  0
H  H101  1  0.07443503  0.84476164  0.26025834  1  0.007904  0  0.082767  0.113978  0  1.017067  0
H  H102  1  0.42556101  0.84476522  0.76025729  1  0.007901  0  0.08278  0.114053  0  1.016925  0
H  H103  1  0.92556269  0.15523588  0.73974295  1  0.007834  0  0.082784  0.114024  0  1.01698  0
H  H104  1  0.70715436  0.14934509  0.22631076  1  -0.021962  0  0.080658  0.105066  0  1.045262  0
H  H105  1  0.20715488  0.85065730  0.27368851  1  -0.021935  0  0.080666  0.105102  0  1.04519  0
H  H106  1  0.29284638  0.85065778  0.77368907  1  -0.021933  0  0.080656  0.105094  0  1.045221  0
H  H107  1  0.79284359  0.14934709  0.72631010  1  -0.021922  0  0.080679  0.105109  0  1.045201  0
H  H108  1  0.69930799  0.35660922  0.25668888  1  0.011133  0  0.082109  0.110141  0  1.023901  0
H  H109  1  0.19930879  0.64339246  0.24331230  1  0.011338  0  0.08211  0.110155  0  1.023829  0
H  H110  1  0.30069426  0.64339133  0.74330945  1  0.010965  0  0.082102  0.11012  0  1.023887  0
H  H111  1  0.80068968  0.35660347  0.75668406  1  0.011069  0  0.082112  0.110136  0  1.023854  0
H  H112  1  0.56620882  0.34830839  0.26464149  1  0.014867  0  0.085452  0.117186  0  1.000026  0
H  H113  1  0.06620809  0.65169402  0.23536107  1  0.014929  0  0.085455  0.117183  0  1.000009  0
H  H114  1  0.43379419  0.65169602  0.73535968  1  0.014686  0  0.085444  0.117209  0  0.999965  0
H  H115  1  0.93378887  0.34830578  0.76463813  1  0.01478  0  0.085476  0.1172  0  1.000026  0
H  H116  1  0.61875727  0.40729686  0.20304467  1  0.014385  0  0.078598  0.105002  0  1.025605  0
H  H117  1  0.11875962  0.59270681  0.29695806  1  0.014276  0  0.078577  0.104941  0  1.025594  0
H  H118  1  0.38124347  0.59270833  0.79695768  1  0.014425  0  0.078616  0.105012  0  1.025594  0
H  H119  1  0.88123886  0.40729297  0.70303960  1  0.014211  0  0.078618  0.105  0  1.025604  0
H  H120  1  0.66158166  0.14705119  0.90326231  1  0.031637  0  0.087565  0.057067  0  1.010348  0
H  H121  1  0.16158203  0.85295055  0.59673745  1  0.030912  0  0.087593  0.057105  0  1.01036  0
H  H122  1  0.33841833  0.85294630  0.09673590  1  0.031645  0  0.087565  0.057047  0  1.010337  0
H  H123  1  0.83841871  0.14705383  0.40326013  1  0.031647  0  0.08756  0.057042  0  1.010388  0
H  H124  1  0.69173834  0.33382153  0.91517788  1  0.031374  0  0.075883  0.101355  0  1.057208  0
H  H125  1  0.19173883  0.66618082  0.58482248  1  0.031421  0  0.075906  0.101389  0  1.05719  0
H  H126  1  0.30826316  0.66617751  0.08482270  1  0.031493  0  0.075896  0.10143  0  1.057169  0
H  H127  1  0.80825813  0.33382127  0.41517668  1  0.031573  0  0.075902  0.101376  0  1.057236  0
H  H128  1  0.71554219  0.25236929  0.82703058  1  0.002479  0  0.083544  0.112096  0  1.028154  0
H  H129  1  0.21554352  0.74763525  0.67297121  1  0.002611  0  0.083528  0.112046  0  1.028134  0
H  H130  1  0.28445930  0.74763513  0.17297110  1  0.002665  0  0.083545  0.112082  0  1.028112  0
H  H131  1  0.78445646  0.25236761  0.32702760  1  0.00255  0  0.083523  0.112049  0  1.028137  0
H  H132  1  0.81782594  0.30397128  0.88550592  1  0.009855  0  0.085224  0.117574  0  1.001224  0
H  H133  1  0.31782921  0.69603117  0.61449528  1  0.009899  0  0.085208  0.117524  0  1.001249  0
H  H134  1  0.18217329  0.69602854  0.11449636  1  0.009848  0  0.085228  0.11757  0  1.001236  0
H  H135  1  0.68217153  0.30397092  0.38550285  1  0.009808  0  0.085213  0.117533  0  1.001247  0
H  H136  1  0.88433330  0.11840545  0.85945850  1  -0.004821  0  0.080051  0.102648  0  1.033858  0
H  H137  1  0.38433112  0.88159971  0.64054366  1  -0.004682  0  0.080017  0.10262  0  1.033824  0
H  H138  1  0.11566971  0.88160050  0.14054350  1  -0.004673  0  0.080039  0.102657  0  1.033832  0
H  H139  1  0.61567113  0.11839392  0.35945274  1  -0.004594  0  0.080038  0.102593  0  1.033804  0
H  H140  1  0.77717384  0.06562015  0.80728769  1  0.02736  0  0.085561  0.121129  0  1.025432  0
H  H141  1  0.27716974  0.93438175  0.69271346  1  0.027286  0  0.085556  0.121131  0  1.025427  0
H  H142  1  0.22283445  0.93437889  0.19271340  1  0.027321  0  0.085516  0.121064  0  1.025487  0
H  H143  1  0.72283554  0.06561649  0.30728337  1  0.027212  0  0.085558  0.121122  0  1.025413  0
H  H144  1  0.80805174  0.02570641  0.88298863  1  0.037531  0  0.079713  0.108967  0  1.050333  0
H  H145  1  0.30804771  0.97429686  0.61701326  1  0.037486  0  0.079742  0.108938  0  1.050343  0
H  H146  1  0.19195581  0.97429416  0.11701175  1  0.037544  0  0.079742  0.108944  0  1.050366  0
H  H147  1  0.69195907  0.02570368  0.38298456  1  0.037384  0  0.079716  0.108902  0  1.050417  0
C  C148  1  0.34097845  0.42797174  0.93399301  1  -0.043752  0  -0.065233  -0.089533  0  3.901007  0
C  C149  1  0.84097736  0.57202907  0.56600986  1  -0.0437  0  -0.065233  -0.089473  0  3.900819  0
C  C150  1  0.65901776  0.57202579  0.06600879  1  -0.043622  0  -0.065272  -0.089516  0  3.901003  0
C  C151  1  0.15902112  0.42797072  0.43398934  1  -0.043657  0  -0.065278  -0.089538  0  3.900972  0
C  C152  1  0.34314518  0.53438780  0.93895641  1  -0.011472  0  -0.065313  -0.0903  0  3.896358  0
C  C153  1  0.84314911  0.46561224  0.56104784  1  -0.011972  0  -0.065247  -0.090281  0  3.896578  0
C  C154  1  0.65685405  0.46560974  0.06104795  1  -0.011596  0  -0.065259  -0.090185  0  3.896299  0
C  C155  1  0.15685389  0.53438295  0.43895144  1  -0.011744  0  -0.065172  -0.090138  0  3.89652  0
C  C156  1  0.44638847  0.28326166  0.97031925  1  0.652057  0  0.138774  0.134739  0  3.949924  0
C  C157  1  0.94638685  0.71674396  0.52968444  1  0.652223  0  0.138863  0.134788  0  3.949819  0
C  C158  1  0.55360774  0.71674737  0.02968441  1  0.652164  0  0.138847  0.134789  0  3.950037  0
C  C159  1  0.05361238  0.28325198  0.47031243  1  0.652438  0  0.138971  0.135023  0  3.94964  0
C  C160  1  0.41855074  0.38393046  0.96354428  1  -0.015607  0  -0.000345  0.001383  0  3.96726  0
C  C161  1  0.91855786  0.61607303  0.53646208  1  -0.015526  0  -0.000332  0.001391  0  3.96713  0
C  C162  1  0.58144396  0.61607706  0.03646162  1  -0.01564  0  -0.000332  0.001335  0  3.967068  0
C  C163  1  0.08144137  0.38392366  0.46353341  1  -0.015757  0  -0.000462  0.00116  0  3.967173  0
C  C164  1  0.49854816  0.44929047  0.99812138  1  0.040134  0  -0.006692  0.002728  0  4.101456  0
C  C165  1  0.99855268  0.55071184  0.50188615  1  -0.04349  0  -0.006744  0.00257  0  4.101333  0
C  C166  1  0.50144805  0.55070867  0.00188945  1  -0.043887  0  -0.006689  0.002799  0  4.101312  0
C  C167  1  0.00144580  0.44928715  0.49810879  1  0.040062  0  -0.006635  0.00283  0  4.101181  0
C  C168  1  0.42344937  0.59693798  0.97281126  1  -0.093248  0  -0.000987  0.001748  0  3.971804  0
C  C169  1  0.92344690  0.40306625  0.52719474  1  -0.093281  0  -0.001055  0.001816  0  3.971909  0
C  C170  1  0.57654684  0.40306340  0.02719287  1  -0.093447  0  -0.001083  0.001697  0  3.971794  0
C  C171  1  0.07655157  0.59693276  0.47280327  1  -0.093475  0  -0.001061  0.001851  0  3.971611  0
C  C172  1  0.54532765  0.29526363  0.00993280  1  0.663437  0  0.144517  0.145355  0  3.953149  0
C  C173  1  0.04533034  0.70473500  0.49006288  1  0.663433  0  0.144493  0.145316  0  3.953136  0
C  C174  1  0.45467535  0.70473080  0.99006581  1  0.663411  0  0.144509  0.145419  0  3.95299  0
C  C175  1  0.95467040  0.29526709  0.50993577  1  0.663151  0  0.144501  0.145316  0  3.9528  0
C  C176  1  0.32707884  0.17420691  0.89571889  1  0.259188  0  0.081886  0.09541  0  3.97585  0
C  C177  1  0.82707647  0.82579319  0.60428181  1  0.259408  0  0.081901  0.095452  0  3.975405  0
C  C178  1  0.67291737  0.82579746  0.10427716  1  0.258524  0  0.081856  0.095227  0  3.97558  0
C  C179  1  0.17292729  0.17420662  0.39571841  1  0.25904  0  0.081947  0.095489  0  3.975489  0
C  C180  1  0.22935098  0.15569518  0.91780084  1  -0.023281  0  -0.009  0.017272  0  3.896399  0
C  C181  1  0.72934710  0.84431078  0.58219764  1  -0.023399  0  -0.008909  0.017318  0  3.896385  0
C  C182  1  0.77064901  0.84430688  0.08219524  1  -0.022965  0  -0.008935  0.01737  0  3.896261  0
C  C183  1  0.27065365  0.15568517  0.41780025  1  -0.023125  0  -0.008925  0.017359  0  3.896449  0
C  C184  1  0.15151215  0.13618501  0.86697597  1  -0.021833  0  -0.099437  -0.137924  0  4.017915  0
C  C185  1  0.65151405  0.86382288  0.63302047  1  -0.021717  0  -0.09962  -0.138076  0  4.018244  0
C  C186  1  0.84848482  0.86381710  0.13302472  1  -0.021847  0  -0.099544  -0.138049  0  4.017868  0
C  C187  1  0.34849123  0.13618228  0.36697932  1  -0.022201  0  -0.099582  -0.138076  0  4.017957  0
C  C188  1  0.16960594  0.13485415  0.79651393  1  -0.110691  0  -0.103228  -0.096593  0  4.076007  0
C  C189  1  0.66960381  0.86516059  0.70348697  1  -0.110822  0  -0.103052  -0.096475  0  4.07591  0
C  C190  1  0.83039480  0.86514336  0.20348633  1  -0.110618  0  -0.103113  -0.096516  0  4.075787  0
C  C191  1  0.33039618  0.13484689  0.29651432  1  -0.110808  0  -0.103132  -0.096521  0  4.07573  0
C  C192  1  0.26677014  0.15355260  0.77593489  1  -0.010489  0  -0.098251  -0.136102  0  4.01808  0
C  C193  1  0.76677029  0.84645469  0.72406330  1  -0.010566  0  -0.0983  -0.136182  0  4.018298  0
C  C194  1  0.73322455  0.84645022  0.22406084  1  -0.010523  0  -0.09823  -0.136049  0  4.017877  0
C  C195  1  0.23322894  0.15354435  0.27593677  1  -0.010479  0  -0.098263  -0.136058  0  4.018155  0
C  C196  1  0.34740534  0.17400486  0.82451108  1  0.039369  0  -0.009369  0.006862  0  3.885492  0
C  C197  1  0.84740197  0.82600126  0.67548980  1  0.039266  0  -0.009374  0.006949  0  3.885597  0
C  C198  1  0.65259162  0.82599642  0.17548280  1  0.039269  0  -0.00942  0.007011  0  3.885565  0
C  C199  1  0.15259726  0.17399855  0.32451093  1  0.039297  0  -0.009412  0.006943  0  3.885579  0
C  C200  1  0.20864817  0.16399211  0.99564663  1  0.058543  0  -0.093032  0.077402  0  3.889692  0
C  C201  1  0.70864837  0.83600860  0.50435183  1  0.058958  0  -0.09307  0.077316  0  3.889732  0
C  C202  1  0.79135333  0.83600691  0.00435138  1  0.058908  0  -0.093053  0.07734  0  3.889717  0
C  C203  1  0.29135010  0.16398888  0.49564536  1  0.058588  0  -0.093106  0.077244  0  3.889736  0
C  C204  1  0.16370293  0.26998393  0.03483278  1  -0.062299  0  -0.243339  -0.381311  0  3.917524  0
C  C205  1  0.66370427  0.73001717  0.46516680  1  -0.062322  0  -0.243335  -0.381279  0  3.917577  0
C  C206  1  0.83629932  0.73001665  0.96516760  1  -0.062159  0  -0.243324  -0.381242  0  3.917599  0
C  C207  1  0.33629496  0.26998109  0.53483157  1  -0.062231  0  -0.243326  -0.381218  0  3.917446  0
C  C208  1  0.14254289  0.07654281  0.00442158  1  -0.076059  0  -0.246555  -0.387399  0  3.920747  0
C  C209  1  0.64254174  0.92345685  0.49557620  1  -0.076329  0  -0.246575  -0.387364  0  3.920576  0
C  C210  1  0.85745861  0.92345775  0.99557727  1  -0.076201  0  -0.246578  -0.387434  0  3.920563  0
C  C211  1  0.35746126  0.07654450  0.50442485  1  -0.075898  0  -0.246524  -0.387406  0  3.920482  0
C  C212  1  0.45263150  0.19224751  0.79944172  1  0.046628  0  -0.089712  0.082903  0  3.887992  0
C  C213  1  0.95262662  0.80775190  0.70055813  1  0.046797  0  -0.089711  0.08279  0  3.888096  0
C  C214  1  0.54736924  0.80775304  0.20055610  1  0.046853  0  -0.089765  0.082705  0  3.888226  0
C  C215  1  0.04737186  0.19224792  0.29944415  1  0.046633  0  -0.089721  0.082716  0  3.88817  0
C  C216  1  0.45132730  0.26709851  0.75458176  1  -0.090847  0  -0.244226  -0.389669  0  3.933586  0
C  C217  1  0.95132183  0.73290476  0.74541991  1  -0.091029  0  -0.244189  -0.389611  0  3.933269  0
C  C218  1  0.54867042  0.73290513  0.24541875  1  -0.090779  0  -0.244207  -0.389698  0  3.933287  0
C  C219  1  0.04867664  0.26709506  0.25458236  1  -0.090796  0  -0.244242  -0.389665  0  3.933375  0
C  C220  1  0.50369105  0.09018152  0.75895000  1  -0.048356  0  -0.244789  -0.386844  0  3.892406  0
C  C221  1  0.00368612  0.90981646  0.74104975  1  -0.048347  0  -0.244727  -0.386695  0  3.89236  0
C  C222  1  0.49630743  0.90981825  0.24104663  1  -0.048477  0  -0.244861  -0.386964  0  3.892603  0
C  C223  1  0.99631235  0.09018338  0.25895457  1  -0.048447  0  -0.244804  -0.386849  0  3.892394  0
C  C224  1  0.68899211  0.21702682  0.04075986  1  0.301449  0  0.083236  0.096725  0  3.997157  0
C  C225  1  0.18899833  0.78297108  0.45924004  1  0.301421  0  0.083147  0.096677  0  3.996853  0
C  C226  1  0.31101392  0.78296840  0.95924198  1  0.302349  0  0.083294  0.096938  0  3.997111  0
C  C227  1  0.81100695  0.21702103  0.54075655  1  0.301259  0  0.083203  0.096734  0  3.997352  0
C  C228  1  0.76578601  0.20199581  0.98829030  1  0.02342  0  -0.008451  0.014177  0  3.889315  0
C  C229  1  0.26578768  0.79800922  0.51171152  1  0.02357  0  -0.008418  0.014227  0  3.889027  0
C  C230  1  0.23421473  0.79800017  0.01171118  1  0.022927  0  -0.008391  0.014203  0  3.889084  0
C  C231  1  0.73421684  0.20199058  0.48828820  1  0.023549  0  -0.008496  0.014156  0  3.889148  0
C  C232  1  0.86604068  0.20818522  0.01172231  1  -0.099182  0  -0.100379  -0.142523  0  4.030595  0
C  C233  1  0.36604449  0.79181943  0.48828125  1  -0.099722  0  -0.100436  -0.142637  0  4.030453  0
C  C234  1  0.13395628  0.79181768  0.98828111  1  -0.099262  0  -0.100491  -0.142819  0  4.030588  0
C  C235  1  0.63395927  0.20818190  0.51171724  1  -0.099416  0  -0.100448  -0.142626  0  4.03034  0
C  C236  1  0.88968688  0.22586771  0.08394971  1  -0.014923  0  -0.105685  -0.102251  0  4.086945  0
C  C237  1  0.38969102  0.77413756  0.41605190  1  -0.014788  0  -0.105582  -0.102015  0  4.086788  0
C  C238  1  0.11030480  0.77413364  0.91605237  1  -0.01491  0  -0.105557  -0.101962  0  4.086607  0
C  C239  1  0.61031199  0.22585305  0.58394796  1  -0.014952  0  -0.105596  -0.102162  0  4.086743  0
C  C240  1  0.81234951  0.23570292  0.13385995  1  -0.056063  0  -0.100753  -0.143488  0  4.032271  0
C  C241  1  0.31235387  0.76429818  0.36614348  1  -0.056058  0  -0.100865  -0.143615  0  4.032533  0
C  C242  1  0.18764594  0.76429996  0.86614090  1  -0.055833  0  -0.100815  -0.143522  0  4.032205  0
C  C243  1  0.68765367  0.23569317  0.63385501  1  -0.055573  0  -0.10088  -0.143542  0  4.032493  0
C  C244  1  0.71068441  0.23121953  0.11346573  1  -0.006421  0  -0.009371  0.016275  0  3.903626  0
C  C245  1  0.21069094  0.76878054  0.38653356  1  -0.006514  0  -0.009242  0.016441  0  3.903655  0
C  C246  1  0.28931029  0.76878030  0.88653757  1  -0.006735  0  -0.009367  0.016099  0  3.903796  0
C  C247  1  0.78931584  0.23121003  0.61346322  1  -0.006389  0  -0.009247  0.016424  0  3.903691  0
C  C248  1  0.62719290  0.23938012  0.16798601  1  0.00155  0  -0.091602  0.080346  0  3.887382  0
C  C249  1  0.12719664  0.76062119  0.33201571  1  0.001911  0  -0.091682  0.080174  0  3.887669  0
C  C250  1  0.37280255  0.76062122  0.83201504  1  0.001539  0  -0.091678  0.08032  0  3.887553  0
C  C251  1  0.87280636  0.23937554  0.66798285  1  0.001954  0  -0.091669  0.080169  0  3.887642  0
C  C252  1  0.63418435  0.14979458  0.19978067  1  0.000913  0  -0.247512  -0.386552  0  3.920575  0
C  C253  1  0.13418704  0.85020668  0.30022001  1  0.000821  0  -0.247522  -0.386546  0  3.920608  0
C  C254  1  0.36581261  0.85020676  0.80021987  1  0.000787  0  -0.247524  -0.386643  0  3.92057  0
C  C255  1  0.86581445  0.14979312  0.69977970  1  0.000836  0  -0.247549  -0.386626  0  3.920568  0
C  C256  1  0.62810379  0.34392738  0.22634538  1  -0.039036  0  -0.24364  -0.383008  0  3.934614  0
C  C257  1  0.12810593  0.65607700  0.27365646  1  -0.039455  0  -0.243593  -0.382892  0  3.934541  0
C  C258  1  0.37189695  0.65607473  0.77365481  1  -0.038681  0  -0.24362  -0.382997  0  3.934506  0
C  C259  1  0.87189254  0.34392355  0.72634084  1  -0.038901  0  -0.243658  -0.382934  0  3.934582  0
C  C260  1  0.73925960  0.17715218  0.90928175  1  0.053275  0  -0.091107  0.081998  0  3.880537  0
C  C261  1  0.23926088  0.82284991  0.59071797  1  0.053998  0  -0.091118  0.081929  0  3.880623  0
C  C262  1  0.26074114  0.82284456  0.09071836  1  0.053205  0  -0.091124  0.082058  0  3.880411  0
C  C263  1  0.76073986  0.17715295  0.40928135  1  0.0533  0  -0.091077  0.08197  0  3.880502  0
C  C264  1  0.74095569  0.27249689  0.88304843  1  -0.060257  0  -0.246499  -0.385319  0  3.92061  0
C  C265  1  0.24095806  0.72750366  0.61695097  1  -0.060439  0  -0.24649  -0.385254  0  3.920592  0
C  C266  1  0.25904354  0.72749832  0.11695136  1  -0.06044  0  -0.246539  -0.38541  0  3.920527  0
C  C267  1  0.75904268  0.27249766  0.38304752  1  -0.060518  0  -0.246501  -0.385249  0  3.920627  0
C  C268  1  0.80641128  0.09194020  0.86227344  1  -0.061352  0  -0.248395  -0.395871  0  3.933398  0
C  C269  1  0.30640748  0.90806078  0.63772798  1  -0.061394  0  -0.248383  -0.395796  0  3.933401  0
C  C270  1  0.19359249  0.90805962  0.13772781  1  -0.061562  0  -0.248346  -0.395791  0  3.933369  0
C  C271  1  0.69359704  0.09193823  0.36226952  1  -0.061331  0  -0.248371  -0.395718  0  3.933355  0
Br  Br272  1  0.58686517  0.94684576  0.91457417  1  -0.507006  0  -0.214692  -0.345263  0  1.685603  0
Br  Br273  1  0.08686614  0.05314956  0.58543411  1  -0.507132  0  -0.214698  -0.345226  0  1.685503  0
Br  Br274  1  0.41312877  0.05314100  0.08542490  1  -0.507217  0  -0.214744  -0.345356  0  1.685566  0
Br  Br275  1  0.91313384  0.94684498  0.41457628  1  -0.507164  0  -0.214702  -0.345265  0  1.685571  0
N  N276  1  0.40884664  0.19114388  0.94555934  1  -1.185318  0  -0.335393  -0.244483  0  3.603021  0
N  N277  1  0.90884680  0.80885654  0.55444130  1  -1.185653  0  -0.33548  -0.244552  0  3.603096  0
N  N278  1  0.59114427  0.80885816  0.05443470  1  -1.185453  0  -0.335541  -0.244538  0  3.603119  0
N  N279  1  0.09115621  0.19114480  0.44555924  1  -1.185655  0  -0.335501  -0.244648  0  3.603096  0
N  N280  1  0.58722123  0.21326395  0.01706145  1  -1.180708  0  -0.329217  -0.245916  0  3.603141  0
N  N281  1  0.08722584  0.78673372  0.48293857  1  -1.180594  0  -0.329158  -0.2459  0  3.603198  0
N  N282  1  0.41278253  0.78673431  0.98293795  1  -1.180777  0  -0.329236  -0.245935  0  3.602938  0
N  N283  1  0.91277188  0.21326225  0.51706137  1  -1.180459  0  -0.329171  -0.245884  0  3.603187  0
