# generated using pymatgen
data_FeH20C26(SN3)2
_symmetry_space_group_name_H-M   'P 1'
_cell_length_a   14.45735503
_cell_length_b   15.60758562
_cell_length_c   15.87179619
_cell_angle_alpha   90.00000479
_cell_angle_beta   90.00037916
_cell_angle_gamma   90.00001916
_symmetry_Int_Tables_number   1
_chemical_formula_structural   FeH20C26(SN3)2
_chemical_formula_sum   'Fe4 H80 C104 S8 N24'
_cell_volume   3581.38203107
_cell_formula_units_Z   4
loop_
 _symmetry_equiv_pos_site_id
 _symmetry_equiv_pos_as_xyz
  1  'x, y, z'
loop_
 _atom_site_type_symbol
 _atom_site_label
 _atom_site_symmetry_multiplicity
 _atom_site_fract_x
 _atom_site_fract_y
 _atom_site_fract_z
 _atom_site_occupancy
 _atom_site_pbe_bader_charge
 _atom_site_pbe_bader_spin_density
 _atom_site_pbe_cm5_charge
 _atom_site_pbe_ddec_charge
 _atom_site_pbe_ddec_spin_density
 _atom_site_pbe_ddec_sum_bond_order
 _atom_site_pbe_magmom
Fe  Fe0  1  0.25000009  0.24880217  0.74999968  1  1.221946  0  0.87269  0.502352  0  3.869762  0
Fe  Fe1  1  0.75000052  0.25119785  0.24999981  1  1.221901  0  0.872657  0.50237  0  3.869824  0
Fe  Fe2  1  0.74999992  0.75119767  0.24999983  1  1.221933  0  0.872658  0.502274  0  3.869848  0
Fe  Fe3  1  0.25000018  0.74880135  0.75000033  1  1.22185  0  0.872619  0.502276  0  3.869728  0
H  H4  1  0.44452959  0.28264536  0.78873565  1  0.123593  0  0.124992  0.103276  0  0.995682  0
H  H5  1  0.05547059  0.28264529  0.71126435  1  0.123597  0  0.124997  0.103287  0  0.995699  0
H  H6  1  0.94453042  0.21735344  0.21126313  1  0.123616  0  0.124978  0.103224  0  0.995725  0
H  H7  1  0.55546991  0.21735338  0.28873712  1  0.123618  0  0.124977  0.103216  0  0.995731  0
H  H8  1  0.55546903  0.71735256  0.21126135  1  0.123645  0  0.125011  0.103269  0  0.99569  0
H  H9  1  0.94453079  0.71735262  0.28873831  1  0.123643  0  0.125006  0.10326  0  0.995701  0
H  H10  1  0.05547097  0.78264704  0.78873765  1  0.123638  0  0.124994  0.10325  0  0.995719  0
H  H11  1  0.44452871  0.78264710  0.71126240  1  0.123642  0  0.124996  0.103248  0  0.995705  0
H  H12  1  0.53287945  0.37756204  0.88298990  1  0.077667  0  0.109559  0.118047  0  0.996887  0
H  H13  1  0.96712112  0.37756274  0.61701060  1  0.077679  0  0.10956  0.118056  0  0.996907  0
H  H14  1  0.03287921  0.12243535  0.11700955  1  0.077651  0  0.109563  0.118069  0  0.996875  0
H  H15  1  0.46712143  0.12243607  0.38299083  1  0.077683  0  0.10955  0.118051  0  0.996881  0
H  H16  1  0.46712125  0.62243331  0.11700836  1  0.077652  0  0.109553  0.118043  0  0.996896  0
H  H17  1  0.03287889  0.62243390  0.38299143  1  0.077649  0  0.109566  0.118049  0  0.996885  0
H  H18  1  0.96712148  0.87756449  0.88299060  1  0.077688  0  0.109561  0.118063  0  0.996897  0
H  H19  1  0.53287857  0.87756441  0.61700994  1  0.077648  0  0.109565  0.11807  0  0.996859  0
H  H20  1  0.27504484  0.50429525  0.94367287  1  0.094567  0  0.102866  0.110367  0  1.024694  0
H  H21  1  0.22495612  0.50429523  0.55632715  1  0.094561  0  0.102856  0.110369  0  1.024682  0
H  H22  1  0.77504326  0.99570442  0.05632871  1  0.094537  0  0.102857  0.110375  0  1.024695  0
H  H23  1  0.72495666  0.99570442  0.44367161  1  0.094537  0  0.102874  0.110409  0  1.024673  0
H  H24  1  0.72495724  0.49570267  0.05632916  1  0.094589  0  0.10287  0.110396  0  1.024638  0
H  H25  1  0.77504319  0.49570269  0.44367111  1  0.094597  0  0.102871  0.110399  0  1.02464  0
H  H26  1  0.22495605  0.00429670  0.94367081  1  0.094608  0  0.102861  0.110398  0  1.024679  0
H  H27  1  0.27504334  0.00429669  0.55632917  1  0.0946  0  0.102861  0.110401  0  1.024666  0
H  H28  1  0.19665254  0.40138438  0.84852902  1  0.070294  0  0.117858  0.09031  0  1.02693  0
H  H29  1  0.30334769  0.40138439  0.65147099  1  0.070288  0  0.117857  0.090314  0  1.026919  0
H  H30  1  0.69665220  0.09861498  0.15147078  1  0.070261  0  0.117839  0.090286  0  1.026986  0
H  H31  1  0.80334809  0.09861437  0.34852883  1  0.070257  0  0.117835  0.090282  0  1.026969  0
H  H32  1  0.80334885  0.59861546  0.15146987  1  0.070262  0  0.117843  0.090307  0  1.026943  0
H  H33  1  0.69665093  0.59861481  0.34853042  1  0.070258  0  0.117839  0.090298  0  1.02694  0
H  H34  1  0.30334780  0.90138614  0.84852873  1  0.070265  0  0.117832  0.090274  0  1.026986  0
H  H35  1  0.19665191  0.90138611  0.65147069  1  0.070258  0  0.117834  0.09027  0  1.026982  0
H  H36  1  0.41562594  0.56011681  0.00629672  1  0.058697  0  0.100204  0.09961  0  1.014936  0
H  H37  1  0.08437486  0.56011678  0.49370306  1  0.058693  0  0.10022  0.099633  0  1.014883  0
H  H38  1  0.91562423  0.93987970  0.99370382  1  0.058615  0  0.100221  0.099595  0  1.015009  0
H  H39  1  0.58437584  0.93987963  0.50629673  1  0.058616  0  0.100218  0.099584  0  1.015009  0
H  H40  1  0.58437891  0.43987726  0.99370280  1  0.05856  0  0.100176  0.099536  0  1.015022  0
H  H41  1  0.91562237  0.43987730  0.50629708  1  0.058578  0  0.100173  0.099539  0  1.015001  0
H  H42  1  0.08437508  0.06012142  0.00629633  1  0.058604  0  0.100213  0.099585  0  1.015021  0
H  H43  1  0.41562416  0.06012085  0.49370341  1  0.0586  0  0.100205  0.099571  0  1.015028  0
H  H44  1  0.13948621  0.09393835  0.79011705  1  0.137951  0  0.119548  0.093391  0  1.016732  0
H  H45  1  0.36051390  0.09393838  0.70988294  1  0.137949  0  0.119547  0.093403  0  1.016729  0
H  H46  1  0.63948572  0.40606291  0.20988115  1  0.137917  0  0.119539  0.093399  0  1.016692  0
H  H47  1  0.86051468  0.40606231  0.29011785  1  0.137926  0  0.119534  0.093405  0  1.016713  0
H  H48  1  0.86051517  0.90606405  0.20988121  1  0.137917  0  0.11953  0.093348  0  1.016709  0
H  H49  1  0.63948472  0.90606338  0.29011910  1  0.137918  0  0.119529  0.093358  0  1.016727  0
H  H50  1  0.36051429  0.59393564  0.79011836  1  0.137927  0  0.119534  0.093376  0  1.016729  0
H  H51  1  0.13948532  0.59393625  0.70988229  1  0.137935  0  0.119541  0.093379  0  1.016724  0
H  H52  1  0.04154562  0.99232200  0.70957959  1  0.085642  0  0.107628  0.116078  0  1.000922  0
H  H53  1  0.45845482  0.99232207  0.79042047  1  0.085633  0  0.10764  0.11609  0  1.000915  0
H  H54  1  0.54154626  0.50768016  0.29041995  1  0.085584  0  0.107652  0.116116  0  1.000962  0
H  H55  1  0.95845349  0.50767958  0.20958033  1  0.085596  0  0.107609  0.116034  0  1.00096  0
H  H56  1  0.95845369  0.00768232  0.29041993  1  0.085554  0  0.10767  0.116081  0  1.000975  0
H  H57  1  0.54154657  0.00768225  0.20958031  1  0.085548  0  0.107664  0.116091  0  1.000961  0
H  H58  1  0.45845374  0.49231776  0.70958020  1  0.085576  0  0.107664  0.116094  0  1.000937  0
H  H59  1  0.04154583  0.49231834  0.79042045  1  0.08558  0  0.107667  0.116097  0  1.000937  0
H  H60  1  0.12864494  0.12311902  0.48232702  1  0.077141  0  0.104508  0.116898  0  1.012896  0
H  H61  1  0.37135432  0.12311904  0.01767335  1  0.077149  0  0.104517  0.116899  0  1.01289  0
H  H62  1  0.62864737  0.37688224  0.51767174  1  0.076795  0  0.104529  0.116924  0  1.012865  0
H  H63  1  0.87135320  0.37688166  0.98232750  1  0.077108  0  0.104526  0.116914  0  1.012867  0
H  H64  1  0.87135437  0.87688338  0.51767123  1  0.076812  0  0.104506  0.116886  0  1.012954  0
H  H65  1  0.62864568  0.87688336  0.98232805  1  0.0768  0  0.104531  0.116913  0  1.012882  0
H  H66  1  0.37135471  0.62311695  0.48232778  1  0.07684  0  0.104518  0.116917  0  1.012899  0
H  H67  1  0.12864611  0.62311690  0.01767264  1  0.076836  0  0.104527  0.116922  0  1.012852  0
H  H68  1  0.22409774  0.21697212  0.57172741  1  0.118494  0  0.125673  0.105297  0  0.990929  0
H  H69  1  0.27590242  0.21697214  0.92827259  1  0.118502  0  0.125648  0.105218  0  0.990971  0
H  H70  1  0.72409809  0.28302853  0.42827193  1  0.118557  0  0.125644  0.105228  0  0.990974  0
H  H71  1  0.77590157  0.28302852  0.07172769  1  0.11855  0  0.125647  0.105252  0  0.990953  0
H  H72  1  0.77590296  0.78303028  0.42827148  1  0.11855  0  0.125657  0.105229  0  0.990991  0
H  H73  1  0.72409620  0.78303026  0.07172819  1  0.11854  0  0.125659  0.105229  0  0.990987  0
H  H74  1  0.27590399  0.71697002  0.57172695  1  0.118569  0  0.125672  0.105262  0  0.990974  0
H  H75  1  0.22409636  0.71697003  0.92827245  1  0.118582  0  0.125663  0.105237  0  0.990993  0
H  H76  1  0.98455510  0.93875460  0.57515278  1  0.09553  0  0.098047  0.097709  0  1.030384  0
H  H77  1  0.51544497  0.93875454  0.92484714  1  0.095517  0  0.098046  0.097682  0  1.030405  0
H  H78  1  0.48455708  0.56124834  0.42484754  1  0.095329  0  0.098049  0.097678  0  1.030366  0
H  H79  1  0.01544303  0.56124825  0.07515224  1  0.09533  0  0.09807  0.097706  0  1.030407  0
H  H80  1  0.01544214  0.06125037  0.42484736  1  0.095279  0  0.098071  0.09771  0  1.030358  0
H  H81  1  0.48455711  0.06125042  0.07515238  1  0.095279  0  0.098067  0.097712  0  1.030368  0
H  H82  1  0.51544292  0.43875022  0.57515261  1  0.09528  0  0.098075  0.09771  0  1.030366  0
H  H83  1  0.98455697  0.43875031  0.92484727  1  0.095291  0  0.09808  0.097742  0  1.030346  0
C  C84  1  0.40968449  0.33224752  0.82486567  1  0.45693  0  0.040735  0.068375  0  3.929318  0
C  C85  1  0.09031571  0.33224746  0.67513433  1  0.456843  0  0.040773  0.068408  0  3.929297  0
C  C86  1  0.90968435  0.16775063  0.17513416  1  0.45688  0  0.040776  0.068476  0  3.929237  0
C  C87  1  0.59031597  0.16775123  0.32486609  1  0.456873  0  0.040775  0.0685  0  3.929274  0
C  C88  1  0.59031482  0.66774976  0.17513195  1  0.456976  0  0.040751  0.068412  0  3.929199  0
C  C89  1  0.90968499  0.66774982  0.32486770  1  0.456974  0  0.040752  0.068413  0  3.9292  0
C  C90  1  0.09031635  0.83224921  0.82486599  1  0.45688  0  0.040758  0.068422  0  3.929261  0
C  C91  1  0.40968335  0.83224925  0.67513406  1  0.456883  0  0.040769  0.068453  0  3.929221  0
C  C92  1  0.45841145  0.38615016  0.87780312  1  -0.037086  0  -0.082523  -0.164796  0  3.947158  0
C  C93  1  0.04158877  0.38615073  0.62219752  1  -0.03708  0  -0.082543  -0.164818  0  3.947196  0
C  C94  1  0.95841090  0.11384608  0.12219700  1  -0.037062  0  -0.082548  -0.164849  0  3.947157  0
C  C95  1  0.54158870  0.11384730  0.37780387  1  -0.037096  0  -0.08253  -0.164808  0  3.9471  0
C  C96  1  0.54158786  0.61384455  0.12219640  1  -0.037084  0  -0.082502  -0.164713  0  3.946992  0
C  C97  1  0.95841192  0.61384527  0.37780389  1  -0.037074  0  -0.082484  -0.16469  0  3.94701  0
C  C98  1  0.04158841  0.88615376  0.87780314  1  -0.037097  0  -0.082515  -0.16478  0  3.947087  0
C  C99  1  0.45841061  0.88615445  0.62219691  1  -0.037045  0  -0.082534  -0.164805  0  3.947104  0
C  C100  1  0.41176202  0.44980190  0.92438624  1  0.024132  0  0.00398  0.145715  0  4.024639  0
C  C101  1  0.08823823  0.44980247  0.57561440  1  0.02414  0  0.003999  0.14572  0  4.024622  0
C  C102  1  0.91176180  0.05019625  0.07561360  1  0.024155  0  0.003959  0.145682  0  4.024528  0
C  C103  1  0.58823847  0.05019621  0.42438664  1  0.024155  0  0.003951  0.145649  0  4.024572  0
C  C104  1  0.58823868  0.55019346  0.07561391  1  0.024131  0  0.003961  0.145627  0  4.024693  0
C  C105  1  0.91176178  0.55019352  0.42438637  1  0.024136  0  0.003975  0.145664  0  4.024628  0
C  C106  1  0.08823889  0.94980423  0.92438591  1  0.024152  0  0.003976  0.145708  0  4.024574  0
C  C107  1  0.41176153  0.94980362  0.57561414  1  0.024144  0  0.003942  0.145631  0  4.024611  0
C  C108  1  0.31576654  0.45600335  0.91071201  1  -0.061689  0  -0.084965  -0.173816  0  3.93621  0
C  C109  1  0.18423440  0.45600332  0.58928864  1  -0.061689  0  -0.084946  -0.173816  0  3.9362  0
C  C110  1  0.81576504  0.04399604  0.08928851  1  -0.061656  0  -0.084896  -0.173767  0  3.936034  0
C  C111  1  0.68423454  0.04399604  0.41071172  1  -0.061663  0  -0.084934  -0.173854  0  3.936022  0
C  C112  1  0.68423416  0.54399520  0.08928814  1  -0.061762  0  -0.084945  -0.173815  0  3.936158  0
C  C113  1  0.81576630  0.54399588  0.41071214  1  -0.06175  0  -0.084979  -0.173875  0  3.93615  0
C  C114  1  0.18423427  0.95600507  0.91071100  1  -0.061734  0  -0.084929  -0.173864  0  3.936136  0
C  C115  1  0.31576546  0.95600508  0.58928905  1  -0.061712  0  -0.084906  -0.173815  0  3.935978  0
C  C116  1  0.27114199  0.39919571  0.85735559  1  0.495278  0  0.040722  0.073696  0  3.932532  0
C  C117  1  0.22885824  0.39919569  0.64264442  1  0.495259  0  0.040699  0.073661  0  3.932558  0
C  C118  1  0.77113952  0.10080431  0.14264592  1  0.495378  0  0.040703  0.073672  0  3.932542  0
C  C119  1  0.72886078  0.10080560  0.35735495  1  0.495197  0  0.040737  0.073767  0  3.932422  0
C  C120  1  0.72886009  0.60080413  0.14264392  1  0.495257  0  0.040676  0.073608  0  3.932495  0
C  C121  1  0.77113969  0.60080350  0.35735573  1  0.495255  0  0.040695  0.073656  0  3.932501  0
C  C122  1  0.22886049  0.89919552  0.85735423  1  0.495388  0  0.040713  0.073717  0  3.93253  0
C  C123  1  0.27113923  0.89919488  0.64264583  1  0.495384  0  0.040711  0.073716  0  3.932452  0
C  C124  1  0.45671030  0.50565808  0.98463980  1  0.015501  0  -0.083531  -0.119521  0  3.970663  0
C  C125  1  0.04329066  0.50565799  0.51536022  1  0.015466  0  -0.083593  -0.119552  0  3.970741  0
C  C126  1  0.95670912  0.99433908  0.01535910  1  -0.090261  0  -0.08358  -0.119501  0  3.970588  0
C  C127  1  0.54329150  0.99433968  0.48464059  1  -0.090248  0  -0.083567  -0.119466  0  3.970576  0
C  C128  1  0.54329108  0.49433791  0.01535909  1  -0.090283  0  -0.08355  -0.119417  0  3.970678  0
C  C129  1  0.95671073  0.49433864  0.48464118  1  -0.090259  0  -0.08353  -0.119435  0  3.970745  0
C  C130  1  0.04329089  0.00566140  0.98464042  1  0.015512  0  -0.083572  -0.119494  0  3.970602  0
C  C131  1  0.45670851  0.00566208  0.51535956  1  0.015515  0  -0.083551  -0.119449  0  3.970574  0
C  C132  1  0.13536281  0.09765000  0.72182798  1  0.43328  0  0.042187  0.074313  0  3.927732  0
C  C133  1  0.36463731  0.09765004  0.77817201  1  0.433283  0  0.042169  0.07427  0  3.927811  0
C  C134  1  0.63536211  0.40235062  0.27817146  1  0.433298  0  0.042216  0.074385  0  3.927604  0
C  C135  1  0.86463760  0.40235129  0.22182881  1  0.433274  0  0.042203  0.074324  0  3.927672  0
C  C136  1  0.86463720  0.90235111  0.27817154  1  0.433308  0  0.042264  0.074424  0  3.927584  0
C  C137  1  0.63536200  0.90235108  0.22182814  1  0.433315  0  0.04224  0.074369  0  3.927649  0
C  C138  1  0.36463651  0.59764794  0.72182806  1  0.433308  0  0.042209  0.074303  0  3.927723  0
C  C139  1  0.13536310  0.59764790  0.77817197  1  0.4333  0  0.042201  0.074299  0  3.927712  0
C  C140  1  0.08064930  0.04147282  0.67612536  1  -0.06577  0  -0.082832  -0.174797  0  3.938937  0
C  C141  1  0.41935149  0.04147288  0.82387399  1  -0.065797  0  -0.082874  -0.174837  0  3.938974  0
C  C142  1  0.58064965  0.45852906  0.32387438  1  -0.065746  0  -0.082878  -0.174877  0  3.93896  0
C  C143  1  0.91934938  0.45852911  0.17612526  1  -0.065741  0  -0.082835  -0.174771  0  3.938876  0
C  C144  1  0.91934932  0.95853086  0.32387416  1  -0.065766  0  -0.082965  -0.174842  0  3.938963  0
C  C145  1  0.58064990  0.95853080  0.17612615  1  -0.065784  0  -0.082957  -0.17486  0  3.939001  0
C  C146  1  0.41934966  0.54146885  0.67612514  1  -0.06576  0  -0.08293  -0.174827  0  3.938908  0
C  C147  1  0.08064993  0.54146881  0.82387488  1  -0.065771  0  -0.08294  -0.174813  0  3.938921  0
C  C148  1  0.07362142  0.04916523  0.58791856  1  0.027838  0  0.003194  0.143083  0  4.029197  0
C  C149  1  0.42638007  0.04916594  0.91208016  1  0.02787  0  0.003172  0.143014  0  4.029128  0
C  C150  1  0.57362241  0.45083601  0.41208176  1  0.027857  0  0.003166  0.143008  0  4.029213  0
C  C151  1  0.92637732  0.45083605  0.08791788  1  0.027851  0  0.003168  0.143053  0  4.029114  0
C  C152  1  0.92637789  0.95083845  0.41208096  1  0.027823  0  0.003195  0.143017  0  4.029262  0
C  C153  1  0.57362201  0.95083838  0.08791935  1  0.027826  0  0.003171  0.143022  0  4.029174  0
C  C154  1  0.42637760  0.54916190  0.58791775  1  0.027786  0  0.003227  0.143112  0  4.02906  0
C  C155  1  0.07362269  0.54916186  0.91208227  1  0.027782  0  0.003202  0.14306  0  4.029252  0
C  C156  1  0.12831595  0.11341669  0.55021159  1  -0.006898  0  -0.084293  -0.167741  0  3.94918  0
C  C157  1  0.37168487  0.11341610  0.94978777  1  -0.006928  0  -0.084229  -0.167622  0  3.949119  0
C  C158  1  0.62831788  0.38658521  0.44978780  1  -0.006559  0  -0.084243  -0.167649  0  3.949237  0
C  C159  1  0.87168183  0.38658523  0.05021246  1  -0.006873  0  -0.084225  -0.167628  0  3.94921  0
C  C160  1  0.87168337  0.88658699  0.44978730  1  -0.006567  0  -0.084214  -0.167588  0  3.949226  0
C  C161  1  0.62831582  0.88658694  0.05021301  1  -0.006552  0  -0.084253  -0.167649  0  3.949165  0
C  C162  1  0.37168351  0.61341334  0.55021234  1  -0.006601  0  -0.084261  -0.167681  0  3.949169  0
C  C163  1  0.12831679  0.61341332  0.94978768  1  -0.0066  0  -0.084246  -0.167674  0  3.949154  0
C  C164  1  0.18172355  0.16684777  0.59954706  1  0.390434  0  0.040363  0.069937  0  3.927047  0
C  C165  1  0.31827659  0.16684716  0.90045293  1  0.390453  0  0.040325  0.069938  0  3.927112  0
C  C166  1  0.68172441  0.33315351  0.40045265  1  0.390394  0  0.040319  0.069931  0  3.92715  0
C  C167  1  0.81827527  0.33315352  0.09954698  1  0.390384  0  0.040319  0.069892  0  3.927204  0
C  C168  1  0.81827714  0.83315335  0.40045308  1  0.390513  0  0.040305  0.069895  0  3.927041  0
C  C169  1  0.68172272  0.83315332  0.09954659  1  0.390516  0  0.040315  0.069923  0  3.927045  0
C  C170  1  0.31827628  0.66684569  0.59954687  1  0.39041  0  0.040302  0.069875  0  3.927117  0
C  C171  1  0.18172404  0.66684568  0.90045317  1  0.390405  0  0.040321  0.069938  0  3.927078  0
C  C172  1  0.01222291  0.99382574  0.54080402  1  -0.112988  0  -0.084107  -0.119649  0  3.959409  0
C  C173  1  0.48777753  0.99382519  0.95919541  1  -0.112894  0  -0.084065  -0.119493  0  3.959252  0
C  C174  1  0.51222477  0.50617640  0.45919660  1  -0.112791  0  -0.084078  -0.119589  0  3.95929  0
C  C175  1  0.98777497  0.50617646  0.04080367  1  -0.112817  0  -0.084114  -0.119629  0  3.959366  0
C  C176  1  0.98777433  0.00617986  0.45919612  1  -0.014864  0  -0.084108  -0.119677  0  3.959434  0
C  C177  1  0.51222524  0.00617977  0.04080348  1  -0.014951  0  -0.084087  -0.119732  0  3.959342  0
C  C178  1  0.48777592  0.49382151  0.54080355  1  -0.014851  0  -0.084121  -0.119681  0  3.959273  0
C  C179  1  0.01222503  0.49382146  0.95919647  1  -0.014825  0  -0.08412  -0.119735  0  3.959442  0
C  C180  1  0.08910597  0.24538073  0.87759723  1  0.488487  0  0.126961  0.233907  0  4.366987  0
C  C181  1  0.41089489  0.24538077  0.62240213  1  0.488169  0  0.126979  0.234008  0  4.366969  0
C  C182  1  0.58910479  0.25461859  0.12240696  1  0.488103  0  0.126965  0.233929  0  4.367169  0
C  C183  1  0.91089487  0.25461865  0.37759329  1  0.488106  0  0.127001  0.234007  0  4.367101  0
C  C184  1  0.91089472  0.75462167  0.12241047  1  0.488438  0  0.126981  0.233994  0  4.366804  0
C  C185  1  0.58910511  0.75462163  0.37758919  1  0.488499  0  0.127012  0.234034  0  4.367008  0
C  C186  1  0.41089037  0.74538060  0.87759318  1  0.488691  0  0.127027  0.234006  0  4.367164  0
C  C187  1  0.08910998  0.74538118  0.62240622  1  0.48868  0  0.127019  0.23398  0  4.36722  0
S  S188  1  0.00265748  0.24092327  0.94199611  1  0.064066  0  -0.224165  -0.389915  0  2.24934  0
S  S189  1  0.49734200  0.24092333  0.55800452  1  0.064359  0  -0.22418  -0.389957  0  2.249424  0
S  S190  1  0.50265721  0.25907923  0.05800882  1  0.064582  0  -0.224189  -0.389931  0  2.249415  0
S  S191  1  0.99734245  0.25907932  0.44199143  1  0.064587  0  -0.224201  -0.389962  0  2.249395  0
S  S192  1  0.99734460  0.75907849  0.05801223  1  0.064307  0  -0.224219  -0.389996  0  2.249278  0
S  S193  1  0.50265523  0.75907843  0.44198807  1  0.064286  0  -0.224243  -0.390034  0  2.249273  0
S  S194  1  0.49733865  0.74091997  0.94199699  1  0.064029  0  -0.224265  -0.390043  0  2.24916  0
S  S195  1  0.00266240  0.74092052  0.55800242  1  0.064049  0  -0.224237  -0.389991  0  2.249235  0
N  N196  1  0.31643504  0.33658449  0.81516264  1  -1.191407  0  -0.341928  -0.169015  0  3.633028  0
N  N197  1  0.18356586  0.33658447  0.68483736  1  -1.191328  0  -0.341949  -0.16903  0  3.633046  0
N  N198  1  0.81643496  0.16341554  0.18483725  1  -1.191457  0  -0.341918  -0.169014  0  3.633001  0
N  N199  1  0.68356466  0.16341553  0.31516236  1  -1.191269  0  -0.341946  -0.169097  0  3.633108  0
N  N200  1  0.68356428  0.66341534  0.18483561  1  -1.191361  0  -0.34192  -0.168991  0  3.632963  0
N  N201  1  0.81643553  0.66341537  0.31516405  1  -1.191355  0  -0.341917  -0.168995  0  3.632956  0
N  N202  1  0.18356504  0.83658429  0.81516289  1  -1.191477  0  -0.34193  -0.169033  0  3.633042  0
N  N203  1  0.31643465  0.83658431  0.68483652  1  -1.191492  0  -0.341931  -0.16904  0  3.633015  0
N  N204  1  0.18462273  0.16121590  0.68489910  1  -1.15979  0  -0.343704  -0.167114  0  3.639287  0
N  N205  1  0.31537741  0.16121656  0.81510089  1  -1.159789  0  -0.343658  -0.167079  0  3.639304  0
N  N206  1  0.68462298  0.33878474  0.31509937  1  -1.15977  0  -0.343705  -0.167193  0  3.639254  0
N  N207  1  0.81537671  0.33878476  0.18490026  1  -1.159754  0  -0.343684  -0.16715  0  3.639272  0
N  N208  1  0.81537727  0.83878650  0.31510042  1  -1.159836  0  -0.343663  -0.167088  0  3.639205  0
N  N209  1  0.68462190  0.83878584  0.18489926  1  -1.159823  0  -0.34367  -0.167076  0  3.63919  0
N  N210  1  0.31537703  0.66121381  0.68489952  1  -1.159754  0  -0.343657  -0.167081  0  3.639291  0
N  N211  1  0.18462260  0.66121380  0.81509989  1  -1.159752  0  -0.343661  -0.167088  0  3.639269  0
N  N212  1  0.15298817  0.24866312  0.83047232  1  -1.306859  0  -0.43326  -0.464748  0  3.57628  0
N  N213  1  0.34701132  0.24866250  0.66952767  1  -1.306835  0  -0.433275  -0.464853  0  3.576286  0
N  N214  1  0.65298801  0.25133943  0.16953100  1  -1.306962  0  -0.433288  -0.464805  0  3.57647  0
N  N215  1  0.84701164  0.25133947  0.33046863  1  -1.30697  0  -0.433299  -0.464832  0  3.576442  0
N  N216  1  0.84701045  0.75133864  0.16953223  1  -1.307028  0  -0.433304  -0.46482  0  3.576272  0
N  N217  1  0.65298869  0.75133862  0.33046806  1  -1.307082  0  -0.433302  -0.464809  0  3.57648  0
N  N218  1  0.34701337  0.74865912  0.83047104  1  -1.307007  0  -0.433281  -0.464765  0  3.576622  0
N  N219  1  0.15298698  0.74865909  0.66952900  1  -1.306999  0  -0.43328  -0.464771  0  3.576585  0
