# generated using pymatgen
data_Fe2H18(C4O3)3
_symmetry_space_group_name_H-M   'P 1'
_cell_length_a   7.44870883
_cell_length_b   8.94423812
_cell_length_c   11.39067568
_cell_angle_alpha   107.72953142
_cell_angle_beta   109.29826190
_cell_angle_gamma   89.74817698
_symmetry_Int_Tables_number   1
_chemical_formula_structural   Fe2H18(C4O3)3
_chemical_formula_sum   'Fe4 H36 C24 O18'
_cell_volume   678.30131735
_cell_formula_units_Z   2
loop_
 _symmetry_equiv_pos_site_id
 _symmetry_equiv_pos_as_xyz
  1  'x, y, z'
loop_
 _atom_site_type_symbol
 _atom_site_label
 _atom_site_symmetry_multiplicity
 _atom_site_fract_x
 _atom_site_fract_y
 _atom_site_fract_z
 _atom_site_occupancy
 _atom_site_hle17_ddec_charge
 _atom_site_hle17_ddec_spin_density
 _atom_site_hle17_ddec_sum_bond_order
 _atom_site_hle17_magmom
 _atom_site_hse06_10hf_ddec_charge
 _atom_site_hse06_10hf_ddec_spin_density
 _atom_site_hse06_10hf_ddec_sum_bond_order
 _atom_site_hse06_10hf_magmom
 _atom_site_hse06_ddec_charge
 _atom_site_hse06_ddec_spin_density
 _atom_site_hse06_ddec_sum_bond_order
 _atom_site_hse06_magmom
 _atom_site_pbe_cm5_charge
 _atom_site_pbe_ddec_charge
 _atom_site_pbe_ddec_spin_density
 _atom_site_pbe_ddec_sum_bond_order
 _atom_site_pbe_magmom
Fe  Fe0  1  0.81872557  0.96054793  0.04527943  1  1.160952  -3.85919  1.830394  -3.645  1.044586  -3.814275  2.285795  -3.635  1.117046  -3.868553  2.209592  -3.702  0.658136  0.985027  -3.756898  2.342996  -3.564
Fe  Fe1  1  0.77417532  0.53883384  0.95361827  1  1.163414  3.856831  1.825774  3.645  1.048738  3.831471  2.279853  3.639  1.120693  3.869491  2.20392  3.703  0.660651  0.991661  3.79196  2.337656  3.577
Fe  Fe2  1  0.17879815  0.04042371  0.95564935  1  1.162708  3.85756  1.835665  3.647  1.047401  3.832198  2.290659  3.64  1.119047  3.869265  2.214613  3.703  0.66152  0.988648  3.791444  2.351104  3.576
Fe  Fe3  1  0.22814459  0.45873868  0.04660943  1  1.163676  3.858741  1.833531  3.649  1.049358  3.835219  2.287578  3.643  1.119702  3.869745  2.211988  3.704  0.665716  0.998293  3.809484  2.345349  3.593
H  H4  1  0.34463117  0.71880307  0.30697226  1  0.110162  -0.000334  0.955953  0.0  0.122292  -0.000276  1.021476  0.0  0.124887  -0.00026  1.020051  0.0  0.102272  0.120132  -0.000283  1.022822  0.0
H  H5  1  0.03743392  0.78130075  0.69303868  1  0.111958  -4.9e-05  0.955323  0.0  0.123949  3e-05  1.020565  0.0  0.126754  -5e-06  1.018968  0.0  0.102505  0.12139  9e-06  1.022287  0.0
H  H6  1  0.65605480  0.28105172  0.69362046  1  0.110434  4.1e-05  0.95631  0.001  0.123101  0.000317  1.021342  0.001  0.125704  0.000188  1.019888  0.001  0.102577  0.120603  0.000322  1.023122  0.001
H  H7  1  0.96149086  0.21897899  0.30712766  1  0.110979  0.000384  0.956131  0.0  0.123839  0.000501  1.021068  0.001  0.126448  0.000414  1.019654  0.0  0.102978  0.121552  0.00052  1.022619  0.001
H  H8  1  0.14628728  0.64416721  0.32753990  1  0.1123  -0.000157  0.948192  0.0  0.12567  -0.000186  1.013054  0.0  0.127895  -0.000212  1.012616  0.0  0.105125  0.123641  -0.000179  1.0142  0.0
H  H9  1  0.81745892  0.85562537  0.67272761  1  0.112334  -0.000229  0.948297  0.0  0.125345  -0.000182  1.013553  0.0  0.127775  -0.000139  1.013022  0.0  0.104333  0.122497  -0.000329  1.015244  -0.001
H  H10  1  0.85356501  0.35612029  0.67239458  1  0.112843  -0.000145  0.947453  0.0  0.126561  1.8e-05  1.012189  0.0  0.128838  -6.2e-05  1.011711  0.0  0.105329  0.124004  -1e-06  1.013784  0.0
H  H11  1  0.18109958  0.14386527  0.32810327  1  0.112979  0.000233  0.946273  0.0  0.126357  0.000356  1.011913  0.0  0.128776  0.000297  1.011296  0.0  0.105183  0.123326  0.000308  1.01403  0.0
H  H12  1  0.09421698  0.93270866  0.44046402  1  0.062901  3.1e-05  0.943618  0.0  0.082124  2.2e-05  1.006421  0.0  0.083133  4.6e-05  1.006344  0.0  0.089627  0.081435  8e-06  1.006531  0.0
H  H13  1  0.65380892  0.56771531  0.55924299  1  0.062749  -5e-06  0.943215  0.0  0.08156  1.9e-05  1.006045  0.0  0.082532  -1.4e-05  1.006024  0.0  0.089532  0.080861  6.9e-05  1.00609  0.0
H  H14  1  0.90597263  0.06732404  0.55952069  1  0.062797  -3.3e-05  0.943676  0.0  0.081943  -1.9e-05  1.006408  0.0  0.082984  -4.3e-05  1.006287  0.0  0.089567  0.081078  1.8e-05  1.006659  0.0
H  H15  1  0.34542342  0.43189222  0.44071024  1  0.0625  -3.5e-05  0.943934  0.0  0.081665  -1.6e-05  1.006548  0.0  0.082576  -3.9e-05  1.0066  0.0  0.089449  0.080972  6e-06  1.0065  0.0
H  H16  1  0.31609101  0.99248025  0.43705637  1  0.057265  1.6e-05  0.954723  0.0  0.079173  3.1e-05  1.014928  0.0  0.07919  2.4e-05  1.01619  0.0  0.088523  0.078895  3.5e-05  1.015175  0.0
H  H17  1  0.87947820  0.50724714  0.56276295  1  0.057986  -1e-06  0.95493  0.0  0.079322  -7e-06  1.015081  0.0  0.079352  -7e-06  1.016369  0.0  0.088396  0.078937  -1.3e-05  1.015351  0.0
H  H18  1  0.68407549  0.00770975  0.56290947  1  0.057436  -1.2e-05  0.954174  0.0  0.07947  -1.4e-05  1.01409  0.0  0.079434  -1.3e-05  1.015442  0.0  0.088599  0.079037  -1.7e-05  1.014383  0.0
H  H19  1  0.11995154  0.49265750  0.43731606  1  0.058398  -1.9e-05  0.954306  0.0  0.080053  -2.1e-05  1.014282  0.0  0.08009  -1.8e-05  1.015544  0.0  0.08866  0.07954  -2.6e-05  1.014646  0.0
H  H20  1  0.47123473  0.80755441  0.56477253  1  0.060253  -8e-06  0.945127  0.0  0.082579  -1.6e-05  1.00355  0.0  0.082674  -7e-06  1.0051  0.0  0.088438  0.082598  -2.9e-05  1.002553  0.0
H  H21  1  0.90515925  0.69141389  0.43484119  1  0.060328  -4e-06  0.943073  0.0  0.082742  -0.0  1.001442  0.0  0.082884  -6e-06  1.002938  0.0  0.088644  0.082593  1.1e-05  1.000599  0.0
H  H22  1  0.52886688  0.19215780  0.43497013  1  0.060637  -1e-06  0.944703  0.0  0.082895  1.5e-05  1.003092  0.0  0.082995  8e-06  1.004611  0.0  0.088755  0.082876  2.2e-05  1.002161  0.0
H  H23  1  0.09464767  0.30872980  0.56564577  1  0.060657  -1.2e-05  0.943069  0.0  0.082618  1e-06  1.001636  0.0  0.082773  -6e-06  1.003103  0.0  0.088867  0.082564  3e-06  1.000738  0.0
H  H24  1  0.24757971  0.76159310  0.57334795  1  0.058426  7e-06  0.956242  0.0  0.078158  2.8e-05  1.020326  0.0  0.078509  1.6e-05  1.021367  0.0  0.088561  0.077274  4.3e-05  1.020907  0.0
H  H25  1  0.67302505  0.73901837  0.42661981  1  0.058035  -2.5e-05  0.956348  0.0  0.077776  -3.1e-05  1.020558  0.0  0.07818  -2.8e-05  1.021524  0.0  0.088486  0.076732  -3.4e-05  1.021265  0.0
H  H26  1  0.75265592  0.23899026  0.42697527  1  0.058353  1.8e-05  0.956611  0.0  0.078106  2.9e-05  1.020661  0.0  0.07843  3e-05  1.021716  0.0  0.08863  0.077259  2.4e-05  1.021164  0.0
H  H27  1  0.32683896  0.26132885  0.57378460  1  0.057871  -3e-06  0.955683  0.0  0.07773  1.7e-05  1.019453  0.0  0.078087  4e-06  1.020454  0.0  0.088432  0.076802  3e-05  1.02006  0.0
H  H28  1  0.47143593  0.09206243  0.68981507  1  0.101814  5.7e-05  0.957579  0.0  0.114735  -0.0  1.021517  0.0  0.116632  -8e-06  1.021261  0.0  0.096383  0.113285  -3e-06  1.022348  0.0
H  H29  1  0.77926597  0.40715412  0.31029547  1  0.102161  2.1e-05  0.957461  0.0  0.11539  0.000109  1.021694  0.0  0.117202  7.1e-05  1.021575  0.0  0.096847  0.114225  0.000142  1.022191  0.0
H  H30  1  0.53040321  0.90783467  0.31005954  1  0.101703  -0.000154  0.95651  0.0  0.115241  -0.000125  1.020135  0.0  0.117187  -0.000128  1.019886  0.0  0.096431  0.113474  -0.000124  1.021123  0.0
H  H31  1  0.22025989  0.59314050  0.68976406  1  0.102294  -6.7e-05  0.95736  0.0  0.115548  -3e-05  1.021571  0.0  0.117367  -5.8e-05  1.021465  0.0  0.09704  0.11424  -1e-06  1.022078  0.0
H  H32  1  0.23905525  0.04921711  0.69152841  1  0.113184  -0.000337  0.942629  0.0  0.125712  -0.000367  1.005129  0.0  0.128184  -0.000355  1.004293  0.0  0.101391  0.123824  -0.00036  1.006069  0.0
H  H33  1  0.54501864  0.45199593  0.30784385  1  0.111385  -4e-06  0.943592  0.0  0.124451  7e-05  1.006498  0.0  0.126781  -4e-06  1.005625  0.0  0.10144  0.12296  9.5e-05  1.007302  0.001
H  H34  1  0.76242239  0.95184076  0.30814922  1  0.112252  0.000344  0.943942  0.0  0.125151  0.000398  1.006638  0.0  0.127575  0.000356  1.005837  0.0  0.101243  0.123188  0.000438  1.007497  0.0
H  H35  1  0.45459864  0.54838624  0.69215387  1  0.111673  1.3e-05  0.942915  0.0  0.124833  0.000126  1.00585  0.0  0.127228  3.2e-05  1.00498  0.0  0.101252  0.123199  0.000237  1.006566  0.001
H  H36  1  0.48872939  0.78639707  0.93973814  1  0.424763  4.3e-05  0.871565  0.001  0.394912  -3.8e-05  0.94214  0.001  0.406538  -7.2e-05  0.92571  0.001  0.297561  0.3868  -1.8e-05  0.951887  0.001
H  H37  1  0.54812651  0.71310964  0.05909761  1  0.425113  -0.000318  0.870373  -0.001  0.394616  -0.000246  0.942058  -0.001  0.406489  -0.00027  0.925254  -0.001  0.296567  0.38571  -0.000258  0.952839  -0.001
H  H38  1  0.50921361  0.21259448  0.05821330  1  0.424598  0.000294  0.872178  0.001  0.394312  0.000647  0.943172  0.001  0.40588  0.00051  0.92681  0.001  0.297267  0.386804  0.00075  0.952387  0.002
H  H39  1  0.45133108  0.28718114  0.93914122  1  0.426856  0.000232  0.868342  0.001  0.396675  0.000629  0.93958  0.002  0.408502  0.000393  0.922851  0.002  0.297511  0.388009  0.00079  0.949793  0.002
C  C40  1  0.07679748  0.76355477  0.18999807  1  0.7565  -0.000509  3.729219  -0.002  0.704408  0.000497  4.029187  0.0  0.743904  9.1e-05  4.019446  -0.001  0.238135  0.675383  0.000699  4.034951  0.0
C  C41  1  0.88873418  0.73569102  0.81007208  1  0.76014  -0.001551  3.721167  -0.002  0.706498  0.000578  4.023671  0.002  0.746692  0.001153  4.013305  0.003  0.23647  0.674584  -0.00277  4.031789  -0.003
C  C42  1  0.92462139  0.23600487  0.80956723  1  0.758299  0.002702  3.723944  0.004  0.705942  0.007911  4.024334  0.012  0.745306  0.006146  4.0148  0.01  0.237644  0.675658  0.00662  4.03106  0.009
C  C43  1  0.11178449  0.26400144  0.19101944  1  0.760855  0.003978  3.72182  0.006  0.707778  0.005803  4.024211  0.009  0.747619  0.004478  4.013856  0.008  0.237187  0.676884  0.004666  4.032363  0.007
C  C44  1  0.20738817  0.75059932  0.31895821  1  -0.288995  -0.00076  3.679298  -0.001  -0.328695  -0.000421  3.93265  0.0  -0.335505  -0.000329  3.939498  0.0  -0.167633  -0.323053  -0.000449  3.927905  0.0
C  C45  1  0.88847458  0.74917397  0.68108514  1  -0.291223  0.000722  3.678314  0.002  -0.330284  0.000431  3.930887  0.001  -0.337568  0.000144  3.93798  0.001  -0.167788  -0.323545  0.000765  3.926149  0.002
C  C46  1  0.79309908  0.24950005  0.68109385  1  -0.28995  0.002235  3.678912  0.004  -0.330305  0.002177  3.931777  0.004  -0.337215  0.001394  3.938733  0.003  -0.167931  -0.324305  0.002913  3.92754  0.005
C  C47  1  0.11077170  0.25054341  0.31952529  1  -0.289542  0.002545  3.678301  0.004  -0.330558  0.00237  3.933024  0.003  -0.337587  0.001715  3.940043  0.002  -0.16828  -0.324428  0.002979  3.9287  0.004
C  C48  1  0.23412710  0.89262635  0.44036964  1  -0.078851  0.000179  3.699612  0.0  -0.125048  0.000164  3.966014  0.0  -0.124557  0.000154  3.979467  0.0  -0.167607  -0.125166  0.000182  3.956633  0.0
C  C49  1  0.79366497  0.60739482  0.55945007  1  -0.080407  -6.9e-05  3.701446  0.0  -0.124849  9.8e-05  3.965744  0.0  -0.124346  1.4e-05  3.979266  0.0  -0.167721  -0.124894  0.000163  3.956268  0.0
C  C50  1  0.76610234  0.10751278  0.55958352  1  -0.077887  0.000155  3.698825  0.0  -0.123786  0.000288  3.965132  0.0  -0.123277  0.000158  3.978564  0.0  -0.167257  -0.123834  0.000399  3.955978  0.001
C  C51  1  0.20567629  0.39249861  0.44081866  1  -0.0807  0.00016  3.703435  0.0  -0.125892  0.000326  3.968735  0.001  -0.125383  0.0002  3.982273  0.0  -0.167901  -0.125802  0.00045  3.959261  0.001
C  C52  1  0.33548741  0.85552854  0.56710209  1  -0.076767  0.000171  3.667741  0.0  -0.119604  0.000172  3.929102  0.0  -0.120003  0.00011  3.943547  0.0  -0.161969  -0.118797  0.000243  3.918888  0.0
C  C53  1  0.76719603  0.64438093  0.43270567  1  -0.075072  0.00011  3.663592  0.0  -0.117808  0.000329  3.92502  0.0  -0.118193  0.00022  3.93927  0.0  -0.161859  -0.116953  0.000456  3.915175  0.001
C  C54  1  0.66495527  0.14467386  0.43291775  1  -0.077416  -7e-06  3.669039  0.0  -0.120003  4.9e-05  3.930569  0.0  -0.120321  4.8e-05  3.944924  0.0  -0.162482  -0.119359  4.6e-05  3.92057  0.0
C  C55  1  0.23248890  0.35583912  0.56763721  1  -0.075696  0.000204  3.666347  0.0  -0.117359  0.000463  3.926896  0.001  -0.117698  0.000312  3.94117  0.0  -0.161758  -0.116648  0.000596  3.916923  0.001
C  C56  1  0.46154947  0.95742822  0.81385497  1  0.728144  0.00248  3.772307  0.003  0.67956  0.002464  4.068755  0.003  0.715964  0.001533  4.060921  0.001  0.225288  0.652804  0.00362  4.073844  0.005
C  C57  1  0.64653359  0.54174473  0.18575744  1  0.72798  0.004448  3.773146  0.007  0.678567  0.008168  4.071389  0.013  0.714574  0.005895  4.063773  0.01  0.225461  0.652852  0.010188  4.075692  0.015
C  C58  1  0.53833025  0.04336633  0.18639556  1  0.728102  -0.002792  3.772371  -0.004  0.677618  -0.00266  4.072096  -0.003  0.713793  -0.001753  4.064535  -0.002  0.224174  0.651549  -0.003982  4.077036  -0.005
C  C59  1  0.35308154  0.45812879  0.81403114  1  0.726198  0.004086  3.778326  0.006  0.6771  0.007679  4.076398  0.012  0.71297  0.005517  4.068678  0.009  0.223925  0.651969  0.009802  4.080908  0.014
C  C60  1  0.37438888  0.00050530  0.69004374  1  -0.281057  -0.001214  3.664835  -0.002  -0.320456  -0.000842  3.918594  -0.001  -0.326842  -0.00067  3.92598  -0.001  -0.170328  -0.315906  -0.001002  3.914033  -0.002
C  C61  1  0.68219006  0.49953341  0.30970394  1  -0.280888  0.000917  3.665026  0.002  -0.321701  0.000789  3.921168  0.001  -0.327877  0.000436  3.928477  0.001  -0.170408  -0.317593  0.001089  3.916376  0.002
C  C62  1  0.62684036  0.99991854  0.30986708  1  -0.280263  0.001317  3.664993  0.002  -0.321045  0.001011  3.92117  0.002  -0.327425  0.000738  3.928606  0.001  -0.170305  -0.316202  0.001316  3.916322  0.002
C  C63  1  0.31747009  0.50085078  0.69037027  1  -0.280287  0.001073  3.666543  0.002  -0.321657  0.000939  3.922562  0.001  -0.327976  0.000542  3.930139  0.001  -0.170564  -0.316971  0.001419  3.916813  0.002
O  O64  1  0.64156045  0.98507590  0.87193811  1  -0.612979  -0.024217  2.031773  -0.031  -0.544502  -0.022811  2.281581  -0.025  -0.579276  -0.019933  2.270815  -0.019  -0.306633  -0.51759  -0.025874  2.288642  -0.03
O  O65  1  0.76967798  0.51485014  0.12934188  1  -0.608605  0.028538  2.023232  0.042  -0.541047  0.029097  2.271358  0.039  -0.574624  0.024508  2.260542  0.031  -0.30379  -0.51622  0.033191  2.280395  0.047
O  O66  1  0.35828904  0.01650492  0.12953578  1  -0.609582  0.023716  2.031691  0.031  -0.540798  0.02277  2.281223  0.025  -0.575153  0.019698  2.270846  0.019  -0.304898  -0.516168  0.025159  2.290526  0.03
O  O67  1  0.23014188  0.48532176  0.87054102  1  -0.607217  0.027944  2.023595  0.042  -0.53959  0.028132  2.270576  0.039  -0.572482  0.02379  2.259341  0.031  -0.303341  -0.517044  0.031709  2.281926  0.047
O  O68  1  0.59919123  0.74940303  0.99965628  1  -0.88159  0.000134  2.044282  0.001  -0.830375  0.000224  2.294919  0.001  -0.858963  2.9e-05  2.255129  0.0  -0.560989  -0.806914  0.000738  2.319098  0.002
O  O69  1  0.39949367  0.25025140  0.99819592  1  -0.884756  0.027669  2.048499  0.044  -0.83425  0.032628  2.3021  0.046  -0.863095  0.028115  2.26267  0.039  -0.561892  -0.809436  0.038025  2.323172  0.055
O  O70  1  0.34912321  0.88992685  0.85193866  1  -0.675741  0.013159  2.062893  0.018  -0.610616  0.013365  2.31404  0.014  -0.642917  0.011852  2.301036  0.012  -0.315572  -0.585885  0.014585  2.322268  0.016
O  O71  1  0.49424769  0.60864906  0.14566591  1  -0.681979  0.01684  2.07055  0.024  -0.614072  0.017777  2.321992  0.022  -0.647374  0.014804  2.309941  0.017  -0.318726  -0.587774  0.022018  2.326698  0.028
O  O72  1  0.64983542  0.11107057  0.14751082  1  -0.677924  -0.013604  2.065677  -0.018  -0.610187  -0.013492  2.316811  -0.014  -0.642876  -0.012085  2.303977  -0.012  -0.314805  -0.585664  -0.01493  2.325119  -0.016
O  O73  1  0.50484109  0.39037663  0.85346542  1  -0.681456  0.016587  2.070687  0.025  -0.6145  0.017691  2.322522  0.022  -0.647336  0.014818  2.309774  0.018  -0.318508  -0.589284  0.021197  2.328939  0.028
O  O74  1  0.06228054  0.65021709  0.08471067  1  -0.665448  0.036755  2.181916  0.06  -0.609551  0.036145  2.479261  0.051  -0.648901  0.03142  2.463254  0.043  -0.307295  -0.578394  0.041312  2.487824  0.06
O  O75  1  0.97968159  0.84916937  0.91520348  1  -0.667518  0.0079  2.185214  0.015  -0.610593  0.007219  2.484349  0.013  -0.649984  0.005509  2.467398  0.009  -0.308131  -0.578912  0.009897  2.494931  0.018
O  O76  1  0.94030018  0.34921390  0.91530081  1  -0.669454  0.040343  2.188351  0.068  -0.61193  0.040701  2.485491  0.06  -0.651505  0.034607  2.46972  0.049  -0.308641  -0.581238  0.047423  2.49456  0.073
O  O77  1  0.02272054  0.14986686  0.08551520  1  -0.671567  -0.003179  2.189775  -0.004  -0.614468  -0.002222  2.489738  -0.002  -0.654261  -0.002287  2.472957  -0.002  -0.311171  -0.582803  -0.001589  2.500322  -0.001
O  O78  1  0.98004706  0.88103243  0.19107902  1  -0.626131  -0.027502  2.081359  -0.035  -0.561713  -0.026744  2.351513  -0.029  -0.598467  -0.023419  2.338525  -0.023  -0.301954  -0.532869  -0.029887  2.360019  -0.035
O  O79  1  0.79164433  0.61856516  0.80913362  1  -0.627696  0.031786  2.08055  0.044  -0.56397  0.031007  2.35323  0.038  -0.600027  0.026336  2.339515  0.03  -0.303641  -0.537019  0.035595  2.365208  0.048
O  O80  1  0.02072582  0.11812727  0.80790057  1  -0.624724  0.033461  2.079513  0.048  -0.560412  0.033688  2.34879  0.044  -0.596554  0.028194  2.335959  0.033  -0.302947  -0.533521  0.039034  2.360694  0.055
O  O81  1  0.20769596  0.38148813  0.19201799  1  -0.62598  0.029369  2.083646  0.041  -0.562531  0.029644  2.355984  0.037  -0.598206  0.02522  2.341573  0.028  -0.301983  -0.537436  0.033801  2.371518  0.047
