# generated using pymatgen
data_ZnH18C28O5
_symmetry_space_group_name_H-M   'P 1'
_cell_length_a   10.37539980
_cell_length_b   14.86984261
_cell_length_c   18.17804786
_cell_angle_alpha   89.99960714
_cell_angle_beta   90.00165642
_cell_angle_gamma   99.04485662
_symmetry_Int_Tables_number   1
_chemical_formula_structural   ZnH18C28O5
_chemical_formula_sum   'Zn4 H72 C112 O20'
_cell_volume   2769.64682945
_cell_formula_units_Z   4
loop_
 _symmetry_equiv_pos_site_id
 _symmetry_equiv_pos_as_xyz
  1  'x, y, z'
loop_
 _atom_site_type_symbol
 _atom_site_label
 _atom_site_symmetry_multiplicity
 _atom_site_fract_x
 _atom_site_fract_y
 _atom_site_fract_z
 _atom_site_occupancy
 _atom_site_pbe_bader_charge
 _atom_site_pbe_bader_spin_density
 _atom_site_pbe_cm5_charge
 _atom_site_pbe_ddec_charge
 _atom_site_pbe_ddec_spin_density
 _atom_site_pbe_ddec_sum_bond_order
 _atom_site_pbe_magmom
Zn  Zn0  1  0.57187785  0.93279387  0.48384330  1  1.305467  0  0.66877  0.901884  0  2.296485  0
Zn  Zn1  1  0.92811906  0.56720925  0.98384399  1  1.305275  0  0.668813  0.901969  0  2.296156  0
Zn  Zn2  1  0.42810339  0.06721007  0.51615205  1  1.30573  0  0.66889  0.902234  0  2.296009  0
Zn  Zn3  1  0.07190032  0.43279674  0.01616125  1  1.305829  0  0.66884  0.902161  0  2.29613  0
H  H4  1  0.88356256  0.68336639  0.60181845  1  0.070601  0  0.097486  0.100019  0  1.035649  0
H  H5  1  0.61642059  0.81662333  0.10181705  1  0.07038  0  0.097565  0.100104  0  1.035396  0
H  H6  1  0.11642432  0.31663334  0.39818349  1  0.070479  0  0.097588  0.100196  0  1.03548  0
H  H7  1  0.38356771  0.18336339  0.89817004  1  0.070729  0  0.097498  0.099997  0  1.03574  0
H  H8  1  0.81902230  0.67418352  0.73284811  1  0.039657  0  0.094693  0.088305  0  1.013843  0
H  H9  1  0.68095283  0.82580397  0.23285019  1  0.038479  0  0.094654  0.0882  0  1.014021  0
H  H10  1  0.18095908  0.32581358  0.26715329  1  0.038643  0  0.094713  0.088363  0  1.013782  0
H  H11  1  0.31899219  0.17417942  0.76714350  1  0.039697  0  0.094726  0.088311  0  1.014012  0
H  H12  1  0.65440621  0.54605812  0.77840936  1  0.015977  0  0.092565  0.081769  0  1.017548  0
H  H13  1  0.84558150  0.95391862  0.27841588  1  0.015724  0  0.092806  0.082172  0  1.017625  0
H  H14  1  0.34557595  0.45393828  0.22158818  1  0.015954  0  0.092647  0.081846  0  1.017474  0
H  H15  1  0.15437314  0.04605366  0.72158827  1  0.015619  0  0.09264  0.081916  0  1.017648  0
H  H16  1  0.54995765  0.42681935  0.69211691  1  0.047229  0  0.101866  0.103021  0  0.994516  0
H  H17  1  0.95005417  0.07316050  0.19213544  1  0.047273  0  0.101774  0.102919  0  0.994214  0
H  H18  1  0.45002479  0.57318184  0.30787899  1  0.04699  0  0.101883  0.10303  0  0.994457  0
H  H19  1  0.04994163  0.92680693  0.80788466  1  0.046872  0  0.101867  0.103007  0  0.994233  0
H  H20  1  0.45935365  0.32774236  0.58243111  1  0.075835  0  0.097905  0.099337  0  1.010362  0
H  H21  1  0.04067556  0.17223582  0.08243933  1  0.075584  0  0.097935  0.099218  0  1.010679  0
H  H22  1  0.54061475  0.67226045  0.41756478  1  0.075533  0  0.097867  0.099363  0  1.01044  0
H  H23  1  0.95935589  0.82774259  0.91757692  1  0.075823  0  0.09793  0.099438  0  1.010529  0
H  H24  1  0.40168802  0.25446329  0.46060226  1  0.060317  0  0.096281  0.096015  0  1.023249  0
H  H25  1  0.09832204  0.24551094  0.96061452  1  0.060573  0  0.0962  0.095923  0  1.02345  0
H  H26  1  0.59829233  0.74553725  0.53939088  1  0.060713  0  0.096263  0.096044  0  1.023328  0
H  H27  1  0.90169719  0.75448342  0.03941328  1  0.060649  0  0.096231  0.096065  0  1.02318  0
H  H28  1  0.51379614  0.31650563  0.34780316  1  0.073159  0  0.098411  0.096105  0  1.002338  0
H  H29  1  0.98619833  0.18348544  0.84781320  1  0.073196  0  0.098414  0.096136  0  1.001967  0
H  H30  1  0.48619932  0.68349737  0.65219658  1  0.073703  0  0.098443  0.096239  0  1.002098  0
H  H31  1  0.01382179  0.81653080  0.15221185  1  0.07305  0  0.098344  0.09612  0  1.002222  0
H  H32  1  0.68262868  0.45331317  0.35192148  1  0.076891  0  0.096858  0.09946  0  1.035461  0
H  H33  1  0.81736080  0.04668294  0.85193009  1  0.077026  0  0.096827  0.099406  0  1.035655  0
H  H34  1  0.31736521  0.54669123  0.64807606  1  0.076861  0  0.096855  0.099429  0  1.035543  0
H  H35  1  0.18267354  0.95333236  0.14807351  1  0.076835  0  0.096863  0.099349  0  1.03559  0
H  H36  1  0.09620875  0.58666353  0.47794521  1  0.090962  0  0.099005  0.098141  0  1.042281  0
H  H37  1  0.40378316  0.91333966  0.97794461  1  0.090276  0  0.099092  0.098257  0  1.042174  0
H  H38  1  0.90378751  0.41332783  0.52204408  1  0.0911  0  0.099092  0.098287  0  1.042332  0
H  H39  1  0.59623162  0.08665615  0.02203202  1  0.090875  0  0.099078  0.098173  0  1.042119  0
H  H40  1  0.28183117  0.71050060  0.50172422  1  0.11597  0  0.100436  0.101587  0  1.072408  0
H  H41  1  0.21815994  0.78950647  0.00172505  1  0.115748  0  0.100423  0.101461  0  1.072507  0
H  H42  1  0.71816467  0.28949282  0.49826507  1  0.115876  0  0.100399  0.101472  0  1.072473  0
H  H43  1  0.78186114  0.21049128  0.99825324  1  0.115265  0  0.100462  0.101442  0  1.072587  0
H  H44  1  0.83446339  0.78403600  0.46830771  1  0.087935  0  0.099036  0.104084  0  1.022685  0
H  H45  1  0.66552566  0.71597280  0.96831023  1  0.088106  0  0.09905  0.10413  0  1.022563  0
H  H46  1  0.16552094  0.21595763  0.53171458  1  0.088257  0  0.099119  0.104276  0  1.022677  0
H  H47  1  0.33450416  0.28402889  0.03168511  1  0.088371  0  0.098974  0.103869  0  1.022692  0
H  H48  1  0.96301528  0.46762603  0.38404992  1  0.078699  0  0.099803  0.100832  0  1.028017  0
H  H49  1  0.53697014  0.03237484  0.88405223  1  0.078349  0  0.09979  0.100777  0  1.02808  0
H  H50  1  0.03697751  0.53236676  0.61595038  1  0.078729  0  0.099807  0.100823  0  1.028029  0
H  H51  1  0.46302965  0.96762261  0.11595522  1  0.078599  0  0.099774  0.100692  0  1.028012  0
H  H52  1  0.00607821  0.44605777  0.25175903  1  0.064908  0  0.097894  0.094207  0  1.037609  0
H  H53  1  0.49390178  0.05394437  0.75176053  1  0.065369  0  0.097915  0.094224  0  1.037711  0
H  H54  1  0.99391898  0.55394452  0.74824292  1  0.065274  0  0.097897  0.09417  0  1.037605  0
H  H55  1  0.50606812  0.94606046  0.24825186  1  0.065571  0  0.097919  0.094175  0  1.037651  0
H  H56  1  0.81517755  0.67388634  0.19719819  1  0.07341  0  0.104218  0.108026  0  1.011663  0
H  H57  1  0.68479097  0.82611971  0.69720477  1  0.074033  0  0.104216  0.108028  0  1.011731  0
H  H58  1  0.18481114  0.32610926  0.80280541  1  0.073556  0  0.10422  0.108018  0  1.011804  0
H  H59  1  0.31524328  0.17392841  0.30278617  1  0.073557  0  0.104254  0.107927  0  1.011594  0
H  H60  1  0.77631187  0.69880957  0.33093501  1  0.031912  0  0.095911  0.095172  0  1.024404  0
H  H61  1  0.72366081  0.80119550  0.83093672  1  0.031814  0  0.09599  0.095261  0  1.024466  0
H  H62  1  0.22367018  0.30118273  0.66906639  1  0.031797  0  0.095984  0.095255  0  1.024216  0
H  H63  1  0.27639522  0.19884744  0.16904212  1  0.031806  0  0.096017  0.095307  0  1.024334  0
H  H64  1  0.75343635  0.90196849  0.40245089  1  0.63253  0  0.330247  0.408605  0  0.865108  0
H  H65  1  0.74655374  0.59803018  0.90244664  1  0.632718  0  0.330227  0.40845  0  0.865174  0
H  H66  1  0.24655068  0.09802440  0.59754225  1  0.632354  0  0.330262  0.408558  0  0.865192  0
H  H67  1  0.25346117  0.40198820  0.09754760  1  0.632271  0  0.330287  0.408723  0  0.864705  0
H  H68  1  0.61978019  0.89551115  0.36329012  1  0.643141  0  0.31612  0.406688  0  0.897803  0
H  H69  1  0.88021575  0.60449614  0.86329427  1  0.643269  0  0.316067  0.406548  0  0.89792  0
H  H70  1  0.38020883  0.10449676  0.63670192  1  0.643408  0  0.316104  0.406605  0  0.898017  0
H  H71  1  0.11980839  0.39550224  0.13671152  1  0.643232  0  0.316143  0.406645  0  0.897835  0
H  H72  1  0.02248763  0.90867583  0.49250343  1  0.062312  0  0.1009  0.103532  0  1.010702  0
H  H73  1  0.47750432  0.59133272  0.99250393  1  0.062111  0  0.10095  0.10362  0  1.010733  0
H  H74  1  0.97749730  0.09131642  0.50751667  1  0.062429  0  0.100878  0.103426  0  1.01086  0
H  H75  1  0.52252117  0.40867452  0.00749746  1  0.062024  0  0.100958  0.103652  0  1.010775  0
C  C76  1  0.75267477  0.56023055  0.57171032  1  0.0067  0  -0.009722  0.022943  0  3.979718  0
C  C77  1  0.74731997  0.93976393  0.07171354  1  0.006977  0  -0.009684  0.022869  0  3.980182  0
C  C78  1  0.24731187  0.43977192  0.42828887  1  0.006724  0  -0.009634  0.023016  0  3.979717  0
C  C79  1  0.25269779  0.06021746  0.92828235  1  0.006674  0  -0.009559  0.022958  0  3.979794  0
C  C80  1  0.81164167  0.62681585  0.62062385  1  -0.105197  0  -0.090539  -0.118245  0  3.982567  0
C  C81  1  0.68834730  0.87317382  0.12062680  1  -0.105346  0  -0.090617  -0.118383  0  3.982378  0
C  C82  1  0.18834422  0.37317638  0.37937590  1  -0.10516  0  -0.090687  -0.118559  0  3.9828  0
C  C83  1  0.31164256  0.12681150  0.87936414  1  -0.105169  0  -0.090638  -0.118379  0  3.982802  0
C  C84  1  0.77501785  0.62126523  0.69482444  1  -0.053771  0  -0.101685  -0.10428  0  4.052901  0
C  C85  1  0.72496905  0.87871987  0.19482718  1  -0.053066  0  -0.101526  -0.103835  0  4.052663  0
C  C86  1  0.22495862  0.37872786  0.30518135  1  -0.052667  0  -0.10156  -0.104017  0  4.052874  0
C  C87  1  0.27501488  0.12126487  0.80516926  1  -0.054331  0  -0.101764  -0.10422  0  4.053094  0
C  C88  1  0.68242164  0.54929117  0.72047128  1  -0.008903  0  -0.095684  -0.087847  0  4.052834  0
C  C89  1  0.81757225  0.95068455  0.22048508  1  -0.00883  0  -0.096246  -0.088947  0  4.053744  0
C  C90  1  0.31756365  0.45070244  0.27953121  1  -0.009766  0  -0.095825  -0.088193  0  4.052634  0
C  C91  1  0.18240972  0.04929271  0.77952181  1  -0.008412  0  -0.09575  -0.08805  0  4.053154  0
C  C92  1  0.62358779  0.48195726  0.67222286  1  -0.046444  0  -0.088612  -0.118551  0  3.99026  0
C  C93  1  0.87640912  0.01801045  0.17224249  1  -0.046174  0  -0.088292  -0.118035  0  3.99017  0
C  C94  1  0.37639472  0.51804050  0.32777579  1  -0.045587  0  -0.088607  -0.118454  0  3.990222  0
C  C95  1  0.12358319  0.98195841  0.82777046  1  -0.046083  0  -0.088553  -0.11846  0  3.989842  0
C  C96  1  0.65757633  0.48818149  0.59798540  1  -0.012691  0  -0.005692  0.033747  0  3.987477  0
C  C97  1  0.84242564  0.01179484  0.09799371  1  -0.012523  0  -0.005648  0.03399  0  3.986691  0
C  C98  1  0.34240554  0.51181013  0.40201269  1  -0.01259  0  -0.005736  0.033813  0  3.987594  0
C  C99  1  0.15758164  0.98818332  0.90201429  1  -0.012756  0  -0.005695  0.033871  0  3.987325  0
C  C100  1  0.60602421  0.43181141  0.53546081  1  -0.069514  0  -0.009789  0.02231  0  3.992347  0
C  C101  1  0.89398393  0.06817672  0.03546527  1  -0.069064  0  -0.009831  0.021868  0  3.99142  0
C  C102  1  0.39395127  0.56819264  0.46453454  1  -0.069221  0  -0.00994  0.022072  0  3.992032  0
C  C103  1  0.10603772  0.93181213  0.96454218  1  -0.068843  0  -0.009746  0.022135  0  3.992088  0
C  C104  1  0.50929058  0.35529907  0.53261621  1  -0.080995  0  -0.089553  -0.122623  0  3.982139  0
C  C105  1  0.99074129  0.14468509  0.03262719  1  -0.081014  0  -0.089581  -0.122338  0  3.982259  0
C  C106  1  0.49069059  0.64470830  0.46737694  1  -0.081114  0  -0.089448  -0.122477  0  3.981994  0
C  C107  1  0.00928540  0.85530093  0.96739236  1  -0.081363  0  -0.089528  -0.122585  0  3.98224  0
C  C108  1  0.47687782  0.31424494  0.46454238  1  0.023485  0  -0.088745  -0.072179  0  4.009111  0
C  C109  1  0.02313718  0.18573551  0.96455588  1  0.024775  0  -0.088681  -0.072141  0  4.009341  0
C  C110  1  0.52310570  0.68576033  0.53545021  1  0.023972  0  -0.088738  -0.072225  0  4.009024  0
C  C111  1  0.97688223  0.81425953  0.03546752  1  0.02342  0  -0.088807  -0.072288  0  4.00918  0
C  C112  1  0.54056116  0.34922638  0.40048766  1  -0.019252  0  -0.091329  -0.080579  0  4.005126  0
C  C113  1  0.95943729  0.15075506  0.90050250  1  -0.02024  0  -0.091315  -0.080673  0  4.004504  0
C  C114  1  0.45942903  0.65077125  0.59950658  1  -0.02012  0  -0.091392  -0.080946  0  4.004809  0
C  C115  1  0.04058418  0.84925157  0.09951870  1  -0.018486  0  -0.091174  -0.0807  0  4.004802  0
C  C116  1  0.63640206  0.42666457  0.40278819  1  -0.038739  0  -0.089401  -0.121296  0  3.977134  0
C  C117  1  0.86358831  0.07332189  0.90279873  1  -0.038823  0  -0.089398  -0.121298  0  3.977119  0
C  C118  1  0.36358213  0.57333590  0.59720935  1  -0.03891  0  -0.089411  -0.121098  0  3.977205  0
C  C119  1  0.13643334  0.92668542  0.09721092  1  -0.039136  0  -0.089416  -0.121033  0  3.976949  0
C  C120  1  0.67003694  0.46855424  0.47051323  1  -0.065121  0  -0.011557  0.020998  0  3.973036  0
C  C121  1  0.82995306  0.03142942  0.97052113  1  -0.065378  0  -0.011598  0.021239  0  3.97319  0
C  C122  1  0.32994330  0.53144220  0.52948872  1  -0.064906  0  -0.011528  0.020944  0  3.973383  0
C  C123  1  0.17007601  0.96856203  0.02948686  1  -0.065028  0  -0.011727  0.020798  0  3.973604  0
C  C124  1  0.76597838  0.54957021  0.49104778  1  0.069643  0  -0.006748  -0.03895  0  4.002383  0
C  C125  1  0.73401829  0.95042909  0.99105635  1  0.069427  0  -0.006788  -0.038977  0  4.002808  0
C  C126  1  0.23401395  0.45043559  0.50895746  1  0.069535  0  -0.00666  -0.038803  0  4.002359  0
C  C127  1  0.26601011  0.04956716  0.00894780  1  0.068792  0  -0.006727  -0.038784  0  4.002465  0
C  C128  1  0.07954508  0.65711061  0.48169603  1  -0.027311  0  -0.091508  -0.136657  0  3.961707  0
C  C129  1  0.42043839  0.84289562  0.98169845  1  -0.026352  0  -0.09173  -0.136995  0  3.961989  0
C  C130  1  0.92044433  0.34288772  0.51830152  1  -0.02739  0  -0.091722  -0.137094  0  3.961967  0
C  C131  1  0.57957711  0.15710291  0.01827873  1  -0.026944  0  -0.091629  -0.136546  0  3.962035  0
C  C132  1  0.18359960  0.72597425  0.49485151  1  -0.053198  0  -0.079874  -0.068339  0  3.952509  0
C  C133  1  0.31639131  0.77403304  0.99485767  1  -0.052962  0  -0.079581  -0.067854  0  3.952463  0
C  C134  1  0.81639593  0.27402533  0.50513338  1  -0.052878  0  -0.079757  -0.068061  0  3.952281  0
C  C135  1  0.68363584  0.22595844  0.00512227  1  -0.053098  0  -0.079808  -0.068258  0  3.952689  0
C  C136  1  0.93291043  0.76846816  0.47570413  1  -0.034089  0  -0.0949  -0.148049  0  3.98633  0
C  C137  1  0.56707307  0.73153488  0.97570858  1  -0.034107  0  -0.09499  -0.148344  0  3.986625  0
C  C138  1  0.06708182  0.23152258  0.52431046  1  -0.034874  0  -0.094987  -0.148337  0  3.986421  0
C  C139  1  0.43294218  0.26846640  0.02428236  1  -0.033914  0  -0.094826  -0.147705  0  3.986474  0
C  C140  1  0.93065996  0.51306947  0.34330952  1  -0.076781  0  -0.084279  -0.126125  0  3.958261  0
C  C141  1  0.56932146  0.98693456  0.84331019  1  -0.076573  0  -0.084427  -0.126278  0  3.9579  0
C  C142  1  0.06932916  0.48692407  0.65669243  1  -0.076638  0  -0.084317  -0.126192  0  3.958054  0
C  C143  1  0.43068235  0.01308197  0.15669175  1  -0.077091  0  -0.084222  -0.126074  0  3.957699  0
C  C144  1  0.95434570  0.50068349  0.26907837  1  0.007506  0  -0.084586  -0.077158  0  3.97437  0
C  C145  1  0.54563306  0.99932178  0.76907764  1  0.006713  0  -0.084384  -0.076801  0  3.97387  0
C  C146  1  0.04564421  0.49930936  0.73092577  1  0.00693  0  -0.084551  -0.07706  0  3.97417  0
C  C147  1  0.45435575  0.00069639  0.23092870  1  0.006773  0  -0.084478  -0.07693  0  3.973921  0
C  C148  1  0.84705772  0.62922510  0.23872799  1  -0.021551  0  -0.084327  -0.088318  0  3.982129  0
C  C149  1  0.65291563  0.87077907  0.73872459  1  -0.021827  0  -0.084336  -0.088289  0  3.982127  0
C  C150  1  0.15292703  0.37076647  0.76128001  1  -0.02179  0  -0.084367  -0.088278  0  3.981985  0
C  C151  1  0.34711150  0.12926029  0.26126140  1  -0.021051  0  -0.08448  -0.088269  0  3.981594  0
C  C152  1  0.82504250  0.64256846  0.31321547  1  -0.006464  0  -0.090136  -0.138599  0  3.978901  0
C  C153  1  0.67493284  0.85743176  0.81321515  1  -0.006451  0  -0.090255  -0.138704  0  3.978888  0
C  C154  1  0.17493860  0.35742385  0.68678867  1  -0.006626  0  -0.090265  -0.138824  0  3.978697  0
C  C155  1  0.32510954  0.14260322  0.18677139  1  -0.006932  0  -0.090129  -0.138757  0  3.978842  0
C  C156  1  0.93937812  0.54479424  0.13672913  1  1.551625  0  0.21591  0.60662  0  4.147041  0
C  C157  1  0.56060643  0.95521256  0.63673345  1  1.552376  0  0.21593  0.606496  0  4.147393  0
C  C158  1  0.06062406  0.45520864  0.86327171  1  1.551518  0  0.215851  0.6065  0  4.147207  0
C  C159  1  0.43938225  0.04481245  0.36326574  1  1.551455  0  0.215838  0.606579  0  4.146927  0
C  C160  1  0.28026113  0.88925626  0.50398547  1  1.526975  0  0.218521  0.607638  0  4.148289  0
C  C161  1  0.21973378  0.61074603  0.00399894  1  1.527125  0  0.218486  0.607352  0  4.148359  0
C  C162  1  0.71972962  0.11073246  0.49599392  1  1.527147  0  0.218296  0.607274  0  4.148342  0
C  C163  1  0.78028698  0.38925788  0.99599640  1  1.527156  0  0.218333  0.607277  0  4.148561  0
C  C164  1  0.85125873  0.60191307  0.44603610  1  -0.06505  0  0.008587  -0.004447  0  3.906551  0
C  C165  1  0.64873110  0.89810031  0.94604076  1  -0.065457  0  0.008711  -0.004323  0  3.906464  0
C  C166  1  0.14873409  0.39808724  0.55396859  1  -0.065162  0  0.00854  -0.004549  0  3.906804  0
C  C167  1  0.35130249  0.10190473  0.05394798  1  -0.064761  0  0.008674  -0.004154  0  3.906662  0
C  C168  1  0.91278472  0.55840400  0.21619074  1  -0.055787  0  -0.019744  -0.043291  0  3.978346  0
C  C169  1  0.58718840  0.94159724  0.71619319  1  -0.055789  0  -0.019824  -0.043504  0  3.978495  0
C  C170  1  0.08719812  0.44158760  0.78381395  1  -0.055214  0  -0.019648  -0.043262  0  3.978288  0
C  C171  1  0.41282324  0.05843078  0.28380820  1  -0.055347  0  -0.019681  -0.043291  0  3.978197  0
C  C172  1  0.95350064  0.67761056  0.47067513  1  -0.054172  0  0.001631  0.092077  0  3.991341  0
C  C173  1  0.54647766  0.82239306  0.97067765  1  -0.054257  0  0.001634  0.092253  0  3.991364  0
C  C174  1  0.04649286  0.32238496  0.52932681  1  -0.05372  0  0.001659  0.092215  0  3.991126  0
C  C175  1  0.45353190  0.17760489  0.02930779  1  -0.054572  0  0.001553  0.091731  0  3.991719  0
C  C176  1  0.86561964  0.58417155  0.36616032  1  0.014023  0  0.001758  0.092118  0  3.982796  0
C  C177  1  0.63436209  0.91582448  0.86616726  1  0.014461  0  0.001828  0.09213  0  3.982559  0
C  C178  1  0.13437062  0.41582265  0.63383942  1  0.013934  0  0.001795  0.092254  0  3.982797  0
C  C179  1  0.36566714  0.08419706  0.13382863  1  0.014537  0  0.001604  0.092074  0  3.982499  0
C  C180  1  0.16381723  0.81692045  0.49742976  1  -0.047721  0  -0.021409  -0.042343  0  3.973975  0
C  C181  1  0.33617853  0.68308960  0.99743840  1  -0.048139  0  -0.021676  -0.042524  0  3.974093  0
C  C182  1  0.83617040  0.18307107  0.50257054  1  -0.048032  0  -0.021375  -0.042251  0  3.974002  0
C  C183  1  0.66385513  0.31691203  0.00255749  1  -0.047843  0  -0.021453  -0.042157  0  3.973761  0
C  C184  1  0.03739769  0.83777562  0.48946007  1  -0.009752  0  -0.088127  -0.092149  0  3.990882  0
C  C185  1  0.46259434  0.66223076  0.98946853  1  -0.009398  0  -0.088077  -0.092119  0  3.991168  0
C  C186  1  0.96259257  0.16221858  0.51054243  1  -0.009557  0  -0.088098  -0.091997  0  3.99132  0
C  C187  1  0.53742859  0.33777038  0.01052516  1  -0.009731  0  -0.088239  -0.092504  0  3.991336  0
O  O188  1  0.39014456  0.86434830  0.49069331  1  -1.161653  0  -0.310681  -0.544522  0  2.36919  0
O  O189  1  0.10985266  0.63565530  0.99070475  1  -1.161565  0  -0.310687  -0.544409  0  2.369256  0
O  O190  1  0.60985117  0.13564102  0.50929708  1  -1.161426  0  -0.310717  -0.544533  0  2.369  0
O  O191  1  0.89017560  0.36434779  0.00929554  1  -1.161872  0  -0.310682  -0.544458  0  2.368976  0
O  O192  1  0.26391830  0.97029732  0.52047403  1  -1.171806  0  -0.328125  -0.577633  0  2.300745  0
O  O193  1  0.23608661  0.52970340  0.02047872  1  -1.171891  0  -0.328069  -0.577477  0  2.300742  0
O  O194  1  0.73608572  0.02969048  0.47953287  1  -1.172302  0  -0.327978  -0.577369  0  2.300661  0
O  O195  1  0.76393297  0.47029233  0.97952708  1  -1.171417  0  -0.327951  -0.57737  0  2.300975  0
O  O196  1  0.88871835  0.59322046  0.09005682  1  -1.152878  0  -0.314708  -0.538014  0  2.289354  0
O  O197  1  0.61126087  0.90679213  0.59006020  1  -1.153555  0  -0.314678  -0.537851  0  2.289774  0
O  O198  1  0.11128062  0.40678864  0.90994457  1  -1.153005  0  -0.314676  -0.537931  0  2.289385  0
O  O199  1  0.38871469  0.09322696  0.40993789  1  -1.153333  0  -0.314734  -0.538087  0  2.289277  0
O  O200  1  0.01105710  0.48542474  0.11970304  1  -1.19201  0  -0.319874  -0.601732  0  2.341783  0
O  O201  1  0.48894037  0.01459036  0.61970015  1  -1.192211  0  -0.319957  -0.601748  0  2.341853  0
O  O202  1  0.98895855  0.51458542  0.88030165  1  -1.192046  0  -0.319945  -0.60171  0  2.34186  0
O  O203  1  0.51105303  0.98543799  0.38029739  1  -1.19162  0  -0.319832  -0.601653  0  2.34167  0
O  O204  1  0.66719825  0.86441248  0.40034400  1  -1.216177  0  -0.543475  -0.693463  0  2.027185  0
O  O205  1  0.83279014  0.63559161  0.90034626  1  -1.216551  0  -0.543422  -0.693183  0  2.027315  0
O  O206  1  0.33278246  0.13558942  0.59964914  1  -1.216302  0  -0.543512  -0.69339  0  2.027482  0
O  O207  1  0.16723083  0.36442050  0.09965238  1  -1.215955  0  -0.543553  -0.69361  0  2.026724  0
