# generated using pymatgen
data_CoH8C12(NO2)2
_symmetry_space_group_name_H-M   'P 1'
_cell_length_a   9.84744506
_cell_length_b   10.69444574
_cell_length_c   12.79649063
_cell_angle_alpha   90.00005532
_cell_angle_beta   90.00094781
_cell_angle_gamma   102.59632659
_symmetry_Int_Tables_number   1
_chemical_formula_structural   CoH8C12(NO2)2
_chemical_formula_sum   'Co4 H32 C48 N8 O16'
_cell_volume   1315.19979047
_cell_formula_units_Z   4
loop_
 _symmetry_equiv_pos_site_id
 _symmetry_equiv_pos_as_xyz
  1  'x, y, z'
loop_
 _atom_site_type_symbol
 _atom_site_label
 _atom_site_symmetry_multiplicity
 _atom_site_fract_x
 _atom_site_fract_y
 _atom_site_fract_z
 _atom_site_occupancy
 _atom_site_pbe_bader_charge
 _atom_site_pbe_bader_spin_density
 _atom_site_pbe_cm5_charge
 _atom_site_pbe_ddec_charge
 _atom_site_pbe_ddec_spin_density
 _atom_site_pbe_ddec_sum_bond_order
 _atom_site_pbe_magmom
Co  Co0  1  0.87115800  0.75014365  0.56780136  1  1.337199  2.604735  0.68926  0.947118  2.822327  2.541925  2.592
Co  Co1  1  0.38011501  0.74900298  0.56580863  1  1.348581  2.619622  0.700694  0.964857  2.839378  2.516596  2.605
Co  Co2  1  0.12884753  0.24985634  0.06780310  1  1.337142  2.604731  0.689181  0.946981  2.822331  2.542139  2.592
Co  Co3  1  0.61988780  0.25098931  0.06580881  1  1.348517  2.61963  0.700712  0.964775  2.83938  2.516655  2.605
H  H4  1  0.11004813  0.35191831  0.46469856  1  0.092406  0.001274  0.111603  0.121054  0.00057  0.979518  0.0
H  H5  1  0.85686539  0.02335309  0.52713436  1  0.087235  0.001576  0.119712  0.09347  0.000302  0.994381  0.001
H  H6  1  0.43897168  0.99722304  0.72958760  1  0.14091  0.000694  0.105126  0.123026  0.000203  1.058498  0.0
H  H7  1  0.11673169  0.21890153  0.30415375  1  0.117737  0.001553  0.115124  0.084943  0.000393  1.031979  0.001
H  H8  1  0.61678776  0.50099287  0.82928305  1  0.113255  0.000988  0.103502  0.113054  0.000426  1.042765  0.0
H  H9  1  0.11225643  0.67412622  0.26077639  1  0.095723  0.000839  0.108553  0.115872  0.000326  1.002112  0.0
H  H10  1  0.43231655  0.13780390  0.88707258  1  0.13016  0.001483  0.113559  0.083613  0.000218  1.020586  0.001
H  H11  1  0.83492004  0.16698044  0.37601863  1  0.100644  0.000821  0.108895  0.114872  0.000318  1.004356  0.0
H  H12  1  0.12725480  0.52864954  0.10957638  1  0.099503  0.001564  0.119933  0.092621  0.000339  0.988072  0.001
H  H13  1  0.18406415  0.63248249  0.73796078  1  0.096668  0.001668  0.110357  0.081183  0.000354  1.025681  0.001
H  H14  1  0.59753179  0.64030252  0.67428424  1  0.132564  0.001316  0.115828  0.087827  -7.8e-05  1.06949  0.001
H  H15  1  0.86402475  0.99856223  0.80801180  1  0.081837  0.001051  0.10031  0.107224  0.000468  1.048536  0.0
H  H16  1  0.85959903  0.85163054  0.17132856  1  0.078958  0.001276  0.111952  0.121432  0.000566  0.978688  0.0
H  H17  1  0.86429452  0.71772891  0.33155997  1  0.110159  0.00145  0.115207  0.08538  0.000305  1.037827  0.001
H  H18  1  0.18820594  0.49569590  0.89807106  1  0.153308  0.000861  0.102247  0.11434  0.000334  1.072471  0.001
H  H19  1  0.84065011  0.13590492  0.96220671  1  0.164201  0.001327  0.114347  0.08973  4.7e-05  1.0691  0.001
H  H20  1  0.88994892  0.64807790  0.96469776  1  0.092637  0.001274  0.111576  0.121033  0.00057  0.979441  0.0
H  H21  1  0.14313391  0.97664561  0.02712436  1  0.087437  0.001576  0.119713  0.093452  0.000302  0.994387  0.001
H  H22  1  0.56102776  0.00277960  0.22959933  1  0.141038  0.000694  0.105118  0.123023  0.000203  1.058566  0.0
H  H23  1  0.88327087  0.78109393  0.80415610  1  0.117646  0.001553  0.115109  0.084912  0.000393  1.032039  0.001
H  H24  1  0.38320700  0.49900163  0.32927573  1  0.113212  0.000988  0.103497  0.113079  0.000426  1.042849  0.0
H  H25  1  0.88773452  0.32586688  0.76077139  1  0.095704  0.000839  0.108542  0.115838  0.000326  1.002123  0.0
H  H26  1  0.56768343  0.86219959  0.38707727  1  0.130138  0.001483  0.113535  0.083596  0.000218  1.020695  0.001
H  H27  1  0.16508992  0.83303272  0.87599937  1  0.100358  0.000821  0.10893  0.114996  0.000318  1.004469  0.0
H  H28  1  0.87274187  0.47134287  0.60957443  1  0.099431  0.001564  0.119901  0.092562  0.000339  0.988098  0.001
H  H29  1  0.81593488  0.36752210  0.23796277  1  0.096719  0.001668  0.110346  0.081185  0.000354  1.025696  0.001
H  H30  1  0.40246269  0.35968733  0.17427470  1  0.132387  0.001316  0.115849  0.087782  -7.8e-05  1.069667  0.001
H  H31  1  0.13597196  0.00142456  0.30800250  1  0.081798  0.001051  0.100279  0.10714  0.000468  1.048609  0.0
H  H32  1  0.14043077  0.14840099  0.67132642  1  0.078985  0.001276  0.111979  0.121305  0.000566  0.978844  0.0
H  H33  1  0.13571196  0.28228204  0.83156490  1  0.110024  0.00145  0.115275  0.085365  0.000305  1.037884  0.001
H  H34  1  0.81179185  0.50431047  0.39807310  1  0.15333  0.00086  0.102261  0.114324  0.000334  1.072467  0.001
H  H35  1  0.15934279  0.86408644  0.46219292  1  0.164239  0.001327  0.11436  0.089735  4.6e-05  1.069191  0.001
C  C36  1  0.66183218  0.90075454  0.66525884  1  1.582372  -0.00013  0.21853  0.581468  -0.001799  4.175194  0.004
C  C37  1  0.65246860  0.98728399  0.75668544  1  -0.046463  -0.00119  -0.005853  0.005739  -0.003918  3.947122  0.001
C  C38  1  0.11050137  0.39436292  0.38717733  1  0.015425  0.007525  -0.082696  -0.158983  0.003631  3.954068  0.005
C  C39  1  0.85478643  0.98918028  0.44682131  1  0.492468  -0.007898  0.048047  0.099738  -0.00912  3.942787  -0.005
C  C40  1  0.53014653  0.02846100  0.77894742  1  -0.013256  0.003809  -0.083424  -0.142496  0.001689  3.922891  0.003
C  C41  1  0.11471820  0.32006230  0.29847175  1  0.439535  -0.008222  0.045597  0.088777  -0.009283  3.957903  -0.006
C  C42  1  0.41031576  0.40228841  0.96702962  1  1.57828  -0.001476  0.222468  0.59432  -0.003159  4.154852  0.004
C  C43  1  0.09289799  0.60435425  0.47041340  1  1.610131  0.006348  0.221882  0.583778  0.003963  4.196902  0.007
C  C44  1  0.40381163  0.48873403  0.87549827  1  -0.066105  -0.000883  -0.004165  0.004972  -0.003829  3.960131  0.002
C  C45  1  0.10726380  0.52384767  0.37574844  1  -0.058498  -0.003575  0.01017  0.031692  -0.006233  3.929818  -0.002
C  C46  1  0.52008013  0.53007207  0.81183470  1  0.022593  0.002794  -0.084679  -0.137904  0.000948  3.941797  0.003
C  C47  1  0.11269397  0.57349952  0.27407765  1  -0.041577  0.006652  -0.080261  -0.153535  0.003252  3.936039  0.005
C  C48  1  0.52613379  0.10524977  0.86621979  1  0.446452  -0.007124  0.043925  0.101246  -0.008074  3.930458  -0.004
C  C49  1  0.84475167  0.06871115  0.36259153  1  -0.007372  0.007134  -0.081686  -0.161889  0.003468  3.964127  0.005
C  C50  1  0.12032938  0.49321687  0.18969985  1  0.46355  -0.007417  0.04954  0.102676  -0.008599  3.939302  -0.005
C  C51  1  0.27847927  0.60329415  0.76247590  1  0.489994  -0.006343  0.040598  0.095043  -0.007112  3.94987  -0.004
C  C52  1  0.50967772  0.60730824  0.72632293  1  0.420195  -0.007613  0.039095  0.090114  -0.008694  3.922385  -0.005
C  C53  1  0.76659488  0.02763454  0.82305633  1  -0.04749  0.0033  -0.08991  -0.151464  0.001327  3.964451  0.003
C  C54  1  0.85666985  0.89294027  0.24898267  1  -0.01781  0.007867  -0.08063  -0.154384  0.003748  3.953849  0.006
C  C55  1  0.86002840  0.81832910  0.33750536  1  0.484133  -0.008691  0.044112  0.086616  -0.009704  3.955961  -0.006
C  C56  1  0.28099263  0.52782461  0.85047971  1  -0.067326  0.004072  -0.092591  -0.164688  0.001855  3.969535  0.004
C  C57  1  0.84106102  0.10349450  0.16656278  1  1.592796  0.004569  0.228564  0.596675  0.002186  4.173774  0.007
C  C58  1  0.75427405  0.10475476  0.90832106  1  0.439814  -0.006708  0.033202  0.076726  -0.007561  3.944168  -0.004
C  C59  1  0.84823760  0.02104086  0.26091835  1  -0.07044  -0.003728  0.008173  0.025937  -0.00639  3.945284  -0.001
C  C60  1  0.33816578  0.09924296  0.16525609  1  1.582634  -0.000133  0.21849  0.581287  -0.0018  4.175299  0.004
C  C61  1  0.34752797  0.01270729  0.25667962  1  -0.04652  -0.001188  -0.005857  0.005729  -0.003917  3.947091  0.001
C  C62  1  0.88949330  0.60563474  0.88717414  1  0.014884  0.007525  -0.082721  -0.158999  0.00363  3.953929  0.005
C  C63  1  0.14521981  0.01082269  0.94681052  1  0.492283  -0.007897  0.047992  0.099877  -0.009118  3.942523  -0.005
C  C64  1  0.46985240  0.97153903  0.27895095  1  -0.013197  0.003808  -0.083384  -0.142469  0.001689  3.922914  0.003
C  C65  1  0.88528117  0.67993307  0.79847092  1  0.44009  -0.00822  0.045714  0.0889  -0.009279  3.958097  -0.006
C  C66  1  0.58967768  0.59770966  0.46702266  1  1.578266  -0.001475  0.222406  0.594428  -0.003161  4.155112  0.004
C  C67  1  0.90710490  0.39564497  0.97041027  1  1.610097  0.006348  0.221802  0.583715  0.003963  4.197197  0.007
C  C68  1  0.59618543  0.51126649  0.37549210  1  -0.066424  -0.000883  -0.004187  0.004843  -0.003829  3.960208  0.002
C  C69  1  0.89273263  0.47614520  0.87574519  1  -0.058545  -0.003576  0.010222  0.031675  -0.006234  3.929755  -0.002
C  C70  1  0.47991363  0.46992422  0.31182467  1  0.022677  0.002795  -0.0846  -0.13775  0.000949  3.941903  0.003
C  C71  1  0.88729933  0.42649370  0.77407742  1  -0.041722  0.006652  -0.080303  -0.15353  0.003252  3.936043  0.005
C  C72  1  0.47386571  0.89474883  0.36622487  1  0.44645  -0.007124  0.043979  0.101289  -0.008075  3.930588  -0.004
C  C73  1  0.15525879  0.93130099  0.86257926  1  -0.006025  0.007131  -0.08173  -0.162187  0.003467  3.964277  0.005
C  C74  1  0.87966873  0.50677886  0.68969880  1  0.463582  -0.007419  0.04957  0.102748  -0.008601  3.939249  -0.005
C  C75  1  0.72151745  0.39670670  0.26247359  1  0.489919  -0.006344  0.040577  0.094798  -0.007113  3.949916  -0.004
C  C76  1  0.49031775  0.39268573  0.22631376  1  0.420193  -0.007612  0.038991  0.089833  -0.008692  3.922648  -0.005
C  C77  1  0.23339952  0.97235420  0.32304513  1  -0.04765  0.0033  -0.089888  -0.15134  0.001327  3.964297  0.003
C  C78  1  0.14334783  0.10707904  0.74897818  1  -0.018241  0.007867  -0.080655  -0.154171  0.003748  3.953885  0.006
C  C79  1  0.13998005  0.18168096  0.83750167  1  0.484416  -0.008689  0.044133  0.086769  -0.009701  3.956271  -0.006
C  C80  1  0.71900387  0.47218053  0.35047664  1  -0.066884  0.004071  -0.09262  -0.164537  0.001854  3.969555  0.004
C  C81  1  0.15894393  0.89651173  0.66655209  1  1.592787  0.00457  0.228479  0.596536  0.002189  4.173793  0.007
C  C82  1  0.24571822  0.89523439  0.40831387  1  0.439655  -0.006708  0.033179  0.076662  -0.00756  3.944095  -0.004
C  C83  1  0.15178075  0.97897566  0.76090763  1  -0.071477  -0.003725  0.008198  0.025915  -0.006387  3.945173  -0.001
N  N84  1  0.11901114  0.36759953  0.20066451  1  -1.19413  0.049582  -0.323112  -0.255286  0.025784  3.564034  0.047
N  N85  1  0.39066737  0.64275007  0.70090272  1  -1.212187  0.048543  -0.326503  -0.243073  0.025311  3.576919  0.046
N  N86  1  0.86106063  0.86531772  0.43532362  1  -1.212452  0.051698  -0.324702  -0.248641  0.026842  3.570971  0.049
N  N87  1  0.63564966  0.14284286  0.93077414  1  -1.22602  0.045772  -0.324791  -0.252353  0.023843  3.569162  0.043
N  N88  1  0.88098925  0.63239630  0.70066358  1  -1.194086  0.049577  -0.323131  -0.255339  0.025781  3.564051  0.047
N  N89  1  0.60933018  0.35724666  0.20089816  1  -1.212263  0.048544  -0.326431  -0.242752  0.025312  3.576789  0.046
N  N90  1  0.13894801  0.13468810  0.93531597  1  -1.212418  0.051696  -0.324694  -0.248769  0.026842  3.571203  0.049
N  N91  1  0.36434538  0.85715218  0.43077233  1  -1.226006  0.045774  -0.324812  -0.252395  0.023844  3.569214  0.043
O  O92  1  0.56120008  0.87568117  0.60119766  1  -1.166778  0.071583  -0.3107  -0.562735  0.03613  2.403106  0.059
O  O93  1  0.30314113  0.37474978  0.02555674  1  -1.171419  0.080361  -0.314507  -0.570668  0.040968  2.46075  0.067
O  O94  1  0.97898931  0.64197244  0.47394033  1  -1.156247  0.069072  -0.296073  -0.561121  0.036519  2.419575  0.06
O  O95  1  0.52355148  0.36607723  0.97929775  1  -1.151325  0.084742  -0.300378  -0.550702  0.044212  2.411344  0.073
O  O96  1  0.18851123  0.62312968  0.53797082  1  -1.161926  0.056571  -0.305574  -0.558791  0.028654  2.382391  0.044
O  O97  1  0.72778364  0.13929085  0.15512925  1  -1.150924  0.065848  -0.291185  -0.543222  0.034847  2.393571  0.056
O  O98  1  0.94604954  0.12504936  0.10654388  1  -1.157405  0.063405  -0.309683  -0.564821  0.032675  2.428304  0.051
O  O99  1  0.77485178  0.86135467  0.65925712  1  -1.161474  0.085661  -0.306894  -0.570094  0.044824  2.452736  0.075
O  O100  1  0.43879314  0.12431495  0.10119309  1  -1.166769  0.071572  -0.310731  -0.562662  0.036123  2.403085  0.059
O  O101  1  0.69684795  0.62525349  0.52555503  1  -1.171163  0.080342  -0.314556  -0.570889  0.04096  2.460802  0.067
O  O102  1  0.02101368  0.35803157  0.97393996  1  -1.156327  0.069061  -0.296074  -0.561132  0.036515  2.419676  0.06
O  O103  1  0.47643425  0.63391217  0.47928938  1  -1.151544  0.084748  -0.300332  -0.550709  0.044214  2.411553  0.073
O  O104  1  0.81149545  0.37686922  0.03796963  1  -1.161812  0.056569  -0.30555  -0.558735  0.028652  2.382363  0.044
O  O105  1  0.27221675  0.86070951  0.65512310  1  -1.150678  0.06584  -0.291146  -0.543169  0.034843  2.393523  0.056
O  O106  1  0.05394445  0.87495921  0.60653652  1  -1.157604  0.063419  -0.309719  -0.56481  0.03268  2.428251  0.051
O  O107  1  0.22514748  0.13864473  0.15925531  1  -1.16148  0.085671  -0.306888  -0.570022  0.044828  2.452838  0.075
