# generated using pymatgen
data_CuH7C7INO2
_symmetry_space_group_name_H-M   'P 1'
_cell_length_a   4.03671036
_cell_length_b   9.17880547
_cell_length_c   24.04113463
_cell_angle_alpha   90.00091248
_cell_angle_beta   89.99880297
_cell_angle_gamma   96.22453421
_symmetry_Int_Tables_number   1
_chemical_formula_structural   CuH7C7INO2
_chemical_formula_sum   'Cu4 H28 C28 I4 N4 O8'
_cell_volume   885.52496817
_cell_formula_units_Z   4
loop_
 _symmetry_equiv_pos_site_id
 _symmetry_equiv_pos_as_xyz
  1  'x, y, z'
loop_
 _atom_site_type_symbol
 _atom_site_label
 _atom_site_symmetry_multiplicity
 _atom_site_fract_x
 _atom_site_fract_y
 _atom_site_fract_z
 _atom_site_occupancy
 _atom_site_hle17_bader_spin_density
 _atom_site_hle17_ddec_charge
 _atom_site_hle17_ddec_spin_density
 _atom_site_hle17_ddec_sum_bond_order
 _atom_site_hle17_magmom
 _atom_site_hse06_10hf_bader_spin_density
 _atom_site_hse06_10hf_ddec_charge
 _atom_site_hse06_10hf_ddec_spin_density
 _atom_site_hse06_10hf_ddec_sum_bond_order
 _atom_site_hse06_10hf_magmom
 _atom_site_hse06_bader_spin_density
 _atom_site_hse06_ddec_charge
 _atom_site_hse06_ddec_spin_density
 _atom_site_hse06_ddec_sum_bond_order
 _atom_site_hse06_magmom
 _atom_site_pbe_bader_spin_density
 _atom_site_pbe_cm5_charge
 _atom_site_pbe_ddec_charge
 _atom_site_pbe_ddec_spin_density
 _atom_site_pbe_ddec_sum_bond_order
 _atom_site_pbe_magmom
Cu  Cu0  1  0.76363463  0.54147956  0.96827152  1  0  0.222398  0  2.248366  0  0  0.143765  0  2.736348  0  0  0.154945  0  2.680535  0  0  0.239994  0.139027  0  2.773024  0
Cu  Cu1  1  0.23639035  0.95853288  0.46827196  1  0  0.222401  0  2.248336  0  0  0.143771  0  2.736349  0  0  0.154895  0  2.680565  0  0  0.240063  0.139038  0  2.773031  0
Cu  Cu2  1  0.23635259  0.45851008  0.03172949  1  0  0.22235  0  2.24846  0  0  0.143764  0  2.736461  0  0  0.154871  0  2.680661  0  0  0.239996  0.139036  0  2.773133  0
Cu  Cu3  1  0.76365638  0.04148903  0.53172988  1  0  0.222322  0  2.248442  0  0  0.143704  0  2.736451  0  0  0.154883  0  2.680669  0  0  0.239968  0.138967  0  2.773118  0
H  H4  1  0.35220701  0.28047222  0.79027988  1  0  0.10929  0  0.960147  0  0  0.116981  0  1.025474  0  0  0.120836  0  1.022865  0  0  0.108331  0.114174  0  1.027795  0
H  H5  1  0.64774820  0.21953559  0.29027572  1  0  0.109158  0  0.960026  0  0  0.116804  0  1.025439  0  0  0.120656  0  1.022835  0  0  0.108251  0.113999  0  1.027759  0
H  H6  1  0.64778101  0.71953610  0.20971198  1  0  0.109325  0  0.960071  0  0  0.11699  0  1.02542  0  0  0.120849  0  1.022805  0  0  0.108331  0.114181  0  1.027745  0
H  H7  1  0.35222085  0.78046746  0.70972030  1  0  0.109308  0  0.960143  0  0  0.117012  0  1.02545  0  0  0.120866  0  1.022845  0  0  0.108323  0.114205  0  1.027771  0
H  H8  1  0.41782938  0.32000257  0.89304541  1  0  0.074467  0  0.956163  0  0  0.079596  0  1.028844  0  0  0.083412  0  1.025206  0  0  0.104216  0.077025  0  1.03095  0
H  H9  1  0.58214573  0.18001413  0.39304250  1  0  0.074468  0  0.95628  0  0  0.079597  0  1.028927  0  0  0.083415  0  1.025291  0  0  0.104214  0.077015  0  1.031023  0
H  H10  1  0.58216244  0.67998591  0.10694645  1  0  0.07444  0  0.956164  0  0  0.079628  0  1.02881  0  0  0.08345  0  1.02517  0  0  0.104184  0.07705  0  1.030908  0
H  H11  1  0.41783590  0.81999756  0.60695352  1  0  0.074459  0  0.956178  0  0  0.079574  0  1.028879  0  0  0.083391  0  1.025241  0  0  0.104197  0.076996  0  1.030982  0
H  H12  1  0.07882941  0.69227404  0.86932988  1  0  0.086024  0  0.962944  0  0  0.090675  0  1.033929  0  0  0.09428  0  1.030468  0  0  0.106079  0.088128  0  1.036222  0
H  H13  1  0.92115549  0.80772988  0.36933899  1  0  0.08598  0  0.962823  0  0  0.090649  0  1.033798  0  0  0.09426  0  1.03033  0  0  0.106057  0.0881  0  1.036096  0
H  H14  1  0.92113907  0.30771913  0.13067445  1  0  0.086033  0  0.96286  0  0  0.090662  0  1.033858  0  0  0.094272  0  1.030391  0  0  0.106016  0.088115  0  1.036145  0
H  H15  1  0.07881738  0.19227752  0.63066909  1  0  0.086019  0  0.962915  0  0  0.090663  0  1.033913  0  0  0.094274  0  1.030443  0  0  0.106019  0.088116  0  1.036203  0
H  H16  1  0.03597783  0.67194404  0.76719162  1  0  0.107076  0  0.975107  0  0  0.111557  0  1.047568  0  0  0.115377  0  1.044793  0  0  0.107084  0.108899  0  1.049605  0
H  H17  1  0.96396871  0.82805563  0.26719820  1  0  0.106986  0  0.975178  0  0  0.111463  0  1.047647  0  0  0.115259  0  1.044894  0  0  0.107095  0.108819  0  1.049642  0
H  H18  1  0.96403174  0.32806182  0.23281521  1  0  0.107107  0  0.975184  0  0  0.111582  0  1.047591  0  0  0.115405  0  1.044813  0  0  0.107122  0.108915  0  1.04965  0
H  H19  1  0.03595231  0.17195240  0.73280821  1  0  0.107104  0  0.975284  0  0  0.111679  0  1.047588  0  0  0.115503  0  1.044811  0  0  0.107122  0.109018  0  1.049634  0
H  H20  1  0.93200708  0.43158918  0.60693436  1  0  0.097384  0  0.949866  0  0  0.111579  0  1.021418  0  0  0.11248  0  1.020277  0  0  0.096872  0.110823  0  1.022186  0
H  H21  1  0.06803067  0.06840454  0.10694345  1  0  0.097352  0  0.949898  0  0  0.111508  0  1.021488  0  0  0.112408  0  1.020352  0  0  0.096832  0.110754  0  1.022255  0
H  H22  1  0.06806961  0.56843346  0.39305750  1  0  0.09739  0  0.949747  0  0  0.111488  0  1.021448  0  0  0.112394  0  1.020301  0  0  0.09687  0.110725  0  1.022202  0
H  H23  1  0.93196102  0.93156745  0.89306296  1  0  0.097408  0  0.949895  0  0  0.111598  0  1.021486  0  0  0.1125  0  1.020346  0  0  0.096916  0.110849  0  1.022244  0
H  H24  1  0.97404876  0.62861383  0.60149046  1  0  0.092269  0  0.953389  0  0  0.108433  0  1.021354  0  0  0.109301  0  1.0204  0  0  0.094952  0.108109  0  1.021237  0
H  H25  1  0.02598363  0.87137343  0.10148573  1  0  0.092303  0  0.95332  0  0  0.108455  0  1.021295  0  0  0.109327  0  1.020348  0  0  0.094949  0.108128  0  1.021181  0
H  H26  1  0.02603443  0.37139774  0.39851180  1  0  0.092292  0  0.953321  0  0  0.10844  0  1.021295  0  0  0.109302  0  1.020357  0  0  0.094983  0.108112  0  1.021187  0
H  H27  1  0.97399044  0.12859767  0.89851570  1  0  0.092307  0  0.953248  0  0  0.108412  0  1.021304  0  0  0.109274  0  1.020358  0  0  0.094962  0.108085  0  1.021198  0
H  H28  1  0.56905372  0.52699085  0.60476985  1  0  0.091468  0  0.955503  0  0  0.105853  0  1.02563  0  0  0.106786  0  1.024865  0  0  0.095386  0.104553  0  1.027365  0
H  H29  1  0.43098919  0.97299970  0.10477549  1  0  0.091486  0  0.955584  0  0  0.105883  0  1.025684  0  0  0.106817  0  1.024922  0  0  0.095391  0.104584  0  1.027417  0
H  H30  1  0.43104945  0.47302927  0.39522201  1  0  0.09153  0  0.955138  0  0  0.105933  0  1.025259  0  0  0.106868  0  1.024496  0  0  0.095431  0.104629  0  1.027001  0
H  H31  1  0.56898846  0.02696696  0.89522968  1  0  0.09156  0  0.955236  0  0  0.106004  0  1.025321  0  0  0.106939  0  1.024555  0  0  0.095458  0.104703  0  1.027063  0
C  C32  1  0.64514475  0.45276046  0.70873796  1  0  0.577015  0  3.796533  0  0  0.528618  0  4.086803  0  0  0.562159  0  4.07639  0  0  0.235576  0.505623  0  4.092988  0
C  C33  1  0.35482545  0.04722339  0.20873923  1  0  0.57717  0  3.797302  0  0  0.528482  0  4.087785  0  0  0.562007  0  4.077373  0  0  0.235556  0.505494  0  4.093972  0
C  C34  1  0.35488558  0.54724845  0.29125806  1  0  0.577017  0  3.79697  0  0  0.528412  0  4.087422  0  0  0.56195  0  4.077004  0  0  0.235415  0.505418  0  4.093618  0
C  C35  1  0.64514638  0.95275654  0.79125970  1  0  0.576911  0  3.796559  0  0  0.528404  0  4.086964  0  0  0.561943  0  4.076547  0  0  0.235438  0.50541  0  4.093151  0
C  C36  1  0.68792174  0.47378889  0.76983448  1  0  -0.031594  0  3.764378  0  0  -0.014893  0  4.001157  0  0  -0.017396  0  4.020755  0  0  -0.003086  -0.013225  0  3.988276  0
C  C37  1  0.31204326  0.02621038  0.26983328  1  0  -0.03206  0  3.764596  0  0  -0.015167  0  4.00128  0  0  -0.017651  0  4.020852  0  0  -0.003224  -0.0135  0  3.988408  0
C  C38  1  0.31209794  0.52622565  0.23016570  1  0  -0.031839  0  3.764812  0  0  -0.015063  0  4.001543  0  0  -0.017582  0  4.021166  0  0  -0.003211  -0.013394  0  3.988667  0
C  C39  1  0.68791355  0.97378512  0.73016606  1  0  -0.031564  0  3.764384  0  0  -0.014853  0  4.001201  0  0  -0.017346  0  4.020784  0  0  -0.003066  -0.013183  0  3.988321  0
C  C40  1  0.51453253  0.37335986  0.80621838  1  0  -0.110582  0  3.713432  0  0  -0.134788  0  3.961386  0  0  -0.139401  0  3.982398  0  0  -0.078327  -0.132692  0  3.948595  0
C  C41  1  0.48542450  0.12664409  0.30621758  1  0  -0.110212  0  3.713088  0  0  -0.13445  0  3.960978  0  0  -0.139069  0  3.982003  0  0  -0.078227  -0.132359  0  3.948183  0
C  C42  1  0.48546368  0.62664286  0.19378013  1  0  -0.110402  0  3.71345  0  0  -0.134592  0  3.961387  0  0  -0.139197  0  3.982403  0  0  -0.078248  -0.132503  0  3.948604  0
C  C43  1  0.51454242  0.87336009  0.69378218  1  0  -0.110607  0  3.713571  0  0  -0.134829  0  3.961503  0  0  -0.139446  0  3.982514  0  0  -0.078354  -0.132737  0  3.948714  0
C  C44  1  0.54987549  0.39449371  0.86311586  1  0  0.115956  0  3.678401  0  0  0.090077  0  3.92573  0  0  0.095141  0  3.942702  0  0  0.037623  0.086771  0  3.914526  0
C  C45  1  0.45010575  0.10552296  0.36311714  1  0  0.11573  0  3.67877  0  0  0.089906  0  3.926006  0  0  0.094953  0  3.942928  0  0  0.037581  0.086616  0  3.914795  0
C  C46  1  0.45010747  0.60549818  0.13688265  1  0  0.115929  0  3.67829  0  0  0.090044  0  3.925647  0  0  0.0951  0  3.942596  0  0  0.037674  0.08675  0  3.914432  0
C  C47  1  0.54987902  0.89449090  0.63688595  1  0  0.115931  0  3.678529  0  0  0.090098  0  3.925853  0  0  0.095154  0  3.942815  0  0  0.037662  0.086799  0  3.914639  0
C  C48  1  0.91640621  0.60355075  0.85032275  1  0  0.13361  0  3.64481  0  0  0.104266  0  3.895486  0  0  0.110331  0  3.910858  0  0  0.043747  0.100031  0  3.88581  0
C  C49  1  0.08358385  0.89646234  0.35032795  1  0  0.133443  0  3.644517  0  0  0.104101  0  3.895224  0  0  0.110137  0  3.910585  0  0  0.0436  0.099862  0  3.885557  0
C  C50  1  0.08357496  0.39644336  0.14967826  1  0  0.133637  0  3.644364  0  0  0.104386  0  3.894995  0  0  0.110438  0  3.910364  0  0  0.043756  0.100153  0  3.885314  0
C  C51  1  0.91639879  0.10355265  0.64967681  1  0  0.133623  0  3.644433  0  0  0.104268  0  3.895175  0  0  0.110325  0  3.910544  0  0  0.043789  0.100032  0  3.885496  0
C  C52  1  0.89314013  0.59062647  0.79287164  1  0  -0.101388  0  3.700791  0  0  -0.129807  0  3.956237  0  0  -0.13363  0  3.975846  0  0  -0.076543  -0.127841  0  3.943874  0
C  C53  1  0.10683027  0.90938042  0.29287350  1  0  -0.100989  0  3.700648  0  0  -0.129478  0  3.956141  0  0  -0.133293  0  3.975742  0  0  -0.076416  -0.127508  0  3.943785  0
C  C54  1  0.10686450  0.40937945  0.20713270  1  0  -0.101398  0  3.700834  0  0  -0.129778  0  3.95618  0  0  -0.1336  0  3.975797  0  0  -0.076472  -0.12782  0  3.943816  0
C  C55  1  0.89313194  0.09063261  0.70713167  1  0  -0.101458  0  3.700805  0  0  -0.129917  0  3.956184  0  0  -0.133749  0  3.975793  0  0  -0.076547  -0.127954  0  3.943823  0
C  C56  1  0.82764602  0.53241419  0.61908694  1  0  -0.071484  0  3.596878  0  0  -0.171456  0  3.862155  0  0  -0.163079  0  3.86333  0  0  -0.14627  -0.177001  0  3.861243  0
C  C57  1  0.17238161  0.96757265  0.11909058  1  0  -0.071464  0  3.597038  0  0  -0.171505  0  3.862273  0  0  -0.163149  0  3.86346  0  0  -0.146212  -0.177052  0  3.861366  0
C  C58  1  0.17242764  0.46759859  0.38090658  1  0  -0.071476  0  3.596412  0  0  -0.171457  0  3.861723  0  0  -0.163092  0  3.862899  0  0  -0.1463  -0.176977  0  3.86084  0
C  C59  1  0.82760267  0.03239943  0.88091251  1  0  -0.07161  0  3.596754  0  0  -0.171631  0  3.862066  0  0  -0.163255  0  3.863237  0  0  -0.146352  -0.177175  0  3.861154  0
I  I60  1  0.30895433  0.72453390  0.98848034  1  0  -0.342613  0  1.690378  0  0  -0.285086  0  2.122984  0  0  -0.303373  0  2.084112  0  0  -0.173643  -0.272849  0  2.15662  0
I  I61  1  0.69105122  0.77547179  0.48847637  1  0  -0.342616  0  1.690282  0  0  -0.285094  0  2.122874  0  0  -0.303388  0  2.084015  0  0  -0.173683  -0.272855  0  2.156495  0
I  I62  1  0.69103356  0.27545792  0.01152108  1  0  -0.342572  0  1.69032  0  0  -0.285043  0  2.122883  0  0  -0.303311  0  2.083999  0  0  -0.17363  -0.2728  0  2.1565  0
I  I63  1  0.30899057  0.22455018  0.51152381  1  0  -0.342563  0  1.690247  0  0  -0.28505  0  2.122815  0  0  -0.303357  0  2.083968  0  0  -0.173635  -0.272811  0  2.156448  0
N  N64  1  0.74733119  0.50792750  0.88531238  1  0  -0.247027  0  3.348423  0  0  -0.173217  0  3.626381  0  0  -0.184096  0  3.635628  0  0  -0.352985  -0.167046  0  3.620115  0
N  N65  1  0.25266587  0.99209004  0.38531629  1  0  -0.24685  0  3.348529  0  0  -0.173055  0  3.626476  0  0  -0.183844  0  3.635632  0  0  -0.352879  -0.166886  0  3.620208  0
N  N66  1  0.25265390  0.49206326  0.11468322  1  0  -0.247048  0  3.348199  0  0  -0.173441  0  3.626387  0  0  -0.184282  0  3.635588  0  0  -0.353064  -0.167275  0  3.620119  0
N  N67  1  0.74732665  0.00792483  0.61468471  1  0  -0.246925  0  3.348298  0  0  -0.173167  0  3.626295  0  0  -0.184018  0  3.635518  0  0  -0.352973  -0.166995  0  3.62002  0
O  O68  1  0.44818610  0.35722565  0.68781888  1  0  -0.513294  0  1.971099  0  0  -0.469529  0  2.194516  0  0  -0.48886  0  2.188699  0  0  -0.266973  -0.455863  0  2.197676  0
O  O69  1  0.55175443  0.14275012  0.18782168  1  0  -0.513371  0  1.971807  0  0  -0.469594  0  2.195379  0  0  -0.488925  0  2.189567  0  0  -0.267034  -0.455933  0  2.198544  0
O  O70  1  0.55182133  0.64278133  0.31217506  1  0  -0.513248  0  1.971366  0  0  -0.469495  0  2.194931  0  0  -0.48882  0  2.189105  0  0  -0.266946  -0.45584  0  2.198101  0
O  O71  1  0.44819472  0.85721249  0.81217850  1  0  -0.5133  0  1.971042  0  0  -0.46949  0  2.194516  0  0  -0.488818  0  2.188697  0  0  -0.266928  -0.455826  0  2.197678  0
O  O72  1  0.84644967  0.55081588  0.67895851  1  0  -0.288958  0  2.305767  0  0  -0.212599  0  2.54802  0  0  -0.235174  0  2.548622  0  0  -0.172015  -0.196623  0  2.546851  0
O  O73  1  0.15356400  0.94916555  0.17896294  1  0  -0.288956  0  2.305839  0  0  -0.2123  0  2.547981  0  0  -0.234852  0  2.548577  0  0  -0.171909  -0.196328  0  2.546811  0
O  O74  1  0.15360265  0.44918396  0.32103626  1  0  -0.28903  0  2.305743  0  0  -0.212434  0  2.547882  0  0  -0.235001  0  2.548484  0  0  -0.171908  -0.196455  0  2.546704  0
O  O75  1  0.84643780  0.05081511  0.82104265  1  0  -0.28894  0  2.305902  0  0  -0.212506  0  2.548171  0  0  -0.23508  0  2.548778  0  0  -0.172023  -0.196531  0  2.547006  0
