# generated using pymatgen
data_Cd3H28C12N8(Cl3O)2
_symmetry_space_group_name_H-M   'P 1'
_cell_length_a   9.07253461
_cell_length_b   9.88276869
_cell_length_c   15.65600000
_cell_angle_alpha   90.00000000
_cell_angle_beta   90.00000000
_cell_angle_gamma   109.43261072
_symmetry_Int_Tables_number   1
_chemical_formula_structural   Cd3H28C12N8(Cl3O)2
_chemical_formula_sum   'Cd6 H56 C24 N16 Cl12 O4'
_cell_volume   1323.77804766
_cell_formula_units_Z   2
loop_
 _symmetry_equiv_pos_site_id
 _symmetry_equiv_pos_as_xyz
  1  'x, y, z'
loop_
 _atom_site_type_symbol
 _atom_site_label
 _atom_site_symmetry_multiplicity
 _atom_site_fract_x
 _atom_site_fract_y
 _atom_site_fract_z
 _atom_site_occupancy
 _atom_site_hle17_bader_spin_density
 _atom_site_hle17_ddec_charge
 _atom_site_hle17_ddec_spin_density
 _atom_site_hle17_ddec_sum_bond_order
 _atom_site_hle17_magmom
 _atom_site_hse06_10hf_bader_spin_density
 _atom_site_hse06_10hf_ddec_charge
 _atom_site_hse06_10hf_ddec_spin_density
 _atom_site_hse06_10hf_ddec_sum_bond_order
 _atom_site_hse06_10hf_magmom
 _atom_site_hse06_bader_spin_density
 _atom_site_hse06_ddec_charge
 _atom_site_hse06_ddec_spin_density
 _atom_site_hse06_ddec_sum_bond_order
 _atom_site_hse06_magmom
 _atom_site_pbe_bader_charge
 _atom_site_pbe_bader_spin_density
 _atom_site_pbe_cm5_charge
 _atom_site_pbe_ddec_charge
 _atom_site_pbe_ddec_spin_density
 _atom_site_pbe_ddec_sum_bond_order
 _atom_site_pbe_magmom
Cd  Cd0  1  0.08747198  0.68899899  0.95992527  1  0  0.964475  0  1.946752  0  0  0.807121  0  2.395727  0  0  0.853704  0  2.353519  0  1.154199  0  0.583982  0.773686  0  2.425495  0
Cd  Cd1  1  0.58746335  0.18900121  0.54007409  1  0  0.964474  0  1.946796  0  0  0.807121  0  2.395768  0  0  0.853704  0  2.353561  0  1.154148  0  0.583964  0.773684  0  2.425535  0
Cd  Cd2  1  0.91253473  0.31099764  0.04007026  1  0  0.964454  0  1.946791  0  0  0.807102  0  2.395751  0  0  0.853685  0  2.353543  0  1.154073  0  0.583959  0.773666  0  2.425518  0
Cd  Cd3  1  0.41253137  0.81100185  0.45992846  1  0  0.964441  0  1.946844  0  0  0.807072  0  2.395823  0  0  0.853656  0  2.353613  0  1.154033  0  0.583962  0.773637  0  2.42559  0
Cd  Cd4  1  0.00000029  0.99999877  0.99999681  1  0  0.958923  0  1.966671  0  0  0.789837  0  2.42759  0  0  0.834868  0  2.388647  0  1.166276  0  0.612457  0.756256  0  2.455679  0
Cd  Cd5  1  0.50000015  0.50000314  0.50000064  1  0  0.958901  0  1.966697  0  0  0.789817  0  2.427616  0  0  0.834849  0  2.388677  0  1.166251  0  0.612448  0.756239  0  2.455701  0
H  H6  1  0.37753781  0.63538614  0.00413707  1  0  0.419953  0  0.837367  0  0  0.392934  0  0.911105  0  0  0.402477  0  0.900133  0  0.624379  0  0.30046  0.386083  0  0.91899  0
H  H7  1  0.87753624  0.13539266  0.49586548  1  0  0.419965  0  0.837301  0  0  0.392945  0  0.911027  0  0  0.402494  0  0.900048  0  0.624417  0  0.300448  0.386096  0  0.918911  0
H  H8  1  0.62246301  0.36460941  0.99586548  1  0  0.41995  0  0.837335  0  0  0.392926  0  0.911067  0  0  0.402477  0  0.900087  0  0.624373  0  0.300454  0.386076  0  0.918952  0
H  H9  1  0.12246108  0.86461148  0.50413388  1  0  0.41996  0  0.837297  0  0  0.392916  0  0.911059  0  0  0.402468  0  0.900078  0  0.624391  0  0.300459  0.386067  0  0.918943  0
H  H10  1  0.26457052  0.50297961  0.95767182  1  0  0.394738  0  0.910878  0  0  0.364388  0  0.984055  0  0  0.373715  0  0.97065  0  0.620935  0  0.262111  0.356905  0  0.994848  0
H  H11  1  0.76456818  0.00298398  0.54233074  1  0  0.394795  0  0.910802  0  0  0.364439  0  0.983993  0  0  0.373765  0  0.970587  0  0.621008  0  0.26214  0.356954  0  0.994788  0
H  H12  1  0.73543108  0.49701809  0.04232946  1  0  0.394766  0  0.910842  0  0  0.36441  0  0.984032  0  0  0.373736  0  0.970626  0  0.62099  0  0.262108  0.356926  0  0.994825  0
H  H13  1  0.23542875  0.99701909  0.45766799  1  0  0.394753  0  0.91081  0  0  0.364398  0  0.984035  0  0  0.373724  0  0.970629  0  0.621073  0  0.262118  0.356915  0  0.994828  0
H  H14  1  0.99269300  0.00664286  0.61364205  1  0  0.282726  0  0.917151  0  0  0.271746  0  0.984533  0  0  0.277278  0  0.979095  0  0.450111  0  0.297398  0.2675  0  0.988668  0
H  H15  1  0.49268587  0.50664278  0.88635731  1  0  0.282736  0  0.917076  0  0  0.27176  0  0.98448  0  0  0.277292  0  0.97904  0  0.450022  0  0.297387  0.267511  0  0.988626  0
H  H16  1  0.00730328  0.99334625  0.38635539  1  0  0.28273  0  0.917204  0  0  0.271804  0  0.984513  0  0  0.277336  0  0.979074  0  0.449969  0  0.297418  0.267554  0  0.988661  0
H  H17  1  0.50731352  0.49335492  0.11364844  1  0  0.2827  0  0.917135  0  0  0.271724  0  0.98451  0  0  0.277252  0  0.979082  0  0.449972  0  0.297393  0.267478  0  0.988644  0
H  H18  1  0.18485695  0.04385403  0.61460399  1  0  0.276154  0  0.938628  0  0  0.260916  0  1.014518  0  0  0.26628  0  1.009471  0  0.447019  0  0.280711  0.256919  0  1.018371  0
H  H19  1  0.68485476  0.54385074  0.88539154  1  0  0.276174  0  0.938584  0  0  0.260952  0  1.014439  0  0  0.266313  0  1.009393  0  0.447053  0  0.280728  0.256957  0  1.018288  0
H  H20  1  0.81514141  0.95614688  0.38538963  1  0  0.276141  0  0.938661  0  0  0.260914  0  1.01453  0  0  0.266276  0  1.009484  0  0.44705  0  0.280713  0.25692  0  1.018375  0
H  H21  1  0.31514236  0.45614374  0.11460846  1  0  0.276181  0  0.938519  0  0  0.260939  0  1.014413  0  0  0.266302  0  1.009367  0  0.447004  0  0.280702  0.256942  0  1.018268  0
H  H22  1  0.15353782  0.63538078  0.75626405  1  0  0.09213  0  0.933965  0  0  0.108875  0  0.994065  0  0  0.110035  0  0.993795  0  0.052825  0  0.096438  0.108649  0  0.992991  0
H  H23  1  0.65352303  0.13538729  0.74374042  1  0  0.092152  0  0.934094  0  0  0.108991  0  0.994085  0  0  0.110155  0  0.993814  0  0.052731  0  0.096462  0.108759  0  0.993011  0
H  H24  1  0.84647065  0.36461155  0.24373723  1  0  0.092118  0  0.934009  0  0  0.108919  0  0.994079  0  0  0.110078  0  0.993811  0  0.052666  0  0.096456  0.108692  0  0.993009  0
H  H25  1  0.34647494  0.86461255  0.25626980  1  0  0.0921  0  0.933916  0  0  0.1089  0  0.994003  0  0  0.110064  0  0.993731  0  0.052612  0  0.096429  0.108674  0  0.992925  0
H  H26  1  0.20277770  0.73633057  0.66082141  1  0  0.098745  0  0.977958  0  0  0.109137  0  1.047186  0  0  0.110932  0  1.046645  0  0.085356  0  0.084237  0.107447  0  1.048308  0
H  H27  1  0.70275863  0.23632528  0.83917795  1  0  0.098716  0  0.978076  0  0  0.109179  0  1.0472  0  0  0.110979  0  1.046664  0  0.085235  0  0.084254  0.107489  0  1.048324  0
H  H28  1  0.79722895  0.26366283  0.33917731  1  0  0.098686  0  0.977988  0  0  0.109153  0  1.047143  0  0  0.110951  0  1.046599  0  0.085454  0  0.084252  0.107464  0  1.048264  0
H  H29  1  0.29722695  0.76366168  0.16082908  1  0  0.098714  0  0.977963  0  0  0.109183  0  1.047109  0  0  0.110984  0  1.04657  0  0.0855  0  0.084287  0.107493  0  1.048232  0
H  H30  1  0.98368663  0.51041755  0.63326329  1  0  0.110775  0  0.948023  0  0  0.13229  0  1.006659  0  0  0.133977  0  1.006453  0  0.065294  0  0.082285  0.131156  0  1.006571  0
H  H31  1  0.48366547  0.01041119  0.86673416  1  0  0.110777  0  0.948051  0  0  0.132285  0  1.006696  0  0  0.133964  0  1.006507  0  0.065599  0  0.082348  0.131152  0  1.006602  0
H  H32  1  0.01632281  0.48958659  0.36673480  1  0  0.110754  0  0.948001  0  0  0.132293  0  1.006624  0  0  0.133979  0  1.006424  0  0.065558  0  0.082323  0.13116  0  1.006531  0
H  H33  1  0.51631200  0.98957471  0.13326392  1  0  0.110789  0  0.948051  0  0  0.132301  0  1.006687  0  0  0.133983  0  1.006493  0  0.065393  0  0.082292  0.131168  0  1.006594  0
H  H34  1  0.91358305  0.65601860  0.62062340  1  0  0.100369  0  0.959858  0  0  0.116598  0  1.031095  0  0  0.118206  0  1.030956  0  0.047058  0  0.077872  0.115002  0  1.032001  0
H  H35  1  0.41355937  0.15601439  0.87937915  1  0  0.10037  0  0.959789  0  0  0.116599  0  1.031054  0  0  0.118244  0  1.030877  0  0.046862  0  0.077842  0.115  0  1.031962  0
H  H36  1  0.08642710  0.34398446  0.37937532  1  0  0.10034  0  0.95989  0  0  0.116581  0  1.031147  0  0  0.11819  0  1.03101  0  0.047038  0  0.077845  0.114984  0  1.032051  0
H  H37  1  0.58642634  0.84397902  0.12062213  1  0  0.100311  0  0.959799  0  0  0.11659  0  1.030998  0  0  0.118228  0  1.030828  0  0.046925  0  0.077867  0.114993  0  1.031904  0
H  H38  1  0.87104827  0.55120391  0.71609543  1  0  0.088995  0  0.979086  0  0  0.104383  0  1.051189  0  0  0.105431  0  1.052418  0  0.029687  0  0.073556  0.103654  0  1.050234  0
H  H39  1  0.37103743  0.05119863  0.78390010  1  0  0.088926  0  0.979078  0  0  0.104378  0  1.051123  0  0  0.105428  0  1.052355  0  0.02953  0  0.073551  0.10365  0  1.050167  0
H  H40  1  0.12895786  0.44880022  0.28389627  1  0  0.088904  0  0.979045  0  0  0.104341  0  1.051126  0  0  0.105392  0  1.052352  0  0.029481  0  0.07353  0.103612  0  1.05017  0
H  H41  1  0.62895490  0.94879478  0.21609479  1  0  0.088989  0  0.979085  0  0  0.10439  0  1.051171  0  0  0.105437  0  1.052406  0  0.029697  0  0.073567  0.103663  0  1.050214  0
H  H42  1  0.96768899  0.18876408  0.82408470  1  0  0.103277  0  0.956169  0  0  0.113717  0  1.024981  0  0  0.115205  0  1.025156  0  0.091303  0  0.092898  0.112374  0  1.025019  0
H  H43  1  0.46768660  0.68878010  0.67591786  1  0  0.103372  0  0.956043  0  0  0.113759  0  1.024887  0  0  0.115258  0  1.025059  0  0.091252  0  0.092909  0.112395  0  1.024946  0
H  H44  1  0.03231442  0.81123254  0.17591083  1  0  0.103318  0  0.956296  0  0  0.113748  0  1.025087  0  0  0.115242  0  1.025263  0  0.091209  0  0.092919  0.112387  0  1.02512  0
H  H45  1  0.53232595  0.31125086  0.32409236  1  0  0.103299  0  0.95625  0  0  0.113716  0  1.025055  0  0  0.115211  0  1.025235  0  0.091193  0  0.092896  0.112346  0  1.025095  0
H  H46  1  0.94659513  0.15593391  0.71290943  1  0  0.096513  0  0.924229  0  0  0.116093  0  0.976242  0  0  0.117595  0  0.97554  0  0.054363  0  0.102695  0.11486  0  0.97697  0
H  H47  1  0.44658262  0.65594027  0.78708929  1  0  0.096474  0  0.924221  0  0  0.116063  0  0.976215  0  0  0.117569  0  0.975518  0  0.054265  0  0.102664  0.114827  0  0.976939  0
H  H48  1  0.05340530  0.84406056  0.28708802  1  0  0.096536  0  0.924291  0  0  0.116136  0  0.976266  0  0  0.117643  0  0.975566  0  0.054323  0  0.10268  0.114884  0  0.976985  0
H  H49  1  0.55340419  0.34407137  0.21291645  1  0  0.096522  0  0.924195  0  0  0.116111  0  0.976172  0  0  0.117621  0  0.975471  0  0.054496  0  0.102707  0.114861  0  0.976887  0
H  H50  1  0.15580087  0.38858207  0.74221832  1  0  0.109206  0  0.948658  0  0  0.133103  0  1.005142  0  0  0.134303  0  1.005589  0  0.055233  0  0.088251  0.133015  0  1.003356  0
H  H51  1  0.65580439  0.88858843  0.75778679  1  0  0.109188  0  0.948604  0  0  0.133099  0  1.005083  0  0  0.134297  0  1.005533  0  0.055137  0  0.088253  0.133011  0  1.003296  0
H  H52  1  0.84420066  0.61141241  0.25777146  1  0  0.109154  0  0.948626  0  0  0.133013  0  1.005199  0  0  0.134211  0  1.00565  0  0.055065  0  0.088217  0.132927  0  1.003406  0
H  H53  1  0.34421140  0.11142107  0.24223173  1  0  0.109156  0  0.948617  0  0  0.133022  0  1.005177  0  0  0.134218  0  1.005632  0  0.055346  0  0.088257  0.132936  0  1.003386  0
H  H54  1  0.24147302  0.26984753  0.69451903  1  0  0.097375  0  0.967221  0  0  0.113243  0  1.038558  0  0  0.114884  0  1.038718  0  0.03679  0  0.078947  0.111766  0  1.038886  0
H  H55  1  0.74146423  0.76984423  0.80548671  1  0  0.097381  0  0.967391  0  0  0.113267  0  1.038658  0  0  0.114905  0  1.038818  0  0.036994  0  0.078955  0.111792  0  1.038983  0
H  H56  1  0.75852734  0.73014373  0.30546755  1  0  0.097319  0  0.9671  0  0  0.113195  0  1.038446  0  0  0.114836  0  1.038603  0  0.036488  0  0.078939  0.111711  0  1.038785  0
H  H57  1  0.25853497  0.23014381  0.19453373  1  0  0.097269  0  0.967076  0  0  0.113095  0  1.038481  0  0  0.114734  0  1.038641  0  0.036253  0  0.078891  0.111617  0  1.038813  0
H  H58  1  0.25665096  0.30062400  0.80739461  1  0  0.098461  0  0.966651  0  0  0.116834  0  1.034181  0  0  0.117887  0  1.035174  0  0.02052  0  0.080032  0.11576  0  1.03399  0
H  H59  1  0.75664047  0.80062822  0.69260986  1  0  0.09855  0  0.966645  0  0  0.116891  0  1.034208  0  0  0.117954  0  1.035189  0  0.02068  0  0.080065  0.115805  0  1.034028  0
H  H60  1  0.74335433  0.69937477  0.19259262  1  0  0.098398  0  0.966693  0  0  0.116773  0  1.034227  0  0  0.117828  0  1.035217  0  0.020346  0  0.080001  0.115686  0  1.034046  0
H  H61  1  0.24336015  0.19937592  0.30740994  1  0  0.098408  0  0.966771  0  0  0.116785  0  1.034289  0  0  0.117838  0  1.03528  0  0.020366  0  0.080019  0.115699  0  1.034108  0
C  C62  1  0.08934791  0.81936471  0.75465317  1  0  0.335334  0  3.655066  0  0  0.299674  0  3.933561  0  0  0.315875  0  3.946496  0  0.931573  0  0.243702  0.289386  0  3.924004  0
C  C63  1  0.58933306  0.31936800  0.74534619  1  0  0.335278  0  3.655208  0  0  0.299565  0  3.933829  0  0  0.315772  0  3.946766  0  0.93123  0  0.243682  0.289276  0  3.924272  0
C  C64  1  0.91066509  0.18063406  0.24534619  1  0  0.335244  0  3.655159  0  0  0.299584  0  3.933745  0  0  0.315788  0  3.946675  0  0.93125  0  0.243662  0.289296  0  3.924185  0
C  C65  1  0.41066244  0.68063720  0.25465445  1  0  0.335219  0  3.655254  0  0  0.299648  0  3.933705  0  0  0.315857  0  3.946634  0  0.931095  0  0.243679  0.28936  0  3.924146  0
C  C66  1  0.04871889  0.02488578  0.78128769  1  0  0.31187  0  3.662944  0  0  0.278207  0  3.93872  0  0  0.29368  0  3.952679  0  0.971854  0  0.23981  0.267976  0  3.929039  0
C  C67  1  0.54870406  0.52489321  0.71871104  1  0  0.311674  0  3.662968  0  0  0.278068  0  3.938652  0  0  0.29355  0  3.952618  0  0.972164  0  0.239842  0.267834  0  3.928964  0
C  C68  1  0.95128938  0.97511514  0.21870720  1  0  0.311847  0  3.663008  0  0  0.278352  0  3.938545  0  0  0.293836  0  3.952505  0  0.972213  0  0.239842  0.268095  0  3.928849  0
C  C69  1  0.45128599  0.47511522  0.28129216  1  0  0.311747  0  3.663053  0  0  0.278227  0  3.938618  0  0  0.29371  0  3.952585  0  0.972221  0  0.239797  0.26797  0  3.92892  0
C  C70  1  0.11097594  0.69600344  0.70913260  1  0  -0.168683  0  3.737695  0  0  -0.204288  0  3.99203  0  0  -0.207077  0  4.003016  0  0.056426  0  -0.162485  -0.202509  0  3.983512  0
C  C71  1  0.61096361  0.19600460  0.79086804  1  0  -0.168678  0  3.737838  0  0  -0.204449  0  3.992387  0  0  -0.207235  0  4.003347  0  0.057152  0  -0.162573  -0.20266  0  3.983858  0
C  C72  1  0.88902818  0.30399211  0.29086676  1  0  -0.168583  0  3.737577  0  0  -0.204364  0  3.992169  0  0  -0.207158  0  4.003159  0  0.056884  0  -0.162522  -0.202585  0  3.983647  0
C  C73  1  0.38903441  0.80399847  0.20913324  1  0  -0.168558  0  3.737544  0  0  -0.204365  0  3.992086  0  0  -0.207172  0  4.003097  0  0.056506  0  -0.162513  -0.20258  0  3.983564  0
C  C74  1  0.96022946  0.59800758  0.66735565  1  0  -0.269251  0  3.67455  0  0  -0.345511  0  3.923874  0  0  -0.347913  0  3.933835  0  -0.07982  0  -0.254748  -0.343462  0  3.91686  0
C  C75  1  0.46021433  0.09800874  0.83264371  1  0  -0.269162  0  3.674453  0  0  -0.345484  0  3.923824  0  0  -0.347919  0  3.933769  0  -0.080296  0  -0.254708  -0.343432  0  3.916806  0
C  C76  1  0.03978070  0.40199548  0.33264052  1  0  -0.269092  0  3.674363  0  0  -0.345439  0  3.923759  0  0  -0.347837  0  3.933702  0  -0.080276  0  -0.254692  -0.343391  0  3.916751  0
C  C77  1  0.53977624  0.90198896  0.16735373  1  0  -0.269192  0  3.674433  0  0  -0.345491  0  3.923852  0  0  -0.34792  0  3.933798  0  -0.07985  0  -0.254728  -0.343441  0  3.916835  0
C  C78  1  0.02626578  0.16538049  0.76741633  1  0  -0.161268  0  3.719246  0  0  -0.19372  0  3.968227  0  0  -0.196599  0  3.979618  0  0.035298  0  -0.154012  -0.191694  0  3.960364  0
C  C79  1  0.52625983  0.66539114  0.73258495  1  0  -0.16118  0  3.719146  0  0  -0.193603  0  3.96814  0  0  -0.19651  0  3.979553  0  0.035259  0  -0.15395  -0.191549  0  3.960262  0
C  C80  1  0.97373990  0.83461936  0.23257793  1  0  -0.161399  0  3.719477  0  0  -0.193876  0  3.968357  0  0  -0.196781  0  3.979779  0  0.035308  0  -0.154001  -0.191759  0  3.960375  0
C  C81  1  0.47373943  0.33461836  0.26742527  1  0  -0.161353  0  3.71944  0  0  -0.193791  0  3.968299  0  0  -0.196676  0  3.979674  0  0.035274  0  -0.154033  -0.191673  0  3.960337  0
C  C82  1  0.18028483  0.28819560  0.75156426  1  0  -0.269287  0  3.663938  0  0  -0.345686  0  3.908428  0  0  -0.347794  0  3.918409  0  -0.057055  0  -0.250183  -0.343977  0  3.900969  0
C  C83  1  0.68028129  0.78819767  0.74844085  1  0  -0.269377  0  3.664064  0  0  -0.345785  0  3.90858  0  0  -0.347889  0  3.918561  0  -0.057431  0  -0.250192  -0.344068  0  3.901122  0
C  C84  1  0.81971897  0.71180210  0.24842361  1  0  -0.26904  0  3.663767  0  0  -0.345464  0  3.908258  0  0  -0.347565  0  3.918249  0  -0.056343  0  -0.250108  -0.343761  0  3.900777  0
C  C85  1  0.31972485  0.21180647  0.25157959  1  0  -0.268995  0  3.663903  0  0  -0.345375  0  3.908412  0  0  -0.347473  0  3.918412  0  -0.056524  0  -0.250084  -0.343679  0  3.900925  0
N  N86  1  0.07994697  0.96605055  0.62883559  1  0  -0.50559  0  2.95028  0  0  -0.504772  0  3.191295  0  0  -0.512415  0  3.190005  0  -0.762504  0  -0.49389  -0.498798  0  3.192462  0
N  N87  1  0.57994054  0.46605277  0.87116313  1  0  -0.50566  0  2.950003  0  0  -0.504864  0  3.190996  0  0  -0.512504  0  3.189707  0  -0.762565  0  -0.49391  -0.498892  0  3.192166  0
N  N88  1  0.92005456  0.03394393  0.37115994  1  0  -0.505618  0  2.950231  0  0  -0.504831  0  3.191115  0  0  -0.51247  0  3.189827  0  -0.762444  0  -0.493933  -0.498857  0  3.192281  0
N  N89  1  0.42005528  0.53395029  0.12883623  1  0  -0.505624  0  2.949953  0  0  -0.504792  0  3.190955  0  0  -0.512436  0  3.18967  0  -0.762287  0  -0.49389  -0.498817  0  3.192122  0
N  N90  1  0.07377276  0.93951881  0.71707013  1  0  -0.030029  0  3.507622  0  0  0.050895  0  3.732511  0  0  0.036175  0  3.754615  0  -0.866301  0  -0.144532  0.060616  0  3.717059  0
N  N91  1  0.57375933  0.43951996  0.78292667  1  0  -0.029846  0  3.507523  0  0  0.051075  0  3.732424  0  0  0.036349  0  3.754528  0  -0.866055  0  -0.144563  0.060796  0  3.716972  0
N  N92  1  0.92622916  0.06047674  0.28292540  1  0  -0.02996  0  3.507622  0  0  0.050907  0  3.7325  0  0  0.036182  0  3.754603  0  -0.866135  0  -0.144548  0.060628  0  3.71705  0
N  N93  1  0.42622833  0.56047881  0.21707269  1  0  -0.029926  0  3.507587  0  0  0.050923  0  3.73241  0  0  0.036199  0  3.754511  0  -0.866095  0  -0.144516  0.060645  0  3.716963  0
N  N94  1  0.07667088  0.83228668  0.83823454  1  0  -0.320671  0  3.156531  0  0  -0.269968  0  3.440496  0  0  -0.287911  0  3.460362  0  -0.754715  0  -0.247742  -0.258465  0  3.427355  0
N  N95  1  0.57665861  0.33229105  0.66176482  1  0  -0.320712  0  3.156805  0  0  -0.269982  0  3.440794  0  0  -0.287926  0  3.460657  0  -0.754313  0  -0.247722  -0.258479  0  3.427654  0
N  N96  1  0.92333150  0.16771316  0.16176418  1  0  -0.320659  0  3.15655  0  0  -0.269945  0  3.440542  0  0  -0.287886  0  3.460405  0  -0.754568  0  -0.247727  -0.258441  0  3.427398  0
N  N97  1  0.42333144  0.66771737  0.33823518  1  0  -0.320633  0  3.1565  0  0  -0.269935  0  3.440439  0  0  -0.287878  0  3.460302  0  -0.754631  0  -0.247747  -0.258431  0  3.427295  0
N  N98  1  0.04992214  0.95920704  0.85469021  1  0  -0.299473  0  3.166462  0  0  -0.247269  0  3.449416  0  0  -0.264513  0  3.470056  0  -0.756885  0  -0.243284  -0.236183  0  3.435872  0
N  N99  1  0.54990806  0.45921248  0.64530851  1  0  -0.299486  0  3.166582  0  0  -0.247291  0  3.449489  0  0  -0.264538  0  3.470132  0  -0.757042  0  -0.243362  -0.236205  0  3.435942  0
N  N100  1  0.95008211  0.04079495  0.14530531  1  0  -0.299493  0  3.166494  0  0  -0.247327  0  3.449357  0  0  -0.264568  0  3.469987  0  -0.757037  0  -0.243313  -0.236242  0  3.435822  0
N  N101  1  0.45008309  0.54079594  0.35469213  1  0  -0.299469  0  3.166441  0  0  -0.247314  0  3.449351  0  0  -0.264563  0  3.469996  0  -0.756959  0  -0.243307  -0.236227  0  3.435812  0
Cl  Cl102  1  0.24141772  0.92263751  0.03296755  1  0  -0.503535  0  1.036176  0  0  -0.432995  0  1.306146  0  0  -0.453119  0  1.287461  0  -0.595784  0  -0.267417  -0.418101  0  1.320194  0
Cl  Cl103  1  0.74141829  0.42264081  0.46703309  1  0  -0.503524  0  1.036171  0  0  -0.432983  0  1.306131  0  0  -0.453109  0  1.287444  0  -0.595761  0  -0.267416  -0.418085  0  1.320176  0
Cl  Cl104  1  0.75858239  0.07735911  0.96702478  1  0  -0.503522  0  1.03614  0  0  -0.432967  0  1.30609  0  0  -0.453093  0  1.287402  0  -0.595786  0  -0.267403  -0.418074  0  1.320139  0
Cl  Cl105  1  0.25858123  0.57736332  0.53296819  1  0  -0.503527  0  1.036195  0  0  -0.432981  0  1.30617  0  0  -0.453104  0  1.287484  0  -0.595767  0  -0.267407  -0.418084  0  1.320216  0
Cl  Cl106  1  0.80728483  0.72198796  0.00066364  1  0  -0.594448  0  0.964352  0  0  -0.531317  0  1.226491  0  0  -0.548066  0  1.205406  0  -0.672383  0  -0.299913  -0.516752  0  1.240571  0
Cl  Cl107  1  0.30728118  0.22199340  0.49933252  1  0  -0.594456  0  0.964354  0  0  -0.531319  0  1.2265  0  0  -0.548087  0  1.205448  0  -0.672354  0  -0.299924  -0.516752  0  1.24058  0
Cl  Cl108  1  0.19271748  0.27800866  0.99933380  1  0  -0.594453  0  0.964346  0  0  -0.531308  0  1.226473  0  0  -0.548072  0  1.205419  0  -0.672333  0  -0.299924  -0.516742  0  1.240555  0
Cl  Cl109  1  0.69271685  0.77800966  0.50066684  1  0  -0.594475  0  0.964355  0  0  -0.531328  0  1.226476  0  0  -0.548088  0  1.20541  0  -0.672341  0  -0.299935  -0.516764  0  1.240556  0
Cl  Cl110  1  0.95074824  0.45193334  0.88660769  1  0  -0.551067  0  1.053981  0  0  -0.480594  0  1.33403  0  0  -0.500939  0  1.315382  0  -0.630532  0  -0.277305  -0.466532  0  1.346869  0
Cl  Cl111  1  0.45074818  0.95193756  0.61339039  1  0  -0.551087  0  1.054058  0  0  -0.480563  0  1.334067  0  0  -0.500908  0  1.31542  0  -0.630472  0  -0.277292  -0.466503  0  1.346909  0
Cl  Cl112  1  0.04925258  0.54806221  0.11338784  1  0  -0.551063  0  1.054003  0  0  -0.480553  0  1.334021  0  0  -0.5009  0  1.315375  0  -0.630617  0  -0.277286  -0.466503  0  1.346883  0
Cl  Cl113  1  0.54925503  0.04806765  0.38661152  1  0  -0.551066  0  1.054012  0  0  -0.480567  0  1.334027  0  0  -0.500912  0  1.315377  0  -0.63065  0  -0.277295  -0.466521  0  1.346894  0
O  O114  1  0.32144190  0.60698204  0.94974131  1  0  -0.787221  0  1.847441  0  0  -0.728959  0  2.026048  0  0  -0.748724  0  1.999157  0  -1.237365  0  -0.576102  -0.714414  0  2.046776  0
O  O115  1  0.82143885  0.10698749  0.55026060  1  0  -0.787282  0  1.847277  0  0  -0.72902  0  2.025904  0  0  -0.748793  0  1.998987  0  -1.237424  0  -0.576105  -0.714476  0  2.046634  0
O  O116  1  0.67856151  0.39301458  0.05026060  1  0  -0.78724  0  1.847329  0  0  -0.728971  0  2.025959  0  0  -0.74875  0  1.99904  0  -1.237381  0  -0.57609  -0.714427  0  2.046687  0
O  O117  1  0.17856249  0.89301558  0.44974004  1  0  -0.78722  0  1.847299  0  0  -0.728928  0  2.025998  0  0  -0.748707  0  1.999076  0  -1.237493  0  -0.576094  -0.714383  0  2.046727  0
