# generated using pymatgen
data_MnH6(CO)5
_symmetry_space_group_name_H-M   'P 1'
_cell_length_a   7.41222910
_cell_length_b   11.40178873
_cell_length_c   14.64860000
_cell_angle_alpha   90.00000000
_cell_angle_beta   90.00000000
_cell_angle_gamma   90.00000000
_symmetry_Int_Tables_number   1
_chemical_formula_structural   MnH6(CO)5
_chemical_formula_sum   'Mn8 H48 C40 O40'
_cell_volume   1237.99229994
_cell_formula_units_Z   8
loop_
 _symmetry_equiv_pos_site_id
 _symmetry_equiv_pos_as_xyz
  1  'x, y, z'
loop_
 _atom_site_type_symbol
 _atom_site_label
 _atom_site_symmetry_multiplicity
 _atom_site_fract_x
 _atom_site_fract_y
 _atom_site_fract_z
 _atom_site_occupancy
 _atom_site_hle17_ddec_charge
 _atom_site_hle17_ddec_spin_density
 _atom_site_hle17_ddec_sum_bond_order
 _atom_site_hle17_magmom
 _atom_site_hse06_10hf_ddec_charge
 _atom_site_hse06_10hf_ddec_spin_density
 _atom_site_hse06_10hf_ddec_sum_bond_order
 _atom_site_hse06_10hf_magmom
 _atom_site_hse06_ddec_charge
 _atom_site_hse06_ddec_spin_density
 _atom_site_hse06_ddec_sum_bond_order
 _atom_site_hse06_magmom
 _atom_site_pbe_bader_charge
 _atom_site_pbe_bader_spin_density
 _atom_site_pbe_cm5_charge
 _atom_site_pbe_ddec_charge
 _atom_site_pbe_ddec_spin_density
 _atom_site_pbe_ddec_sum_bond_order
 _atom_site_pbe_magmom
Mn  Mn0  1  0.94379166  0.69932624  0.55918859  1  1.278101  4.80517  1.626227  4.689  1.116226  4.740537  2.120739  4.556  1.181517  4.776831  2.041616  4.613  1.519502  4.592104  0.62029  1.064393  4.704582  2.178721  4.502
Mn  Mn1  1  0.55621190  0.19932837  0.44081004  1  1.278118  4.80516  1.626248  4.689  1.116225  4.740523  2.120778  4.556  1.181535  4.776813  2.041617  4.613  1.51949  4.592127  0.62033  1.064388  4.704572  2.178776  4.502
Mn  Mn2  1  0.05620846  0.30067300  0.05919269  1  1.278122  4.805139  1.626275  4.689  1.116262  4.74051  2.120757  4.556  1.181569  4.776803  2.0416  4.613  1.519412  4.592126  0.620268  1.06443  4.704556  2.178742  4.502
Mn  Mn3  1  0.44378957  0.80067349  0.94081209  1  1.278112  4.80518  1.626271  4.689  1.116191  4.74055  2.120834  4.556  1.181483  4.776839  2.041705  4.613  1.519491  4.592137  0.620316  1.064358  4.704599  2.178822  4.502
Mn  Mn4  1  0.05620711  0.30067563  0.44080868  1  1.278089  4.805154  1.626286  4.689  1.116196  4.740528  2.120835  4.556  1.181508  4.776822  2.041674  4.613  1.519559  4.592088  0.620278  1.064361  4.704573  2.178818  4.502
Mn  Mn5  1  0.44378418  0.80067086  0.55918791  1  1.278134  4.805159  1.626223  4.689  1.116264  4.740512  2.120697  4.556  1.181575  4.7768  2.041536  4.613  1.519451  4.592136  0.620346  1.064412  4.704559  2.178718  4.502
Mn  Mn6  1  0.94379436  0.69932536  0.94080731  1  1.278121  4.805147  1.626283  4.689  1.116235  4.740525  2.120819  4.556  1.181533  4.776819  2.041683  4.613  1.519619  4.592075  0.620266  1.064401  4.70457  2.178805  4.502
Mn  Mn7  1  0.55620785  0.19932750  0.05918791  1  1.278123  4.805198  1.626197  4.689  1.116188  4.740578  2.120739  4.556  1.181495  4.776866  2.041587  4.613  1.519414  4.592171  0.620315  1.064348  4.70463  2.178734  4.502
H  H8  1  0.07045924  0.50278339  0.62623664  1  0.42896  -0.000109  0.872697  0.001  0.398837  0.000768  0.935061  0.002  0.40963  0.000406  0.919528  0.002  0.64821  0.001799  0.299928  0.391078  0.001109  0.946195  0.002
H  H9  1  0.42954690  0.00277939  0.37376609  1  0.428863  -0.000109  0.872819  0.001  0.398777  0.000768  0.935109  0.002  0.409564  0.000406  0.91959  0.002  0.648147  0.0018  0.299914  0.391023  0.001109  0.946232  0.002
H  H10  1  0.92954358  0.49721672  0.12623664  1  0.429024  -0.000109  0.872599  0.001  0.398891  0.000768  0.93499  0.002  0.409682  0.000406  0.919459  0.002  0.648202  0.0018  0.29993  0.391129  0.001109  0.946129  0.002
H  H11  1  0.57045323  0.99722160  0.87376473  1  0.428899  -0.000109  0.872766  0.001  0.398791  0.000768  0.935091  0.002  0.409579  0.000406  0.919571  0.002  0.648167  0.0018  0.299915  0.391036  0.001109  0.946216  0.002
H  H12  1  0.92953954  0.49721584  0.37376473  1  0.428944  -0.000109  0.872726  0.001  0.398831  0.000768  0.935072  0.002  0.409623  0.000406  0.91954  0.002  0.648206  0.0018  0.299915  0.391072  0.001109  0.946206  0.002
H  H13  1  0.57045323  0.99721985  0.62623186  1  0.42893  -0.000109  0.872723  0.001  0.398842  0.000768  0.935022  0.002  0.409632  0.000406  0.919495  0.002  0.648152  0.0018  0.299936  0.391086  0.001109  0.946147  0.002
H  H14  1  0.07046059  0.50278427  0.87376268  1  0.428959  -0.000109  0.872705  0.001  0.39884  0.000768  0.935061  0.002  0.409633  0.000406  0.91953  0.002  0.648207  0.0018  0.29992  0.391081  0.001109  0.946195  0.002
H  H15  1  0.42954555  0.00277676  0.12623186  1  0.428911  -0.000109  0.872792  0.001  0.398815  0.000767  0.9351  0.002  0.409604  0.000406  0.919577  0.002  0.648152  0.0018  0.299928  0.391059  0.001109  0.946224  0.002
H  H16  1  0.23033962  0.59751853  0.64176440  1  0.4246  -0.000511  0.875754  0.001  0.394829  0.000247  0.93804  0.002  0.405475  -6.3e-05  0.922654  0.002  0.618717  0.001649  0.299941  0.387173  0.000543  0.949062  0.002
H  H17  1  0.26966652  0.09751716  0.35823560  1  0.424573  -0.000511  0.875839  0.001  0.394859  0.000247  0.937998  0.002  0.405507  -6.3e-05  0.92261  0.002  0.618768  0.001649  0.299962  0.387202  0.000542  0.949023  0.002
H  H18  1  0.76966455  0.40247983  0.14176850  1  0.424614  -0.000511  0.875759  0.001  0.394896  0.000247  0.937942  0.002  0.405541  -6.3e-05  0.922557  0.002  0.618743  0.00165  0.299989  0.387239  0.000543  0.948968  0.002
H  H19  1  0.73033226  0.90248208  0.85823560  1  0.424625  -0.00051  0.875799  0.001  0.394856  0.000247  0.938014  0.002  0.405503  -6.3e-05  0.922626  0.002  0.618752  0.001649  0.299976  0.387201  0.000542  0.949035  0.002
H  H20  1  0.76965511  0.40248159  0.35823765  1  0.424601  -0.000511  0.875722  0.001  0.394824  0.000247  0.938048  0.002  0.405471  -6.3e-05  0.922662  0.002  0.618687  0.00165  0.299931  0.387168  0.000543  0.949072  0.002
H  H21  1  0.73033361  0.90248208  0.64176235  1  0.42462  -0.000511  0.875795  0.001  0.394855  0.000247  0.938018  0.002  0.405502  -6.3e-05  0.922632  0.002  0.618727  0.001649  0.299948  0.387199  0.000542  0.949043  0.002
H  H22  1  0.23034366  0.59752028  0.85823560  1  0.42464  -0.00051  0.875703  0.001  0.394861  0.000247  0.937993  0.002  0.405508  -6.3e-05  0.922607  0.002  0.618697  0.00165  0.299956  0.387204  0.000543  0.949017  0.002
H  H23  1  0.26966652  0.09751540  0.14176167  1  0.424583  -0.000511  0.875816  0.001  0.394812  0.000247  0.93806  0.002  0.405456  -6.3e-05  0.922678  0.002  0.618732  0.001649  0.299964  0.38716  0.000542  0.949078  0.002
H  H24  1  0.13892177  0.51555946  0.25000000  1  0.103197  -0.00074  0.932391  0.0  0.121748  -0.0008  0.989433  0.0  0.123085  -0.000822  0.98959  0.0  0.090184  0.000245  0.10531  0.12071  -0.000764  0.989481  0.0
H  H25  1  0.36107761  0.01555984  0.74999863  1  0.103067  -0.000737  0.932521  0.0  0.121699  -0.0008  0.989506  0.0  0.123038  -0.000823  0.989668  0.0  0.090131  0.000245  0.105259  0.120661  -0.000764  0.989555  0.0
H  H26  1  0.86108240  0.48443802  0.75000000  1  0.103179  -0.000733  0.932508  0.0  0.121749  -0.0008  0.989514  0.0  0.123091  -0.000822  0.989672  0.0  0.090189  0.000245  0.105265  0.120702  -0.000764  0.989566  0.0
H  H27  1  0.63892251  0.98443940  0.24999795  1  0.103146  -0.000743  0.932553  0.0  0.121738  -0.0008  0.989516  0.0  0.123078  -0.000823  0.98968  0.0  0.090128  0.000245  0.105277  0.120694  -0.000764  0.989565  0.0
H  H28  1  0.04860211  0.65746000  0.24999863  1  0.073807  -0.000169  0.961894  0.0  0.087194  -3.5e-05  1.033489  0.0  0.088954  -0.000106  1.031911  0.0  0.035546  0.000568  0.091244  0.08577  4.1e-05  1.034866  0.0
H  H29  1  0.45139457  0.15745950  0.74999795  1  0.073826  -0.000167  0.961913  0.0  0.087234  -3.6e-05  1.033525  0.0  0.088995  -0.000107  1.031948  0.0  0.035526  0.000568  0.091253  0.08581  4.1e-05  1.034898  0.0
H  H30  1  0.95139666  0.34253748  0.75000137  1  0.073803  -0.000165  0.961934  0.0  0.087184  -3.6e-05  1.033541  0.0  0.088942  -0.000106  1.031974  0.0  0.035536  0.000568  0.091257  0.085764  4.1e-05  1.034905  0.0
H  H31  1  0.54860285  0.84253973  0.24999863  1  0.073773  -0.000171  0.961962  0.0  0.087145  -3.6e-05  1.033568  0.0  0.088907  -0.000107  1.03199  0.0  0.035518  0.000568  0.091227  0.085722  4.1e-05  1.034943  0.0
H  H32  1  0.33894797  0.73060291  0.32507202  1  0.082142  -0.0002  0.934693  0.0  0.093567  -6.4e-05  0.999558  0.0  0.095521  -0.000181  0.998837  0.0  0.05494  0.000953  0.106387  0.092088  7e-05  1.000268  0.001
H  H33  1  0.16104872  0.23060154  0.67492661  1  0.082099  -0.000201  0.934723  0.0  0.093525  -6.3e-05  0.999585  0.0  0.09548  -0.000181  0.998861  0.0  0.054939  0.000953  0.10636  0.092046  7.1e-05  1.000295  0.001
H  H34  1  0.66105080  0.26939896  0.82507475  1  0.082105  -0.000201  0.934689  0.0  0.093518  -6.4e-05  0.999572  0.0  0.095467  -0.000181  0.998854  0.0  0.054963  0.000953  0.106354  0.092038  7e-05  1.000285  0.001
H  H35  1  0.83894870  0.76939770  0.17492866  1  0.082083  -0.0002  0.93477  0.0  0.093541  -6.4e-05  0.999594  0.0  0.095497  -0.000181  0.99887  0.0  0.054922  0.000953  0.106379  0.092063  7.1e-05  1.000304  0.001
H  H36  1  0.66104811  0.26939896  0.67492866  1  0.082177  -0.0002  0.934686  0.0  0.093602  -6.3e-05  0.999548  0.0  0.095557  -0.000181  0.998825  0.0  0.054944  0.000953  0.106409  0.092122  7.1e-05  1.000258  0.001
H  H37  1  0.83895005  0.76939945  0.32506997  1  0.082104  -0.000201  0.9348  0.0  0.09355  -6.4e-05  0.999639  0.0  0.095495  -0.00018  0.998927  0.0  0.054942  0.000953  0.106376  0.092071  7e-05  1.000348  0.001
H  H38  1  0.33895067  0.73060115  0.17492798  1  0.082101  -0.0002  0.934721  0.0  0.093506  -6.4e-05  0.999611  0.0  0.095474  -0.000181  0.998872  0.0  0.054949  0.000953  0.106383  0.092028  7.1e-05  1.00032  0.001
H  H39  1  0.16105007  0.23060329  0.82506792  1  0.082134  -0.0002  0.934724  0.0  0.093584  -6.3e-05  0.999558  0.0  0.095546  -0.00018  0.998824  0.0  0.054946  0.000953  0.106401  0.092105  7.1e-05  1.000268  0.001
H  H40  1  0.54517878  0.59733961  0.39438581  1  0.095406  -0.000191  0.898827  0.0  0.109382  0.000303  0.951838  0.0  0.111279  5.7e-05  0.951647  0.0  0.070158  0.001568  0.114918  0.107962  0.000567  0.9522  0.001
H  H41  1  0.95481264  0.09733911  0.60561624  1  0.095405  -0.000186  0.898792  0.0  0.109327  0.000302  0.951898  0.0  0.111224  5.7e-05  0.951713  0.0  0.070096  0.001567  0.114926  0.107907  0.000566  0.95226  0.001
H  H42  1  0.45481730  0.40266314  0.89438308  1  0.095404  -0.000189  0.898813  0.0  0.109376  0.000303  0.951845  0.0  0.111277  5.7e-05  0.951659  0.0  0.070179  0.001568  0.114936  0.107954  0.000567  0.952208  0.001
H  H43  1  0.04518479  0.90265837  0.10561624  1  0.095431  -0.000186  0.8988  0.0  0.109358  0.000302  0.951886  0.0  0.111252  5.7e-05  0.9517  0.0  0.070122  0.001567  0.114922  0.107937  0.000566  0.952249  0.001
H  H44  1  0.45481865  0.40266226  0.60561555  1  0.095402  -0.000189  0.898779  0.0  0.109396  0.000302  0.95179  0.0  0.111295  5.7e-05  0.951598  0.0  0.070182  0.001568  0.114935  0.107975  0.000567  0.952152  0.001
H  H45  1  0.04518209  0.90265837  0.39438376  1  0.095419  -0.000186  0.898748  0.0  0.109339  0.000302  0.951843  0.0  0.111241  5.7e-05  0.95166  0.0  0.070134  0.001567  0.114917  0.107919  0.000566  0.952205  0.001
H  H46  1  0.54518552  0.59733698  0.10561828  1  0.095428  -0.000191  0.898727  0.0  0.109402  0.000302  0.951793  0.0  0.1113  5.7e-05  0.951605  0.0  0.070153  0.001567  0.114954  0.107981  0.000566  0.952156  0.001
H  H47  1  0.95481668  0.09734438  0.89438376  1  0.095423  -0.000189  0.898739  0.0  0.109345  0.000302  0.951835  0.0  0.111255  5.7e-05  0.951659  0.0  0.070137  0.001567  0.114927  0.107924  0.000566  0.952198  0.001
H  H48  1  0.63282178  0.65714514  0.25000273  1  0.073975  0.000192  0.96098  0.0  0.091937  0.000318  1.026053  0.0  0.09244  0.00023  1.026813  0.0  0.011556  0.000807  0.092192  0.091511  0.00042  1.025593  0.0
H  H49  1  0.86717368  0.15714552  0.74999932  1  0.074005  0.000189  0.961033  0.0  0.091998  0.000318  1.026081  0.0  0.092503  0.00023  1.026837  0.0  0.011297  0.000807  0.092214  0.091573  0.00042  1.02562  0.0
H  H50  1  0.36717699  0.34285761  0.74999932  1  0.074002  0.000189  0.960958  0.0  0.091935  0.000319  1.026058  0.0  0.092442  0.00023  1.026814  0.0  0.011353  0.000807  0.092215  0.091509  0.00042  1.025599  0.0
H  H51  1  0.13282374  0.84285284  0.25000068  1  0.073978  0.000187  0.960999  0.0  0.09197  0.000319  1.026056  0.0  0.092473  0.00023  1.026817  0.0  0.01131  0.000807  0.09219  0.091545  0.00042  1.025596  0.0
H  H52  1  0.67295545  0.50562680  0.25000273  1  0.090107  -0.000224  0.978839  0.0  0.103453  8.2e-05  1.046584  0.0  0.106342  -0.000122  1.044485  0.0  0.059865  0.001664  0.101555  0.101198  0.000295  1.048357  0.0
H  H53  1  0.82704136  0.00562719  0.75000000  1  0.090108  -0.000227  0.978883  0.0  0.103501  8.2e-05  1.046572  0.0  0.106389  -0.000123  1.044477  0.0  0.059858  0.001664  0.101554  0.101244  0.000295  1.048353  0.0
H  H54  1  0.32704602  0.49437769  0.74999932  1  0.090055  -0.000231  0.978853  0.0  0.103432  8.2e-05  1.046554  0.0  0.106313  -0.000123  1.044476  0.0  0.058973  0.001665  0.101544  0.101179  0.000295  1.048322  0.0
H  H55  1  0.17295607  0.99437117  0.25000000  1  0.090106  -0.000232  0.978895  0.0  0.10347  8.2e-05  1.046621  0.0  0.10636  -0.000123  1.04452  0.0  0.059858  0.001664  0.101565  0.101214  0.000295  1.048399  0.0
C  C56  1  0.17612650  0.60878079  0.24999932  1  -0.147709  0.000506  3.690336  0.001  -0.200103  0.001112  3.944015  0.001  -0.200193  0.000681  3.956798  0.001  -0.061992  0.002715  -0.174134  -0.199796  0.001572  3.935282  0.002
C  C57  1  0.32387693  0.10878293  0.74999863  1  -0.14752  0.000498  3.690263  0.001  -0.200096  0.001112  3.944162  0.001  -0.200193  0.000682  3.956945  0.001  -0.061987  0.002714  -0.174066  -0.199789  0.001571  3.93543  0.002
C  C58  1  0.82387497  0.39122019  0.75000137  1  -0.147617  0.000491  3.690404  0.001  -0.200049  0.001112  3.944122  0.001  -0.200143  0.000681  3.956895  0.001  -0.062004  0.002715  -0.174083  -0.199732  0.001572  3.935375  0.002
C  C59  1  0.67612184  0.89122069  0.24999863  1  -0.147575  0.000511  3.690374  0.001  -0.200016  0.001111  3.94414  0.001  -0.200103  0.000681  3.956908  0.001  -0.062013  0.002714  -0.174064  -0.199692  0.001571  3.935376  0.002
C  C60  1  0.28683139  0.64037584  0.33391997  1  -0.132322  -0.000857  3.660544  0.0  -0.139994  0.000315  3.902694  0.001  -0.145622  -0.000231  3.916018  0.0  0.024528  0.002363  -0.088622  -0.13614  0.000904  3.893823  0.001
C  C61  1  0.21316529  0.14037534  0.66608072  1  -0.132259  -0.000842  3.660374  0.0  -0.139882  0.000314  3.902566  0.001  -0.145498  -0.000232  3.915897  0.0  0.02457  0.002363  -0.088597  -0.136031  0.000904  3.893697  0.001
C  C62  1  0.71316738  0.35962515  0.83392133  1  -0.13213  -0.000851  3.660272  0.0  -0.1398  0.000315  3.902437  0.001  -0.145407  -0.000232  3.915753  0.0  0.024516  0.002364  -0.08857  -0.135951  0.000904  3.89357  0.001
C  C63  1  0.78683618  0.85962389  0.16608140  1  -0.132262  -0.000854  3.660415  0.0  -0.139979  0.000314  3.902576  0.001  -0.145602  -0.000231  3.915904  0.0  0.02455  0.002363  -0.088619  -0.136125  0.000904  3.893704  0.001
C  C64  1  0.71316873  0.35962340  0.66608072  1  -0.132462  -0.000856  3.660535  0.0  -0.140118  0.000314  3.902719  0.001  -0.145747  -0.000229  3.916049  0.0  0.024523  0.002363  -0.088658  -0.136265  0.000904  3.893851  0.001
C  C65  1  0.78683753  0.85962477  0.33391723  1  -0.132359  -0.000848  3.660447  0.0  -0.140052  0.000315  3.90256  0.001  -0.145659  -0.000232  3.915893  0.0  0.024577  0.002363  -0.08868  -0.136199  0.000904  3.893689  0.001
C  C66  1  0.28683679  0.64037408  0.16608003  1  -0.132191  -0.000854  3.660301  0.0  -0.139816  0.000314  3.902459  0.001  -0.145447  -0.000229  3.915775  0.0  0.024581  0.002363  -0.088617  -0.135966  0.000904  3.893594  0.001
C  C67  1  0.21316395  0.14037710  0.83391723  1  -0.132426  -0.000856  3.660464  0.0  -0.140087  0.000314  3.902661  0.001  -0.145692  -0.000232  3.916006  0.0  0.024519  0.002363  -0.088669  -0.136233  0.000904  3.893789  0.001
C  C68  1  0.45669123  0.56271609  0.33988845  1  -0.117799  0.002195  3.574233  0.002  -0.121873  0.002881  3.815414  0.003  -0.127007  0.001995  3.828066  0.002  -0.016546  0.005681  -0.078601  -0.118323  0.003839  3.806868  0.003
C  C69  1  0.04330276  0.06271911  0.66011155  1  -0.117674  0.002175  3.573671  0.002  -0.121811  0.002882  3.814959  0.003  -0.126968  0.001992  3.827645  0.002  -0.01661  0.005682  -0.078656  -0.118263  0.00384  3.806415  0.003
C  C70  1  0.54330890  0.43728577  0.83988845  1  -0.117823  0.002188  3.574083  0.002  -0.121921  0.002881  3.815371  0.003  -0.127083  0.001991  3.828065  0.002  -0.016414  0.005681  -0.078624  -0.118371  0.00384  3.806827  0.003
C  C71  1  0.95669601  0.93728188  0.16011223  1  -0.11772  0.002178  3.573746  0.002  -0.121801  0.002883  3.814994  0.003  -0.126945  0.001992  3.827664  0.002  -0.016655  0.005682  -0.078625  -0.118253  0.00384  3.80645  0.003
C  C72  1  0.54330890  0.43728490  0.66011291  1  -0.117669  0.002187  3.574011  0.002  -0.121817  0.002883  3.815311  0.003  -0.126951  0.001991  3.827963  0.002  -0.016509  0.005681  -0.078611  -0.118268  0.003839  3.806766  0.003
C  C73  1  0.95669601  0.93728451  0.33988709  1  -0.117739  0.002173  3.573766  0.002  -0.12179  0.002883  3.815005  0.003  -0.12697  0.001989  3.827725  0.002  -0.016583  0.005682  -0.078622  -0.118242  0.003839  3.806461  0.003
C  C74  1  0.45669797  0.56271434  0.16011496  1  -0.117676  0.002196  3.573802  0.002  -0.1219  0.002881  3.815197  0.003  -0.127039  0.001994  3.827857  0.002  -0.016569  0.005682  -0.078623  -0.11835  0.00384  3.806653  0.003
C  C75  1  0.04330411  0.06271911  0.83988709  1  -0.11765  0.002187  3.573758  0.002  -0.121746  0.002882  3.815016  0.003  -0.126982  0.001993  3.827824  0.002  -0.016631  0.005682  -0.078614  -0.118199  0.003839  3.806472  0.003
C  C76  1  0.56551004  0.57137351  0.25000341  1  -0.128019  0.001287  3.596956  0.001  -0.181561  0.002494  3.850932  0.002  -0.180963  0.001812  3.862007  0.002  0.015005  0.004447  -0.161192  -0.181809  0.003238  3.84354  0.003
C  C77  1  0.93448812  0.07137564  0.75000000  1  -0.128157  0.001301  3.596975  0.001  -0.181752  0.002492  3.850947  0.002  -0.181126  0.001812  3.862055  0.002  0.015277  0.004445  -0.161243  -0.181999  0.003236  3.843555  0.003
C  C78  1  0.43449278  0.42862836  0.75000000  1  -0.127991  0.001305  3.596902  0.001  -0.181508  0.002494  3.850817  0.002  -0.180909  0.001815  3.861896  0.002  0.016065  0.004447  -0.161186  -0.181757  0.003238  3.843426  0.003
C  C79  1  0.06551201  0.92862622  0.25000000  1  -0.128109  0.001313  3.596999  0.001  -0.181713  0.002491  3.85099  0.002  -0.181099  0.001813  3.862076  0.002  0.015178  0.004444  -0.161238  -0.181963  0.003235  3.8436  0.003
C  C80  1  0.17348492  0.65172493  0.41924484  1  0.702801  0.006608  3.786121  0.007  0.644241  0.012596  4.0909  0.011  0.680575  0.009821  4.083028  0.009  1.516668  0.014984  0.229629  0.618784  0.015399  4.095405  0.013
C  C81  1  0.32652256  0.15172532  0.58075379  1  0.702633  0.006603  3.786369  0.007  0.644077  0.012597  4.091161  0.011  0.680414  0.009821  4.083296  0.009  1.517051  0.014981  0.229618  0.618623  0.015398  4.095663  0.013
C  C82  1  0.82651520  0.34827781  0.91924894  1  0.702854  0.006604  3.7861  0.007  0.644317  0.012591  4.090859  0.011  0.68065  0.009819  4.082989  0.009  1.516873  0.014982  0.229697  0.618862  0.015394  4.095367  0.013
C  C83  1  0.67347352  0.84827129  0.08075584  1  0.702673  0.006614  3.786343  0.007  0.644172  0.012597  4.091035  0.011  0.680508  0.009822  4.083168  0.009  1.517286  0.014981  0.229629  0.618717  0.015399  4.095541  0.013
C  C84  1  0.82651250  0.34827430  0.58075652  1  0.702861  0.00661  3.785996  0.007  0.644268  0.012596  4.090821  0.011  0.680604  0.00982  4.08295  0.009  1.5166  0.014987  0.229653  0.61881  0.015398  4.095329  0.013
C  C85  1  0.67346947  0.84827041  0.41924211  1  0.70269  0.006611  3.786383  0.007  0.644192  0.012595  4.091081  0.011  0.680528  0.009822  4.083209  0.009  1.51725  0.014982  0.229667  0.618738  0.015398  4.095585  0.013
C  C86  1  0.17348762  0.65172493  0.08075447  1  0.70283  0.006602  3.786098  0.007  0.644283  0.012596  4.090869  0.011  0.680615  0.009818  4.083002  0.009  1.516828  0.014984  0.229691  0.618828  0.015397  4.095375  0.013
C  C87  1  0.32652391  0.15172970  0.91924143  1  0.702807  0.006615  3.786177  0.007  0.644262  0.012596  4.090922  0.011  0.6806  0.009822  4.083052  0.009  1.516637  0.014986  0.229706  0.618805  0.015398  4.09543  0.013
C  C88  1  0.41504519  0.43731121  0.37151332  1  0.702689  0.008747  3.787401  0.01  0.645241  0.015551  4.09192  0.015  0.680574  0.011884  4.085799  0.012  1.561133  0.019789  0.23636  0.620409  0.019399  4.095333  0.018
C  C89  1  0.08495285  0.93730030  0.62848532  1  0.702682  0.008738  3.78817  0.01  0.645374  0.015532  4.092535  0.015  0.680713  0.011872  4.086408  0.012  1.561587  0.019762  0.236358  0.620543  0.019377  4.09595  0.018
C  C90  1  0.58494954  0.56269417  0.87151195  1  0.702816  0.008742  3.787256  0.01  0.64531  0.015547  4.091887  0.015  0.68065  0.011883  4.085759  0.012  1.56068  0.019787  0.236407  0.620476  0.019394  4.095307  0.018
C  C91  1  0.91504187  0.06269806  0.12848395  1  0.702717  0.008736  3.788075  0.01  0.645331  0.01553  4.092505  0.015  0.680661  0.01187  4.08639  0.012  1.56167  0.019761  0.236342  0.620501  0.019375  4.095919  0.018
C  C92  1  0.58495629  0.56268978  0.62848805  1  0.702591  0.008746  3.787309  0.01  0.645157  0.015551  4.09186  0.015  0.680492  0.011886  4.085734  0.012  1.560829  0.019791  0.236364  0.620323  0.0194  4.095272  0.018
C  C93  1  0.91503918  0.06269893  0.37151537  1  0.702813  0.008736  3.787748  0.01  0.645398  0.01553  4.092265  0.015  0.680741  0.011871  4.086144  0.012  1.561707  0.01976  0.236317  0.620565  0.019375  4.095681  0.018
C  C94  1  0.41505598  0.43730331  0.12849146  1  0.702784  0.008742  3.787289  0.01  0.645453  0.015543  4.091706  0.015  0.680781  0.011878  4.085581  0.012  1.56121  0.019778  0.236479  0.620621  0.019389  4.095126  0.018
C  C95  1  0.08495555  0.93730381  0.87151332  1  0.70276  0.008732  3.78794  0.01  0.64541  0.015533  4.092341  0.015  0.680768  0.011871  4.086221  0.012  1.56147  0.019766  0.236323  0.620578  0.019378  4.095758  0.018
O  O96  1  0.00596312  0.62477127  0.41960324  1  -0.64915  0.028355  2.020793  0.021  -0.577186  0.035597  2.266159  0.026  -0.607766  0.03069  2.253075  0.022  -1.186832  0.058319  -0.295022  -0.554754  0.040535  2.274535  0.031
O  O97  1  0.49402008  0.12477691  0.58039335  1  -0.64891  0.028352  2.021276  0.021  -0.57698  0.035593  2.266702  0.026  -0.607546  0.030689  2.253579  0.022  -1.187236  0.058318  -0.294993  -0.554552  0.040531  2.275075  0.031
O  O98  1  0.99403431  0.37522884  0.91960529  1  -0.649238  0.028356  2.020824  0.021  -0.577264  0.035596  2.266193  0.026  -0.607838  0.03069  2.253092  0.022  -1.187023  0.058317  -0.295083  -0.554833  0.040535  2.274571  0.031
O  O99  1  0.50598274  0.87522144  0.08039335  1  -0.648927  0.028349  2.02131  0.021  -0.576974  0.035594  2.266689  0.026  -0.607522  0.030687  2.253541  0.022  -1.187397  0.058315  -0.294981  -0.554556  0.04053  2.27508  0.031
O  O100  1  0.99403700  0.37522797  0.58039744  1  -0.649164  0.028355  2.02079  0.021  -0.577145  0.035595  2.26614  0.026  -0.607731  0.030689  2.253059  0.022  -1.186802  0.058321  -0.295006  -0.554713  0.040534  2.274517  0.031
O  O101  1  0.50598004  0.87521969  0.41960460  1  -0.648923  0.02835  2.021454  0.021  -0.576979  0.035592  2.266817  0.026  -0.607546  0.030687  2.253701  0.022  -1.187321  0.058295  -0.294975  -0.554552  0.040529  2.275192  0.031
O  O102  1  0.00596851  0.62477127  0.08039471  1  -0.649204  0.028356  2.020783  0.021  -0.57722  0.035594  2.266142  0.026  -0.607807  0.030688  2.253074  0.022  -1.186996  0.058319  -0.295081  -0.554788  0.040533  2.27452  0.031
O  O103  1  0.49402413  0.12477954  0.91960324  1  -0.649065  0.028352  2.021311  0.021  -0.577032  0.035593  2.266616  0.026  -0.607588  0.030686  2.253474  0.022  -1.186711  0.058298  -0.295017  -0.554602  0.04053  2.274991  0.031
O  O104  1  0.24026645  0.70165306  0.48953484  1  -0.708244  0.049198  2.145301  0.027  -0.640468  0.063836  2.447692  0.037  -0.675448  0.057561  2.430586  0.032  -1.231791  0.092401  -0.305969  -0.613972  0.069766  2.458389  0.042
O  O105  1  0.25972349  0.20165696  0.51046243  1  -0.708253  0.0492  2.145066  0.027  -0.6405  0.063837  2.447483  0.037  -0.675488  0.057559  2.430379  0.032  -1.231827  0.092414  -0.305998  -0.614003  0.069768  2.458181  0.042
O  O106  1  0.75972692  0.29835406  0.98953688  1  -0.708225  0.049193  2.145272  0.027  -0.640502  0.063834  2.44773  0.037  -0.675485  0.057558  2.430622  0.032  -1.231772  0.092388  -0.305956  -0.613999  0.069763  2.458411  0.042
O  O107  1  0.74028068  0.79834228  0.01046312  1  -0.708256  0.049196  2.144997  0.027  -0.640545  0.063837  2.447405  0.037  -0.675532  0.05756  2.430301  0.032  -1.231895  0.09243  -0.305998  -0.614043  0.069769  2.458095  0.042
O  O108  1  0.75972962  0.29834617  0.51046516  1  -0.708273  0.049194  2.145204  0.027  -0.64049  0.063835  2.447617  0.037  -0.675473  0.057559  2.430512  0.032  -1.231688  0.09239  -0.305999  -0.613996  0.069765  2.458319  0.042
O  O109  1  0.74027528  0.79834316  0.48953484  1  -0.708274  0.049197  2.14499  0.027  -0.640572  0.06384  2.447388  0.037  -0.675556  0.057561  2.430279  0.032  -1.231734  0.092411  -0.306045  -0.614075  0.069772  2.458092  0.042
O  O110  1  0.24027590  0.70164956  0.01046448  1  -0.708217  0.049195  2.145302  0.027  -0.640465  0.063836  2.447737  0.037  -0.675444  0.057559  2.430631  0.032  -1.231755  0.092391  -0.30593  -0.613964  0.069765  2.458423  0.042
O  O111  1  0.25972214  0.20165783  0.98953484  1  -0.70827  0.049194  2.14496  0.027  -0.640562  0.063838  2.447388  0.037  -0.675552  0.05756  2.430282  0.032  -1.231725  0.092403  -0.306019  -0.614067  0.069769  2.458093  0.042
O  O112  1  0.26291146  0.41952453  0.40787038  1  -0.644805  0.03423  2.076854  0.021  -0.573989  0.042995  2.351541  0.025  -0.605664  0.037786  2.336008  0.021  -1.208057  0.069115  -0.297557  -0.550565  0.047973  2.361783  0.029
O  O113  1  0.23706769  0.91952151  0.59213713  1  -0.644775  0.034227  2.077622  0.021  -0.573991  0.042995  2.352258  0.025  -0.605666  0.037787  2.336718  0.021  -1.20828  0.069117  -0.297496  -0.550561  0.047971  2.36249  0.029
O  O114  1  0.73708461  0.58047734  0.90786765  1  -0.644936  0.034233  2.077006  0.021  -0.5741  0.042997  2.351728  0.025  -0.605776  0.037789  2.336192  0.021  -1.207934  0.069113  -0.297587  -0.550675  0.047974  2.361972  0.029
O  O115  1  0.76292839  0.08047422  0.09213645  1  -0.644774  0.034222  2.077523  0.021  -0.57397  0.042991  2.3522  0.025  -0.605644  0.037784  2.33666  0.021  -1.208307  0.06911  -0.297459  -0.550549  0.047967  2.362444  0.029
O  O116  1  0.73708731  0.58047559  0.59212826  1  -0.644748  0.034228  2.076885  0.021  -0.573925  0.042991  2.351561  0.025  -0.605601  0.037786  2.336033  0.021  -1.20804  0.06911  -0.29754  -0.550501  0.047969  2.361801  0.029
O  O117  1  0.76293109  0.08047509  0.40786560  1  -0.644793  0.034224  2.077469  0.021  -0.573978  0.042991  2.352163  0.025  -0.60565  0.037786  2.336619  0.021  -1.208305  0.069112  -0.297431  -0.550557  0.047967  2.362409  0.029
O  O118  1  0.26292091  0.41952102  0.09213440  1  -0.645029  0.034233  2.076944  0.021  -0.574263  0.043002  2.351601  0.025  -0.605941  0.037792  2.336071  0.021  -1.207992  0.069116  -0.297654  -0.550831  0.047979  2.361833  0.029
O  O119  1  0.23706904  0.91952590  0.90786492  1  -0.64482  0.034226  2.077455  0.021  -0.574027  0.042992  2.352119  0.025  -0.605696  0.037786  2.336564  0.021  -1.208225  0.069112  -0.297442  -0.550606  0.047969  2.362365  0.029
O  O120  1  0.53969190  0.36016629  0.36430990  1  -0.65724  0.03305  2.049981  0.02  -0.581545  0.041488  2.307118  0.024  -0.613358  0.036343  2.29123  0.02  -1.191829  0.067867  -0.296909  -0.558132  0.046549  2.317633  0.028
O  O121  1  0.96030086  0.86017205  0.63569215  1  -0.65726  0.03304  2.050333  0.02  -0.581671  0.041481  2.307453  0.024  -0.613484  0.036338  2.291568  0.02  -1.191905  0.067848  -0.296887  -0.558248  0.04654  2.317953  0.028
O  O122  1  0.46030418  0.63983557  0.86430649  1  -0.657249  0.033046  2.049818  0.02  -0.581533  0.041484  2.306991  0.024  -0.613345  0.036341  2.291103  0.02  -1.191641  0.067859  -0.296911  -0.558118  0.046545  2.317504  0.028
O  O123  1  0.03969521  0.13982631  0.13569215  1  -0.657266  0.033044  2.050246  0.02  -0.581625  0.041482  2.30736  0.024  -0.613436  0.036338  2.291477  0.02  -1.191882  0.067837  -0.296919  -0.558209  0.046541  2.317866  0.028
O  O124  1  0.46030552  0.63983645  0.63569283  1  -0.657213  0.03305  2.049806  0.02  -0.581561  0.041489  2.306975  0.024  -0.613379  0.036344  2.291093  0.02  -1.194488  0.067882  -0.29692  -0.558139  0.046549  2.317483  0.028
O  O125  1  0.03969926  0.13982806  0.36430512  1  -0.657279  0.033041  2.04995  0.02  -0.581703  0.041483  2.307159  0.024  -0.613523  0.036341  2.291273  0.02  -1.194951  0.067869  -0.296911  -0.55828  0.046542  2.31766  0.028
O  O126  1  0.53969460  0.36016629  0.13569829  1  -0.657184  0.033042  2.050034  0.02  -0.581529  0.04148  2.307131  0.024  -0.613333  0.036337  2.291234  0.02  -1.194927  0.067871  -0.296904  -0.558117  0.04654  2.317647  0.028
O  O127  1  0.96029951  0.86017293  0.86430717  1  -0.65731  0.033043  2.050146  0.02  -0.58171  0.041484  2.307286  0.024  -0.613522  0.03634  2.291391  0.02  -1.194802  0.067871  -0.296925  -0.55829  0.046543  2.317788  0.028
O  O128  1  0.09794220  0.58526343  0.64398509  1  -0.837946  0.033911  1.921322  0.023  -0.778656  0.041386  2.133732  0.027  -0.804603  0.036283  2.096777  0.022  -1.255548  0.066041  -0.572314  -0.758847  0.046203  2.159566  0.031
O  O129  1  0.40206394  0.08526206  0.35601627  1  -0.837856  0.033911  1.921423  0.023  -0.77861  0.041387  2.133766  0.027  -0.804565  0.036284  2.09681  0.022  -1.255552  0.066039  -0.572304  -0.758805  0.046204  2.159607  0.031
O  O130  1  0.90206602  0.41473668  0.14398646  1  -0.838004  0.033914  1.921268  0.023  -0.778722  0.041387  2.133534  0.027  -0.804672  0.036284  2.096581  0.022  -1.255561  0.066045  -0.572334  -0.758914  0.046204  2.159376  0.031
O  O131  1  0.59794023  0.91473542  0.85601559  1  -0.837932  0.033911  1.921329  0.023  -0.778628  0.041387  2.133738  0.027  -0.80458  0.036283  2.096781  0.022  -1.25556  0.06604  -0.572351  -0.758821  0.046204  2.159571  0.031
O  O132  1  0.90205793  0.41473756  0.35601627  1  -0.837927  0.033913  1.921312  0.023  -0.778639  0.041388  2.133717  0.027  -0.804592  0.036285  2.096762  0.022  -1.249331  0.065977  -0.572285  -0.75883  0.046205  2.159553  0.031
O  O133  1  0.59794158  0.91473367  0.64398236  1  -0.837976  0.03391  1.921287  0.023  -0.778689  0.041385  2.133642  0.027  -0.804641  0.036283  2.096682  0.022  -1.249343  0.065971  -0.572335  -0.758882  0.046203  2.159481  0.031
O  O134  1  0.09793950  0.58526255  0.85601491  1  -0.837963  0.033914  1.921318  0.023  -0.77865  0.041389  2.133708  0.027  -0.804601  0.036286  2.09675  0.022  -1.249331  0.065978  -0.572303  -0.758844  0.046206  2.159549  0.031
O  O135  1  0.40205314  0.08526557  0.14398168  1  -0.837925  0.033912  1.921415  0.023  -0.778612  0.041386  2.133818  0.027  -0.804568  0.036283  2.096868  0.022  -1.249303  0.065969  -0.572341  -0.758805  0.046203  2.159651  0.031
