# generated using pymatgen
data_CdCuH12(CO2)6
_symmetry_space_group_name_H-M   'P 1'
_cell_length_a   6.68695127
_cell_length_b   13.36999160
_cell_length_c   13.95800000
_cell_angle_alpha   90.00000000
_cell_angle_beta   90.00000000
_cell_angle_gamma   90.00000000
_symmetry_Int_Tables_number   1
_chemical_formula_structural   CdCuH12(CO2)6
_chemical_formula_sum   'Cd4 Cu4 H48 C24 O48'
_cell_volume   1247.90776417
_cell_formula_units_Z   4
loop_
 _symmetry_equiv_pos_site_id
 _symmetry_equiv_pos_as_xyz
  1  'x, y, z'
loop_
 _atom_site_type_symbol
 _atom_site_label
 _atom_site_symmetry_multiplicity
 _atom_site_fract_x
 _atom_site_fract_y
 _atom_site_fract_z
 _atom_site_occupancy
 _atom_site_hle17_ddec_charge
 _atom_site_hle17_ddec_spin_density
 _atom_site_hle17_ddec_sum_bond_order
 _atom_site_hle17_magmom
 _atom_site_hse06_10hf_ddec_charge
 _atom_site_hse06_10hf_ddec_spin_density
 _atom_site_hse06_10hf_ddec_sum_bond_order
 _atom_site_hse06_10hf_magmom
 _atom_site_hse06_ddec_charge
 _atom_site_hse06_ddec_spin_density
 _atom_site_hse06_ddec_sum_bond_order
 _atom_site_hse06_magmom
 _atom_site_pbe_bader_charge
 _atom_site_pbe_bader_spin_density
 _atom_site_pbe_cm5_charge
 _atom_site_pbe_ddec_charge
 _atom_site_pbe_ddec_spin_density
 _atom_site_pbe_ddec_sum_bond_order
 _atom_site_pbe_magmom
Cd  Cd0  1  0.00000150  0.25000016  0.77723743  1  1.278644  0.000925  1.454336  0.0  1.102055  0.001787  1.877284  0.001  1.165217  0.000859  1.816316  0.0  1.352581  0.002465  0.779227  1.056061  0.003118  1.919754  0.002
Cd  Cd1  1  0.50000215  0.74999972  0.72276401  1  1.27865  0.000927  1.45438  0.0  1.102053  0.001787  1.877346  0.001  1.165216  0.000859  1.816376  0.0  1.352677  0.002466  0.77924  1.056065  0.003119  1.919819  0.002
Cd  Cd2  1  0.00000299  0.75000271  0.22276257  1  1.278718  0.000926  1.454303  0.0  1.102088  0.001787  1.877281  0.001  1.165255  0.00086  1.816309  0.0  1.352693  0.002465  0.779273  1.056106  0.003119  1.919761  0.002
Cd  Cd3  1  0.50000215  0.25000016  0.27723814  1  1.278694  0.000926  1.454305  0.0  1.102032  0.001787  1.877284  0.001  1.1652  0.00086  1.816314  0.0  1.352701  0.002466  0.779242  1.056051  0.003119  1.919759  0.002
Cu  Cu4  1  0.50000065  0.49999059  0.49999498  1  1.03463  0.725513  1.717796  0.56  1.033113  0.817862  2.100053  0.686  1.114438  0.875562  2.045086  0.771  1.173611  0.625893  0.717884  0.975192  0.771262  2.144755  0.625
Cu  Cu5  1  0.00001196  0.99999689  0.00000143  1  1.03471  0.725529  1.717813  0.56  1.033195  0.817885  2.100135  0.686  1.114508  0.875565  2.045128  0.771  1.173838  0.625898  0.71796  0.975268  0.771271  2.144805  0.625
Cu  Cu6  1  0.99999383  0.50000181  0.00000358  1  1.034675  0.725524  1.717869  0.56  1.033155  0.817876  2.100156  0.686  1.114484  0.875566  2.045166  0.771  1.173857  0.625901  0.717963  0.975265  0.771274  2.144788  0.625
Cu  Cu7  1  0.50000364  0.00000000  0.49999713  1  1.034686  0.725518  1.71771  0.56  1.033178  0.817866  2.099948  0.686  1.114517  0.875566  2.044979  0.771  1.173814  0.625907  0.717942  0.975325  0.771284  2.144582  0.625
H  H8  1  0.19122018  0.35579304  0.47909371  1  0.408014  -2.6e-05  0.896012  0.0  0.38065  -6.2e-05  0.956236  0.0  0.391625  -4.5e-05  0.939739  0.0  0.639157  -3.1e-05  0.277872  0.372843  -7.3e-05  0.967986  0.0
H  H9  1  0.30877150  0.85579037  0.02090056  1  0.408042  -2.7e-05  0.895989  0.0  0.380695  -6.2e-05  0.956187  0.0  0.391667  -4.4e-05  0.93969  0.0  0.639134  -3.1e-05  0.277882  0.372888  -7.3e-05  0.967937  0.0
H  H10  1  0.69122083  0.64420684  0.02090342  1  0.407986  -2.7e-05  0.896052  0.0  0.38064  -6.2e-05  0.956253  0.0  0.39161  -4.4e-05  0.939758  0.0  0.639174  -3.1e-05  0.277848  0.372832  -7.3e-05  0.968003  0.0
H  H11  1  0.80876767  0.14421325  0.47909514  1  0.408027  -2.6e-05  0.896008  0.0  0.380704  -6.2e-05  0.956188  0.0  0.39166  -4.5e-05  0.939704  0.0  0.638999  -3.1e-05  0.277891  0.372896  -7.3e-05  0.96794  0.0
H  H12  1  0.80876019  0.64420459  0.52089698  1  0.408085  -2.6e-05  0.895927  0.0  0.380731  -6.2e-05  0.956129  0.0  0.391704  -4.5e-05  0.939635  0.0  0.638962  -3.1e-05  0.277906  0.372924  -7.3e-05  0.96788  0.0
H  H13  1  0.69123877  0.14419979  0.97909944  1  0.408084  -2.7e-05  0.895937  0.0  0.380742  -6.2e-05  0.956133  0.0  0.391706  -4.4e-05  0.939647  0.0  0.639033  -3.1e-05  0.2779  0.372934  -7.3e-05  0.967883  0.0
H  H14  1  0.30875206  0.35579529  0.97910159  1  0.40809  -2.7e-05  0.895913  0.0  0.380739  -6.2e-05  0.956109  0.0  0.391708  -4.5e-05  0.939621  0.0  0.638932  -3.1e-05  0.277907  0.372932  -7.3e-05  0.967858  0.0
H  H15  1  0.19122765  0.85579635  0.52090128  1  0.408018  -2.6e-05  0.89602  0.0  0.380679  -6.2e-05  0.956208  0.0  0.391648  -4.5e-05  0.939713  0.0  0.639021  -3.1e-05  0.27786  0.372873  -7.3e-05  0.967957  0.0
H  H16  1  0.10048376  0.42499279  0.55892463  1  0.427049  9.1e-05  0.840051  0.0  0.404691  4.9e-05  0.901352  0.0  0.414497  2.2e-05  0.886748  0.0  0.60801  8.8e-05  0.296871  0.397729  8.7e-05  0.911713  0.0
H  H17  1  0.39950792  0.92499011  0.94106820  1  0.427146  9.2e-05  0.840057  0.0  0.4048  4.8e-05  0.901213  0.0  0.414604  2.2e-05  0.886613  0.0  0.607931  8.8e-05  0.296948  0.397837  8.7e-05  0.911575  0.0
H  H18  1  0.60048441  0.57500859  0.94107035  1  0.427104  9.2e-05  0.840139  0.0  0.404743  4.9e-05  0.901305  0.0  0.414551  2.2e-05  0.886699  0.0  0.608012  8.8e-05  0.296922  0.397781  8.6e-05  0.911665  0.0
H  H19  1  0.89950857  0.07501052  0.55892463  1  0.427044  9.1e-05  0.840046  0.0  0.404688  4.8e-05  0.901348  0.0  0.414492  2.2e-05  0.886747  0.0  0.608036  8.8e-05  0.296873  0.397726  8.7e-05  0.911709  0.0
H  H20  1  0.89950110  0.57500784  0.44106534  1  0.42708  9.2e-05  0.840201  0.0  0.404721  4.9e-05  0.901343  0.0  0.414527  2.2e-05  0.886739  0.0  0.607907  8.8e-05  0.296929  0.39776  8.7e-05  0.911701  0.0
H  H21  1  0.60050385  0.07499780  0.05892965  1  0.427123  9.2e-05  0.839997  0.0  0.404764  4.8e-05  0.901253  0.0  0.414571  2.2e-05  0.886647  0.0  0.60806  8.8e-05  0.296948  0.397803  8.7e-05  0.911612  0.0
H  H22  1  0.39949446  0.42499653  0.05893251  1  0.427102  9.1e-05  0.840193  0.0  0.404734  4.9e-05  0.901333  0.0  0.414542  2.2e-05  0.886724  0.0  0.60803  8.8e-05  0.296954  0.397772  8.7e-05  0.911693  0.0
H  H23  1  0.10048974  0.92499385  0.44106677  1  0.427113  9.1e-05  0.840162  0.0  0.404759  4.9e-05  0.901287  0.0  0.414566  2.2e-05  0.886682  0.0  0.607905  8.8e-05  0.296946  0.3978  8.7e-05  0.911642  0.0
H  H24  1  0.63977137  0.30039884  0.89178464  1  0.413822  -6e-05  0.841027  0.0  0.392828  -5.1e-05  0.902687  0.0  0.401142  -3.4e-05  0.893437  0.0  0.601579  -5.7e-05  0.314098  0.386693  -6.1e-05  0.909659  0.0
H  H25  1  0.86022161  0.80039616  0.60821679  1  0.413889  -6e-05  0.840935  0.0  0.392917  -5.1e-05  0.902555  0.0  0.401231  -3.4e-05  0.893303  0.0  0.601634  -5.7e-05  0.314159  0.386782  -6.1e-05  0.909527  0.0
H  H26  1  0.13977521  0.69959954  0.60821536  1  0.413868  -6e-05  0.840952  0.0  0.39286  -5.1e-05  0.90263  0.0  0.401173  -3.4e-05  0.89338  0.0  0.601564  -5.7e-05  0.314117  0.386726  -6.1e-05  0.909599  0.0
H  H27  1  0.36021348  0.19960521  0.89178536  1  0.413913  -6e-05  0.840838  0.0  0.392968  -5.1e-05  0.90241  0.0  0.401281  -3.4e-05  0.893157  0.0  0.601719  -5.7e-05  0.314197  0.386835  -6.1e-05  0.909378  0.0
H  H28  1  0.36022395  0.69960029  0.10821823  1  0.413847  -6e-05  0.840994  0.0  0.392847  -5.1e-05  0.902656  0.0  0.40116  -3.4e-05  0.893406  0.0  0.601574  -5.7e-05  0.31412  0.386713  -6.1e-05  0.909624  0.0
H  H29  1  0.13977222  0.19959998  0.39178106  1  0.41378  -6e-05  0.841055  0.0  0.392777  -5.1e-05  0.902726  0.0  0.40109  -3.4e-05  0.893477  0.0  0.601541  -5.7e-05  0.314092  0.386643  -6.1e-05  0.909695  0.0
H  H30  1  0.86022161  0.30039959  0.39177819  1  0.413829  -6.1e-05  0.840999  0.0  0.392848  -5.1e-05  0.902642  0.0  0.401162  -3.4e-05  0.89339  0.0  0.601551  -5.7e-05  0.314131  0.386714  -6.1e-05  0.909612  0.0
H  H31  1  0.63976539  0.80040140  0.10821393  1  0.413808  -6e-05  0.841073  0.0  0.392792  -5.1e-05  0.902773  0.0  0.401105  -3.4e-05  0.893525  0.0  0.601533  -5.7e-05  0.314063  0.386658  -6.1e-05  0.909744  0.0
H  H32  1  0.81351572  0.29911313  0.96485456  1  0.438194  -2.8e-05  0.860556  0.0  0.404218  4.4e-05  0.927898  0.0  0.416956  -1.8e-05  0.909569  0.0  0.659098  8.2e-05  0.296225  0.395248  0.000117  0.94078  0.0
H  H33  1  0.68647577  0.79911569  0.53514830  1  0.43813  -2.8e-05  0.860654  0.0  0.404159  4.4e-05  0.927984  0.0  0.416893  -1.8e-05  0.909663  0.0  0.659144  8.2e-05  0.29622  0.39519  0.000118  0.940867  0.0
H  H34  1  0.31352255  0.70088600  0.53514615  1  0.438149  -2.7e-05  0.860633  0.0  0.404162  4.4e-05  0.927986  0.0  0.4169  -1.8e-05  0.909659  0.0  0.6591  8.3e-05  0.29621  0.395192  0.000118  0.940868  0.0
H  H35  1  0.18647212  0.20088719  0.96485528  1  0.438251  -2.8e-05  0.860492  0.0  0.404183  4.3e-05  0.92796  0.0  0.416916  -1.8e-05  0.909642  0.0  0.659136  8.2e-05  0.296226  0.395213  0.000117  0.940846  0.0
H  H36  1  0.18647960  0.70088825  0.03514902  1  0.438236  -2.8e-05  0.860494  0.0  0.404246  4.3e-05  0.927848  0.0  0.416982  -1.8e-05  0.909524  0.0  0.659114  8.2e-05  0.296273  0.395276  0.000117  0.940732  0.0
H  H37  1  0.31351657  0.20088793  0.46485027  1  0.43819  -2.8e-05  0.860554  0.0  0.404173  4.4e-05  0.927937  0.0  0.416908  -1.8e-05  0.909617  0.0  0.659132  8.3e-05  0.296238  0.395206  0.000118  0.940819  0.0
H  H38  1  0.68647876  0.29911612  0.46485170  1  0.438151  -2.8e-05  0.86061  0.0  0.404177  4.3e-05  0.92794  0.0  0.416911  -1.8e-05  0.90962  0.0  0.659149  8.2e-05  0.29622  0.395208  0.000117  0.940824  0.0
H  H39  1  0.81351871  0.79911195  0.03514830  1  0.438034  -2.8e-05  0.860773  0.0  0.404089  4.4e-05  0.928055  0.0  0.416824  -1.8e-05  0.909734  0.0  0.659134  8.3e-05  0.2962  0.395119  0.000117  0.940941  0.0
H  H40  1  0.41203530  0.38670107  0.73049219  1  0.170107  -0.000344  0.92708  0.0  0.180764  -0.000145  0.986865  0.0  0.184812  -0.000126  0.984901  0.0  0.147521  -0.000151  0.121456  0.177799  -0.000144  0.988454  0.0
H  H41  1  0.08795787  0.88670437  0.76950853  1  0.170094  -0.000344  0.927187  0.0  0.18074  -0.000145  0.986955  0.0  0.184783  -0.000125  0.985001  0.0  0.147615  -0.000151  0.121458  0.177775  -0.000144  0.988545  0.0
H  H42  1  0.91203745  0.61330181  0.76950996  1  0.170127  -0.000344  0.927142  0.0  0.180747  -0.000145  0.986935  0.0  0.184794  -0.000126  0.984974  0.0  0.147539  -0.000151  0.121457  0.177782  -0.000144  0.988523  0.0
H  H43  1  0.58798245  0.11329626  0.73049004  1  0.170152  -0.000344  0.927227  0.0  0.180818  -0.000145  0.986963  0.0  0.184869  -0.000125  0.985001  0.0  0.147419  -0.000151  0.121488  0.177851  -0.000144  0.988553  0.0
H  H44  1  0.58798395  0.61329507  0.26950494  1  0.170122  -0.000343  0.927153  0.0  0.180852  -0.000145  0.986858  0.0  0.184901  -0.000126  0.984895  0.0  0.147384  -0.000151  0.121536  0.177889  -0.000144  0.988445  0.0
H  H45  1  0.91202848  0.11330149  0.23049649  1  0.170178  -0.000343  0.927095  0.0  0.180767  -0.000145  0.986922  0.0  0.184812  -0.000125  0.984963  0.0  0.147432  -0.000151  0.121495  0.177803  -0.000144  0.988508  0.0
H  H46  1  0.08797432  0.38670929  0.23049219  1  0.170089  -0.000343  0.9271  0.0  0.180694  -0.000145  0.986913  0.0  0.184743  -0.000126  0.984954  0.0  0.147511  -0.000151  0.121456  0.17773  -0.000144  0.988499  0.0
H  H47  1  0.41203082  0.88670063  0.26950709  1  0.170131  -0.000344  0.927051  0.0  0.180758  -0.000145  0.98685  0.0  0.184805  -0.000126  0.984891  0.0  0.147492  -0.000151  0.121467  0.177795  -0.000144  0.988435  0.0
H  H48  1  0.64982379  0.40396510  0.78573148  1  0.125979  -0.000221  0.973964  0.0  0.135542  -3.4e-05  1.038328  0.0  0.1391  -6.9e-05  1.036161  0.0  0.111331  4e-06  0.104916  0.132933  2.3e-05  1.040001  0.0
H  H49  1  0.85016471  0.90396392  0.71427067  1  0.126004  -0.000225  0.973908  0.0  0.135546  -3.4e-05  1.03831  0.0  0.139104  -6.9e-05  1.036142  0.0  0.111192  4e-06  0.104928  0.132945  2.3e-05  1.039977  0.0
H  H50  1  0.14982463  0.59603628  0.71426565  1  0.126027  -0.000222  0.973862  0.0  0.135549  -3.4e-05  1.038255  0.0  0.139108  -6.9e-05  1.036084  0.0  0.111233  4e-06  0.104919  0.132942  2.3e-05  1.039925  0.0
H  H51  1  0.35019546  0.09603895  0.78573435  1  0.125993  -0.000225  0.973752  0.0  0.135516  -3.4e-05  1.038162  0.0  0.139076  -6.9e-05  1.035995  0.0  0.111318  4e-06  0.104872  0.132911  2.3e-05  1.039833  0.0
H  H52  1  0.35019546  0.59603553  0.21425921  1  0.126  -0.000224  0.973651  0.0  0.135619  -3.4e-05  1.038016  0.0  0.139179  -6.9e-05  1.035847  0.0  0.111186  4e-06  0.104944  0.13303  2.3e-05  1.039668  0.0
H  H53  1  0.14981566  0.09603746  0.28574151  1  0.125923  -0.000221  0.97389  0.0  0.135575  -3.4e-05  1.038163  0.0  0.139137  -6.9e-05  1.035991  0.0  0.111179  4e-06  0.104953  0.132976  2.3e-05  1.039823  0.0
H  H54  1  0.85019163  0.40396734  0.28573793  1  0.125989  -0.000222  0.973785  0.0  0.135574  -3.4e-05  1.038112  0.0  0.139139  -6.9e-05  1.035938  0.0  0.111296  4e-06  0.104941  0.132973  2.3e-05  1.039776  0.0
H  H55  1  0.64981481  0.90396167  0.21426207  1  0.125971  -0.000222  0.973844  0.0  0.135549  -3.4e-05  1.038188  0.0  0.139108  -6.9e-05  1.03602  0.0  0.111185  4e-06  0.104908  0.13294  2.3e-05  1.039859  0.0
C  C56  1  0.64998231  0.35135849  0.63983737  1  0.760963  -0.005104  3.783603  -0.004  0.713196  -0.000723  4.084922  -0.001  0.751719  -0.000643  4.075703  0.0  1.577313  -0.000836  0.223987  0.686502  -0.000634  4.0905  -0.001
C  C57  1  0.85001517  0.85135656  0.86016693  1  0.760721  -0.005111  3.783827  -0.004  0.71305  -0.000722  4.08503  -0.001  0.75157  -0.000642  4.075819  0.0  1.577495  -0.000837  0.223996  0.686356  -0.000635  4.090605  -0.001
C  C58  1  0.14998913  0.64863840  0.86016406  1  0.760947  -0.005108  3.783345  -0.004  0.71316  -0.000724  4.084662  -0.001  0.751682  -0.000642  4.075445  0.0  1.577167  -0.000838  0.223985  0.686467  -0.000636  4.090238  -0.001
C  C59  1  0.35002050  0.14864407  0.63984167  1  0.761131  -0.005107  3.783521  -0.004  0.713325  -0.000722  4.084901  -0.001  0.751853  -0.000641  4.075681  0.0  1.577299  -0.000837  0.224063  0.686632  -0.000634  4.090478  -0.001
C  C60  1  0.35002498  0.64863691  0.36015547  1  0.760754  -0.005107  3.783868  -0.004  0.712988  -0.000723  4.085206  -0.001  0.751517  -0.000642  4.075989  0.0  1.577391  -0.000839  0.223919  0.686291  -0.000636  4.090773  -0.001
C  C61  1  0.14998315  0.14864108  0.13984238  1  0.76098  -0.005103  3.7836  -0.004  0.713051  -0.000723  4.085114  -0.001  0.751577  -0.000642  4.075902  0.0  1.576901  -0.000837  0.223912  0.686356  -0.000635  4.090681  -0.001
C  C62  1  0.85002414  0.35136447  0.13984238  1  0.761049  -0.005107  3.783547  -0.004  0.713184  -0.000724  4.084945  -0.001  0.751713  -0.000643  4.075737  0.0  1.577443  -0.000839  0.224024  0.686488  -0.000637  4.090515  -0.001
C  C63  1  0.64998231  0.85136329  0.36016191  1  0.760993  -0.005112  3.78337  -0.004  0.713151  -0.000723  4.0848  -0.001  0.751676  -0.000642  4.075585  0.0  1.577342  -0.000838  0.224055  0.686459  -0.000635  4.090368  -0.001
C  C64  1  0.56506618  0.41588059  0.71973564  1  -0.453242  -8.9e-05  3.651003  0.001  -0.489748  -8.2e-05  3.889606  0.0  -0.502279  -0.000312  3.890777  0.0  -0.101272  0.000887  -0.169745  -0.480873  0.000138  3.888584  0.0
C  C65  1  0.93492830  0.91588614  0.78026436  1  -0.453205  -8e-05  3.650927  0.001  -0.489694  -8.2e-05  3.889508  0.0  -0.502219  -0.000314  3.890684  0.0  -0.101325  0.000887  -0.169737  -0.48083  0.000139  3.888483  0.0
C  C66  1  0.06506403  0.58411331  0.78026293  1  -0.453359  -8.7e-05  3.650861  0.001  -0.489716  -8.1e-05  3.889377  0.0  -0.502244  -0.000312  3.890553  0.0  -0.101203  0.000887  -0.169719  -0.480844  0.000139  3.888357  0.0
C  C67  1  0.43495158  0.08411524  0.71973635  1  -0.45346  -8.1e-05  3.650773  0.001  -0.489857  -8.2e-05  3.8894  0.0  -0.502398  -0.000313  3.890575  0.0  -0.101197  0.000886  -0.16976  -0.480985  0.000138  3.888382  0.0
C  C68  1  0.43495606  0.58410882  0.28025720  1  -0.453295  -8.6e-05  3.650516  0.001  -0.489931  -8.3e-05  3.889234  0.0  -0.502471  -0.000313  3.890394  0.0  -0.100994  0.000887  -0.169925  -0.481069  0.000138  3.888195  0.0
C  C69  1  0.06505356  0.08411449  0.21974423  1  -0.453333  -9.1e-05  3.650678  0.001  -0.489774  -8.1e-05  3.889273  0.0  -0.502309  -0.000312  3.890439  0.0  -0.100837  0.000887  -0.169822  -0.480903  0.000139  3.888243  0.0
C  C70  1  0.93494475  0.41589480  0.21973993  1  -0.453348  -8.9e-05  3.650777  0.001  -0.489692  -8.1e-05  3.889324  0.0  -0.502241  -0.000312  3.890507  0.0  -0.101462  0.000888  -0.169814  -0.48082  0.000139  3.88829  0.0
C  C71  1  0.56505870  0.91588390  0.28026078  1  -0.453312  -8.7e-05  3.65076  0.001  -0.489723  -8.2e-05  3.889338  0.0  -0.502259  -0.000312  3.890511  0.0  -0.101034  0.000886  -0.169734  -0.480842  0.000138  3.888312  0.0
C  C72  1  0.54110010  0.52695994  0.70457874  1  0.739464  -0.00688  3.802195  -0.006  0.696629  -0.000991  4.096089  -0.001  0.7346  -0.000865  4.089538  -0.001  1.545695  -0.001049  0.215587  0.670249  -0.000834  4.099676  -0.001
C  C73  1  0.95890186  0.02696337  0.79542270  1  0.739473  -0.006882  3.802171  -0.006  0.696631  -0.000991  4.096095  -0.001  0.734591  -0.000863  4.089558  -0.001  1.545908  -0.001048  0.215564  0.670246  -0.000833  4.09969  -0.001
C  C74  1  0.04109047  0.47303769  0.79542270  1  0.739496  -0.006878  3.802103  -0.006  0.696569  -0.00099  4.096132  -0.001  0.73453  -0.000864  4.089592  -0.001  1.545766  -0.001047  0.215519  0.670189  -0.000833  4.099723  -0.001
C  C75  1  0.45891167  0.97303876  0.70458017  1  0.739612  -0.006882  3.80202  -0.006  0.696643  -0.00099  4.096103  -0.001  0.734608  -0.000864  4.089559  -0.001  1.545845  -0.001049  0.21556  0.670263  -0.000833  4.099695  -0.001
C  C76  1  0.45890868  0.47303246  0.29541482  1  0.739361  -0.006879  3.8023  -0.006  0.696419  -0.00099  4.096368  -0.001  0.734403  -0.000864  4.0898  -0.001  1.545927  -0.001049  0.215451  0.670043  -0.000834  4.09995  -0.001
C  C77  1  0.04110244  0.97303726  0.20458089  1  0.739693  -0.006877  3.801911  -0.006  0.696722  -0.000992  4.09597  -0.001  0.734697  -0.000865  4.089411  -0.001  1.545884  -0.001049  0.215584  0.670344  -0.000835  4.099559  -0.001
C  C78  1  0.95890784  0.52696967  0.20458232  1  0.739328  -0.006879  3.802481  -0.006  0.696277  -0.000991  4.096665  -0.001  0.734257  -0.000864  4.090114  -0.001  1.546095  -0.00105  0.215366  0.6699  -0.000835  4.100247  -0.001
C  C79  1  0.54110309  0.02696187  0.29541338  1  0.739507  -0.006878  3.80218  -0.006  0.696545  -0.000991  4.096244  -0.001  0.734522  -0.000866  4.089689  -0.001  1.545841  -0.001049  0.215425  0.670169  -0.000835  4.099829  -0.001
O  O80  1  0.74784903  0.27437414  0.66194799  1  -0.636097  0.010044  1.975162  0.014  -0.580366  0.005029  2.226244  0.008  -0.610764  0.002557  2.214507  0.004  -1.168122  0.013153  -0.31993  -0.558558  0.007829  2.23355  0.011
O  O81  1  0.75215144  0.77437446  0.83806061  1  -0.635997  0.010046  1.975391  0.014  -0.580266  0.00503  2.226391  0.008  -0.610676  0.002557  2.214688  0.004  -1.168485  0.013155  -0.319897  -0.558459  0.007829  2.233695  0.011
O  O82  1  0.24784987  0.72562499  0.83805631  1  -0.636082  0.010048  1.975091  0.014  -0.580358  0.00503  2.226188  0.008  -0.610758  0.002556  2.214457  0.004  -1.168073  0.013155  -0.319935  -0.55855  0.00783  2.233491  0.011
O  O83  1  0.25216424  0.22562318  0.66194369  1  -0.636168  0.010044  1.975443  0.014  -0.580398  0.00503  2.226522  0.008  -0.610793  0.002557  2.21478  0.004  -1.168629  0.013154  -0.319995  -0.558601  0.007828  2.233851  0.011
O  O84  1  0.25217022  0.72561751  0.33805345  1  -0.635975  0.010049  1.975666  0.014  -0.58015  0.005031  2.226595  0.008  -0.610546  0.002557  2.214853  0.004  -1.16851  0.013159  -0.319839  -0.558371  0.007831  2.233972  0.011
O  O85  1  0.24783192  0.22562916  0.16195300  1  -0.63618  0.010044  1.975256  0.014  -0.580325  0.005029  2.226316  0.008  -0.610721  0.002556  2.214578  0.004  -1.167974  0.013154  -0.319907  -0.558529  0.007829  2.233653  0.011
O  O86  1  0.75217536  0.27437714  0.16195014  1  -0.636156  0.010047  1.975385  0.014  -0.580316  0.005031  2.22637  0.008  -0.610711  0.002556  2.214626  0.004  -1.168503  0.013157  -0.319938  -0.558526  0.00783  2.233722  0.011
O  O87  1  0.74784305  0.77437595  0.33805345  1  -0.636135  0.010046  1.975143  0.014  -0.580364  0.005029  2.226237  0.008  -0.610761  0.002556  2.214498  0.004  -1.168092  0.013153  -0.319975  -0.558567  0.007829  2.233572  0.011
O  O88  1  0.60908026  0.37229343  0.55189425  1  -0.628662  0.060222  2.105815  0.087  -0.58289  0.039872  2.37157  0.063  -0.622954  0.029353  2.358976  0.05  -1.127081  0.075663  -0.313984  -0.555149  0.046881  2.37999  0.069
O  O89  1  0.89092768  0.87229599  0.94811004  1  -0.628471  0.060241  2.105704  0.087  -0.582829  0.039879  2.371512  0.063  -0.622895  0.029358  2.358916  0.05  -1.127274  0.075685  -0.314045  -0.55508  0.046892  2.379914  0.069
O  O90  1  0.10909605  0.62770271  0.94810861  1  -0.628678  0.060238  2.105719  0.087  -0.582896  0.039878  2.371454  0.063  -0.622965  0.029357  2.358859  0.05  -1.127035  0.075681  -0.314021  -0.555158  0.04689  2.379865  0.069
O  O91  1  0.39091208  0.12770015  0.55189210  1  -0.628707  0.060255  2.10553  0.087  -0.582992  0.039885  2.371376  0.063  -0.623064  0.02936  2.358771  0.05  -1.126953  0.075693  -0.314034  -0.55526  0.046897  2.379792  0.069
O  O92  1  0.39090609  0.62769374  0.44810503  1  -0.628596  0.060264  2.105638  0.087  -0.582869  0.039891  2.371431  0.063  -0.622942  0.029364  2.358829  0.05  -1.12707  0.075707  -0.313998  -0.555116  0.046906  2.379839  0.069
O  O93  1  0.10909755  0.12769866  0.05189640  1  -0.628707  0.060237  2.10584  0.087  -0.582847  0.039877  2.371636  0.063  -0.622909  0.029356  2.359024  0.05  -1.127117  0.075681  -0.313964  -0.5551  0.04689  2.38005  0.069
O  O94  1  0.89090675  0.37230091  0.05189282  1  -0.628668  0.060255  2.105709  0.087  -0.582933  0.039887  2.371562  0.063  -0.622991  0.029362  2.358925  0.05  -1.127149  0.075698  -0.313997  -0.555189  0.0469  2.379971  0.069
O  O95  1  0.60909073  0.87230197  0.44810718  1  -0.628655  0.060232  2.105643  0.087  -0.58292  0.039877  2.371501  0.063  -0.622983  0.029357  2.358885  0.05  -1.127227  0.075674  -0.314036  -0.555191  0.046885  2.379918  0.069
O  O96  1  0.47887742  0.56205495  0.62480226  1  -0.642964  0.064887  2.148212  0.093  -0.610456  0.040588  2.441078  0.063  -0.652476  0.029477  2.430768  0.05  -1.137218  0.078313  -0.331223  -0.581064  0.048241  2.447686  0.071
O  O97  1  0.02112771  0.06205613  0.87519774  1  -0.642994  0.064883  2.148287  0.093  -0.610447  0.040586  2.441122  0.063  -0.652458  0.029477  2.430804  0.05  -1.13745  0.078309  -0.331268  -0.58106  0.048239  2.447733  0.071
O  O98  1  0.97887359  0.43794418  0.87519845  1  -0.642969  0.064875  2.148343  0.093  -0.610412  0.040582  2.441215  0.063  -0.652426  0.029473  2.430902  0.05  -1.137329  0.078296  -0.331222  -0.581031  0.048232  2.447821  0.071
O  O99  1  0.52112239  0.93794225  0.62480513  1  -0.642996  0.064876  2.148287  0.093  -0.610385  0.040583  2.441137  0.063  -0.652407  0.029474  2.430832  0.05  -1.137404  0.0783  -0.331197  -0.581011  0.048232  2.447751  0.071
O  O100  1  0.52111790  0.43793221  0.37518986  1  -0.642983  0.064867  2.148343  0.093  -0.610432  0.040581  2.441306  0.063  -0.652454  0.029473  2.430989  0.05  -1.137317  0.078299  -0.331142  -0.581042  0.048231  2.447912  0.071
O  O101  1  0.97888705  0.93793926  0.12480871  1  -0.643025  0.06487  2.14826  0.093  -0.610449  0.04058  2.441155  0.063  -0.652462  0.029474  2.430831  0.05  -1.137307  0.078299  -0.331169  -0.581058  0.048233  2.447757  0.071
O  O102  1  0.02110080  0.56206617  0.12480441  1  -0.64289  0.064869  2.148515  0.093  -0.610303  0.040582  2.441506  0.063  -0.652323  0.029474  2.431189  0.05  -1.137401  0.078299  -0.331089  -0.580921  0.048232  2.448109  0.071
O  O103  1  0.47888341  0.06206212  0.37519129  1  -0.643055  0.064883  2.148088  0.093  -0.610475  0.040587  2.440965  0.063  -0.652502  0.029476  2.430656  0.05  -1.137226  0.078307  -0.331187  -0.5811  0.048237  2.447578  0.071
O  O104  1  0.57356482  0.58514023  0.77477791  1  -0.623634  0.015448  1.949075  0.021  -0.556312  0.008273  2.176993  0.012  -0.589531  0.004637  2.169061  0.007  -1.14814  0.019753  -0.30355  -0.532647  0.012043  2.181732  0.017
O  O105  1  0.92642069  0.08513842  0.72522353  1  -0.62363  0.015446  1.949024  0.021  -0.556345  0.008273  2.176987  0.012  -0.58956  0.004637  2.16906  0.007  -1.148099  0.019752  -0.303516  -0.532654  0.012042  2.181699  0.017
O  O106  1  0.07354921  0.41486339  0.72521851  1  -0.623636  0.015445  1.948944  0.021  -0.556319  0.008272  2.176931  0.012  -0.589526  0.004637  2.168993  0.007  -1.148119  0.019751  -0.303506  -0.532644  0.012041  2.18166  0.017
O  O107  1  0.42644845  0.91486295  0.77478077  1  -0.623682  0.015446  1.948936  0.021  -0.556357  0.008273  2.176942  0.012  -0.589563  0.004636  2.169  0.007  -1.148155  0.019751  -0.303524  -0.532684  0.012041  2.18167  0.017
O  O108  1  0.42644845  0.41486114  0.22521063  1  -0.623493  0.015444  1.948969  0.021  -0.556119  0.008272  2.176904  0.012  -0.589347  0.004636  2.168979  0.007  -1.148442  0.019749  -0.303443  -0.53246  0.01204  2.181643  0.017
O  O109  1  0.07354921  0.91486295  0.27478794  1  -0.623759  0.015448  1.948883  0.021  -0.556407  0.008273  2.17686  0.012  -0.589634  0.004637  2.16893  0.007  -1.148319  0.019754  -0.303575  -0.532743  0.012043  2.181604  0.017
O  O110  1  0.92644910  0.58514397  0.27478722  1  -0.623534  0.015443  1.948944  0.021  -0.556167  0.008271  2.176953  0.012  -0.58939  0.004636  2.169026  0.007  -1.148294  0.019748  -0.303458  -0.532508  0.012039  2.181695  0.017
O  O111  1  0.57354987  0.08513618  0.22521063  1  -0.623558  0.015442  1.949109  0.021  -0.556193  0.008272  2.17706  0.012  -0.58942  0.004636  2.169139  0.007  -1.148403  0.019749  -0.303421  -0.532532  0.01204  2.181798  0.017
O  O112  1  0.15656612  0.42547297  0.49431509  1  -0.83657  -0.001942  1.806372  0.0  -0.801915  -0.002039  1.975159  -0.001  -0.818976  -0.002279  1.941547  -0.001  -1.241077  -0.001482  -0.603793  -0.789269  -0.001694  1.999013  0.0
O  O113  1  0.34343454  0.92546954  0.00567846  1  -0.836703  -0.001942  1.806399  0.0  -0.802094  -0.002038  1.975112  -0.001  -0.819126  -0.00228  1.941474  -0.001  -1.240954  -0.001482  -0.603883  -0.789448  -0.001694  1.998967  0.0
O  O114  1  0.65656228  0.57452841  0.00568061  1  -0.836606  -0.001942  1.806533  0.0  -0.80197  -0.002038  1.975179  -0.001  -0.819002  -0.00228  1.941543  -0.001  -1.24111  -0.001482  -0.603821  -0.789327  -0.001694  1.99903  0.0
O  O115  1  0.84342921  0.07453408  0.49431437  1  -0.836576  -0.001943  1.806403  0.0  -0.80197  -0.002039  1.975112  -0.001  -0.819  -0.002281  1.941549  -0.001  -1.240768  -0.001484  -0.603801  -0.789331  -0.001696  1.998964  0.0
O  O116  1  0.84342322  0.57452766  0.50567488  1  -0.836653  -0.001944  1.806431  0.0  -0.802024  -0.002038  1.975142  -0.001  -0.819073  -0.002279  1.941511  -0.001  -1.240586  -0.001482  -0.603883  -0.789376  -0.001694  1.998996  0.0
O  O117  1  0.65659518  0.07452062  0.99432297  1  -0.83672  -0.001942  1.80634  0.0  -0.802113  -0.002038  1.975084  -0.001  -0.819159  -0.00228  1.941484  -0.001  -1.240776  -0.001481  -0.603898  -0.789465  -0.001693  1.998939  0.0
O  O118  1  0.34341360  0.42547446  0.99432369  1  -0.836672  -0.001942  1.806436  0.0  -0.802043  -0.002038  1.975123  -0.001  -0.819116  -0.002279  1.941532  -0.001  -1.240692  -0.001483  -0.603908  -0.789399  -0.001695  1.998974  0.0
O  O119  1  0.15656761  0.92547478  0.50567703  1  -0.836639  -0.001942  1.806516  0.0  -0.802035  -0.002039  1.975165  -0.001  -0.819069  -0.00228  1.941542  -0.001  -1.240838  -0.001484  -0.603859  -0.789395  -0.001695  1.999014  0.0
O  O120  1  0.75426152  0.25921707  0.90978579  1  -0.819069  0.000771  1.872069  0.001  -0.754411  0.000438  2.061566  0.001  -0.777302  0.000129  2.029905  0.0  -1.229987  0.001371  -0.55736  -0.73806  0.000784  2.083876  0.001
O  O121  1  0.74572399  0.75922037  0.59021708  1  -0.819068  0.00077  1.872076  0.001  -0.754424  0.000438  2.061591  0.001  -0.777314  0.000129  2.029931  0.0  -1.229787  0.001371  -0.557416  -0.738076  0.000784  2.083898  0.001
O  O122  1  0.25426984  0.74077982  0.59021493  1  -0.819069  0.00077  1.872101  0.001  -0.754379  0.000438  2.061664  0.001  -0.777272  0.000129  2.029997  0.0  -1.229977  0.001372  -0.557362  -0.738027  0.000784  2.083974  0.001
O  O123  1  0.24571287  0.24077951  0.90978650  1  -0.819189  0.000771  1.871898  0.001  -0.754518  0.000438  2.061497  0.001  -0.777406  0.000129  2.029835  0.0  -1.229778  0.001371  -0.557449  -0.738171  0.000784  2.083809  0.001
O  O124  1  0.24573530  0.74078207  0.09021708  1  -0.819147  0.00077  1.87206  0.001  -0.754464  0.000438  2.061632  0.001  -0.777356  0.000129  2.029969  0.0  -1.229724  0.001371  -0.557422  -0.738115  0.000784  2.083944  0.001
O  O125  1  0.25426086  0.24078100  0.40978149  1  -0.819029  0.00077  1.87212  0.001  -0.754303  0.000438  2.06174  0.001  -0.777192  0.000129  2.030084  0.0  -1.229961  0.001372  -0.557383  -0.737957  0.000784  2.084042  0.001
O  O126  1  0.74572848  0.25922230  0.40978077  1  -0.819022  0.000771  1.872111  0.001  -0.754388  0.000438  2.061674  0.001  -0.777276  0.000129  2.030005  0.0  -1.229671  0.001371  -0.55738  -0.738039  0.000784  2.083978  0.001
O  O127  1  0.75425852  0.75922037  0.09021851  1  -0.818941  0.000771  1.872275  0.001  -0.754268  0.000438  2.06181  0.001  -0.77716  0.000129  2.030151  0.0  -1.229987  0.001371  -0.557308  -0.73792  0.000784  2.084111  0.001
