# generated using pymatgen
data_ZnH16C24N2O5
_symmetry_space_group_name_H-M   'P 1'
_cell_length_a   7.23515576
_cell_length_b   13.93672907
_cell_length_c   25.21552688
_cell_angle_alpha   87.76672626
_cell_angle_beta   86.15937676
_cell_angle_gamma   96.07423938
_symmetry_Int_Tables_number   1
_chemical_formula_structural   ZnH16C24N2O5
_chemical_formula_sum   'Zn4 H64 C96 N8 O20'
_cell_volume   2519.92016783
_cell_formula_units_Z   4
loop_
 _symmetry_equiv_pos_site_id
 _symmetry_equiv_pos_as_xyz
  1  'x, y, z'
loop_
 _atom_site_type_symbol
 _atom_site_label
 _atom_site_symmetry_multiplicity
 _atom_site_fract_x
 _atom_site_fract_y
 _atom_site_fract_z
 _atom_site_occupancy
 _atom_site_pbe_bader_charge
 _atom_site_pbe_bader_spin_density
 _atom_site_pbe_cm5_charge
 _atom_site_pbe_ddec_charge
 _atom_site_pbe_ddec_spin_density
 _atom_site_pbe_ddec_sum_bond_order
 _atom_site_pbe_magmom
Zn  Zn0  1  0.02570968  0.29459446  0.04276421  1  1.2812  0  0.69661  0.872587  0  2.319062  0
Zn  Zn1  1  0.97431374  0.70540822  0.95723334  1  1.281298  0  0.696595  0.872595  0  2.319207  0
Zn  Zn2  1  0.52375258  0.67800640  0.54639849  1  1.274353  0  0.697371  0.872988  0  2.277599  0
Zn  Zn3  1  0.47626812  0.32201273  0.45359998  1  1.273962  0  0.697321  0.872932  0  2.277604  0
H  H4  1  0.36879376  0.95834289  0.58221739  1  0.09748  0  0.099489  0.103204  0  1.007634  0
H  H5  1  0.63116711  0.04165992  0.41778352  1  0.097497  0  0.099416  0.10311  0  1.007694  0
H  H6  1  0.24793615  0.54529350  0.54692312  1  0.647668  0  0.300929  0.399316  0  0.93149  0
H  H7  1  0.75207586  0.45472245  0.45307713  1  0.647423  0  0.300954  0.399329  0  0.931521  0
H  H8  1  0.25843229  0.60849932  0.60232418  1  0.641237  0  0.285985  0.382031  0  0.963216  0
H  H9  1  0.74158777  0.39151401  0.39767678  1  0.641237  0  0.286033  0.382033  0  0.963166  0
H  H10  1  0.93374907  0.38419018  0.53716484  1  0.062577  0  0.102214  0.1047  0  1.010429  0
H  H11  1  0.06621377  0.61582128  0.46284063  1  0.062175  0  0.102259  0.104734  0  1.010392  0
H  H12  1  0.29077973  0.38098559  0.08095652  1  0.663788  0  0.305366  0.40347  0  0.910955  0
H  H13  1  0.70919631  0.61900328  0.91904958  1  0.663891  0  0.305408  0.403559  0  0.910848  0
H  H14  1  0.26682921  0.45194505  0.02703656  1  0.676991  0  0.293552  0.398285  0  0.940265  0
H  H15  1  0.73318540  0.54805585  0.97296831  1  0.676941  0  0.293555  0.398322  0  0.940206  0
H  H16  1  0.76368963  0.41625737  0.16533171  1  0.096953  0  0.110401  0.118961  0  0.988222  0
H  H17  1  0.23636355  0.58374045  0.83467300  1  0.096825  0  0.110313  0.118793  0  0.98838  0
H  H18  1  0.04071269  0.26635556  0.60259929  1  0.057929  0  0.10024  0.098383  0  1.023259  0
H  H19  1  0.95925759  0.73366047  0.39740399  1  0.057598  0  0.100153  0.098287  0  1.023128  0
H  H20  1  0.27029537  0.10693983  0.62391171  1  0.085376  0  0.094581  0.092653  0  1.050785  0
H  H21  1  0.72969510  0.89306753  0.37608785  1  0.08548  0  0.094534  0.092575  0  1.050947  0
H  H22  1  0.06806603  0.93662473  0.76609253  1  0.106979  0  0.100764  0.100968  0  1.023125  0
H  H23  1  0.93189942  0.06338114  0.23390508  1  0.107508  0  0.100767  0.100974  0  1.023004  0
H  H24  1  0.49557589  0.60234753  0.28245690  1  0.072766  0  0.107185  0.113261  0  1.027128  0
H  H25  1  0.50442398  0.39764003  0.71754052  1  0.07291  0  0.107267  0.113355  0  1.027101  0
H  H26  1  0.44029767  0.69383866  0.10603219  1  0.06207  0  0.098885  0.093667  0  1.04251  0
H  H27  1  0.55972810  0.30615695  0.89396070  1  0.06225  0  0.098908  0.093711  0  1.042721  0
H  H28  1  0.24762410  0.12702754  0.87839682  1  0.085883  0  0.116582  0.127074  0  0.994661  0
H  H29  1  0.75240808  0.87296464  0.12160079  1  0.086201  0  0.116548  0.127085  0  0.994788  0
H  H30  1  0.19623464  0.01913730  0.08086135  1  0.078275  0  0.098912  0.103265  0  1.010857  0
H  H31  1  0.80376633  0.98086251  0.91913621  1  0.078345  0  0.098873  0.103201  0  1.010876  0
H  H32  1  0.14883325  0.78841741  0.72239063  1  0.097793  0  0.109402  0.114517  0  0.988268  0
H  H33  1  0.85114087  0.21158075  0.27761492  1  0.098302  0  0.109494  0.114507  0  0.988282  0
H  H34  1  0.87309581  0.34335975  0.85128133  1  0.092635  0  0.111198  0.116601  0  1.018123  0
H  H35  1  0.12691421  0.65663387  0.14871858  1  0.092509  0  0.111211  0.116561  0  1.018275  0
H  H36  1  0.85365894  0.36634567  0.94907997  1  0.180169  0  0.118229  0.09925  0  1.046735  0
H  H37  1  0.14634481  0.63364125  0.05092255  1  0.180509  0  0.118193  0.099161  0  1.046709  0
H  H38  1  0.35617986  0.82800816  0.47923286  1  0.123977  0  0.124739  0.09797  0  0.976525  0
H  H39  1  0.64384275  0.17200026  0.52076341  1  0.123798  0  0.124739  0.097959  0  0.976506  0
H  H40  1  0.60190543  0.60460566  0.35370922  1  0.093353  0  0.113669  0.122357  0  1.002478  0
H  H41  1  0.39806200  0.39537865  0.64629392  1  0.093511  0  0.11361  0.122297  0  1.002386  0
H  H42  1  0.01471515  0.36336279  0.77780578  1  0.077465  0  0.104366  0.107405  0  1.043159  0
H  H43  1  0.98528382  0.63663542  0.22220255  1  0.077284  0  0.104372  0.107408  0  1.043193  0
H  H44  1  0.29955140  0.87102565  0.12390742  1  0.078161  0  0.095493  0.093615  0  1.044692  0
H  H45  1  0.70044686  0.12897197  0.87608428  1  0.07844  0  0.095452  0.093597  0  1.044646  0
H  H46  1  0.64800520  0.52569062  0.23150772  1  0.068423  0  0.101625  0.101452  0  1.009444  0
H  H47  1  0.35204717  0.47432521  0.76848912  1  0.067889  0  0.101579  0.101405  0  1.009252  0
H  H48  1  0.55355755  0.58272275  0.03995820  1  0.133185  0  0.10439  0.113714  0  1.035391  0
H  H49  1  0.44642574  0.41725273  0.96004486  1  0.13315  0  0.104347  0.113758  0  1.035309  0
H  H50  1  0.42532415  0.03107754  0.26216828  1  0.076256  0  0.100588  0.101783  0  1.019174  0
H  H51  1  0.57469945  0.96891009  0.73782598  1  0.076172  0  0.100555  0.101762  0  1.019181  0
H  H52  1  0.20341898  0.15545988  0.97541679  1  0.112957  0  0.127496  0.100565  0  0.970066  0
H  H53  1  0.79660155  0.84454269  0.02458319  1  0.112838  0  0.127456  0.100554  0  0.970011  0
H  H54  1  0.14034836  0.07115438  0.80352455  1  0.101525  0  0.110365  0.120215  0  1.008101  0
H  H55  1  0.85963884  0.92884713  0.19647439  1  0.101375  0  0.110339  0.120164  0  1.008125  0
H  H56  1  0.30882149  0.85507008  0.38315331  1  0.095614  0  0.116591  0.126285  0  0.983629  0
H  H57  1  0.69117940  0.14492901  0.61684466  1  0.095724  0  0.11657  0.126304  0  0.983646  0
H  H58  1  0.38058493  0.89618751  0.30259815  1  0.058912  0  0.107682  0.115189  0  1.023989  0
H  H59  1  0.61938418  0.10379762  0.69740019  1  0.058332  0  0.107671  0.115196  0  1.023991  0
H  H60  1  0.94783489  0.46224197  0.72723302  1  0.045892  0  0.102187  0.103328  0  1.007286  0
H  H61  1  0.05217133  0.53777517  0.27277523  1  0.045762  0  0.1021  0.103218  0  1.007058  0
H  H62  1  0.33688001  0.17915513  0.21711087  1  0.098356  0  0.109255  0.114701  0  0.987466  0
H  H63  1  0.66311258  0.82083072  0.78289106  1  0.098313  0  0.109215  0.114631  0  0.987388  0
H  H64  1  0.62990521  0.58736335  0.45006735  1  0.185196  0  0.118859  0.097254  0  1.072147  0
H  H65  1  0.37008291  0.41263599  0.54993756  1  0.185008  0  0.118858  0.097202  0  1.072148  0
H  H66  1  0.84391103  0.57783705  0.66221747  1  0.103798  0  0.111385  0.121149  0  0.984651  0
H  H67  1  0.15610413  0.42218684  0.33779051  1  0.104034  0  0.111352  0.121058  0  0.984706  0
C  C68  1  0.30123120  0.95460507  0.62230648  1  -0.096217  0  -0.090903  -0.102295  0  4.000185  0
C  C69  1  0.69874645  0.04539971  0.37769532  1  -0.096745  0  -0.090991  -0.102464  0  4.00024  0
C  C70  1  0.93844451  0.40047189  0.57893858  1  0.00599  0  -0.085157  -0.088051  0  3.988424  0
C  C71  1  0.06152817  0.59954061  0.42106593  1  0.007024  0  -0.085196  -0.088193  0  3.988059  0
C  C72  1  0.66961020  0.49272825  0.09827084  1  -0.02511  0  -0.017616  -0.037184  0  3.960972  0
C  C73  1  0.33040112  0.50726539  0.90173104  1  -0.025125  0  -0.017484  -0.037046  0  3.961385  0
C  C74  1  0.69104985  0.47687332  0.15273616  1  -0.00343  0  -0.079551  -0.079472  0  3.957826  0
C  C75  1  0.30899088  0.52312342  0.84726559  1  -0.003029  0  -0.079556  -0.079427  0  3.957953  0
C  C76  1  0.99880316  0.33520704  0.61519580  1  -0.003574  0  -0.089375  -0.117257  0  3.988745  0
C  C77  1  0.00116839  0.66480830  0.38480867  1  -0.003971  0  -0.089117  -0.116826  0  3.988213  0
C  C78  1  0.24848650  0.03713741  0.64556721  1  -0.021022  0  -0.094521  -0.126023  0  4.006176  0
C  C79  1  0.75149422  0.96287035  0.35443408  1  -0.020596  0  -0.094374  -0.125729  0  4.006116  0
C  C80  1  0.13455394  0.94232057  0.72583805  1  -0.040919  0  -0.087088  -0.121575  0  3.971229  0
C  C81  1  0.86541150  0.05768529  0.27415995  1  -0.042496  0  -0.087122  -0.1215  0  3.971109  0
C  C82  1  0.47477198  0.67355785  0.26638744  1  -0.065898  0  -0.082193  -0.211275  0  3.913918  0
C  C83  1  0.52520988  0.32643056  0.73361143  1  -0.065992  0  -0.082147  -0.211206  0  3.914057  0
C  C84  1  0.47925837  0.69106071  0.21124666  1  0.565552  0  0.115792  0.201809  0  4.039804  0
C  C85  1  0.52073332  0.30892874  0.78875164  1  0.565513  0  0.115804  0.201699  0  4.039646  0
C  C86  1  0.50830495  0.63186748  0.11898979  1  -0.059107  0  -0.091129  -0.118579  0  3.979812  0
C  C87  1  0.49169611  0.36811937  0.88101080  1  -0.059191  0  -0.09116  -0.118813  0  3.979871  0
C  C88  1  0.15508907  0.17911518  0.89210274  1  0.016356  0  -0.070311  -0.15725  0  3.916558  0
C  C89  1  0.84491770  0.82087400  0.10789890  1  0.016224  0  -0.070259  -0.157144  0  3.91688  0
C  C90  1  0.44230002  0.74763731  0.30065209  1  -0.076836  0  0.007927  0.109336  0  3.985402  0
C  C91  1  0.55768386  0.25235905  0.69934858  1  -0.076474  0  0.007967  0.109409  0  3.98509  0
C  C92  1  0.24889922  0.02095505  0.12031806  1  -0.028409  0  -0.090825  -0.100904  0  3.997894  0
C  C93  1  0.75108445  0.97903703  0.87967873  1  -0.028036  0  -0.090824  -0.100932  0  3.997986  0
C  C94  1  0.99973445  0.35450830  0.66948172  1  -0.048013  0  -0.00919  0.029098  0  3.986078  0
C  C95  1  0.00023982  0.64550641  0.33052271  1  -0.048369  0  -0.00931  0.028859  0  3.986172  0
C  C96  1  0.17974213  0.85894250  0.70165243  1  -0.036993  0  -0.078124  -0.082692  0  3.961736  0
C  C97  1  0.82021553  0.14105589  0.29834941  1  -0.0365  0  -0.078244  -0.082799  0  3.962036  0
C  C98  1  0.11988290  0.12241711  0.72211502  1  0.510839  0  0.121538  0.215009  0  4.024789  0
C  C99  1  0.88008729  0.87758168  0.27788662  1  0.510816  0  0.121534  0.215016  0  4.024878  0
C  C100  1  0.95224486  0.30119452  0.87689009  1  -0.083832  0  -0.073975  -0.15866  0  3.933324  0
C  C101  1  0.04777393  0.69880299  0.12310763  1  -0.08387  0  -0.074084  -0.158689  0  3.933448  0
C  C102  1  0.87773623  0.48720983  0.59578213  1  0.005837  0  -0.018823  -0.041327  0  3.970475  0
C  C103  1  0.12226791  0.51281231  0.40422050  1  0.005358  0  -0.018718  -0.041261  0  3.97039  0
C  C104  1  0.93747915  0.31372111  0.93113182  1  0.469466  0  0.04824  0.091436  0  3.931058  0
C  C105  1  0.06254753  0.68627303  0.06886862  1  0.468913  0  0.048198  0.091498  0  3.931042  0
C  C106  1  0.26527906  0.86452052  0.64991330  1  -0.062631  0  -0.01707  -0.027896  0  3.967335  0
C  C107  1  0.73468604  0.13548315  0.35008793  1  -0.062675  0  -0.017019  -0.027719  0  3.9674  0
C  C108  1  0.06264010  0.23295387  0.85599751  1  0.031438  0  0.024802  0.11866  0  3.950232  0
C  C109  1  0.93737117  0.76703834  0.14400281  1  0.031357  0  0.024855  0.11854  0  3.950537  0
C  C110  1  0.07491021  0.21905316  0.79827869  1  -0.021097  0  0.007232  0.107564  0  4.000206  0
C  C111  1  0.92510055  0.78094839  0.20172066  1  -0.02122  0  0.007184  0.107531  0  4.000232  0
C  C112  1  0.40831839  0.78086552  0.44947492  1  0.408584  0  0.049762  0.091681  0  3.943494  0
C  C113  1  0.59170002  0.21914206  0.55052063  1  0.409349  0  0.049715  0.091679  0  3.943753  0
C  C114  1  0.54194704  0.65628750  0.37908433  1  -0.014417  0  -0.070449  -0.147276  0  3.905557  0
C  C115  1  0.45803326  0.34369941  0.62091539  1  -0.082921  0  -0.070395  -0.147162  0  3.905498  0
C  C116  1  0.04154790  0.29384063  0.76274227  1  -0.058233  0  -0.084726  -0.214907  0  3.918872  0
C  C117  1  0.95844694  0.70615746  0.23726493  1  -0.057834  0  -0.084621  -0.214818  0  3.918778  0
C  C118  1  0.75596849  0.43064187  0.05820822  1  1.550888  0  0.216297  0.586465  0  4.191861  0
C  C119  1  0.24407342  0.56935062  0.94178963  1  1.551769  0  0.216367  0.586607  0  4.192531  0
C  C120  1  0.30472769  0.93851333  0.14434187  1  -0.10513  0  -0.095246  -0.12331  0  3.998802  0
C  C121  1  0.69525285  0.06147505  0.85565544  1  -0.105627  0  -0.095326  -0.123411  0  3.998979  0
C  C122  1  0.04563287  0.27919790  0.70810315  1  0.528093  0  0.115811  0.204541  0  4.03959  0
C  C123  1  0.95434179  0.72080462  0.29189913  1  0.528292  0  0.115579  0.204453  0  4.03974  0
C  C124  1  0.45409295  0.73299652  0.35862522  1  -0.004053  0  0.023762  0.116204  0  3.939639  0
C  C125  1  0.54589784  0.26699723  0.64137063  1  -0.003833  0  0.023789  0.116028  0  3.93975  0
C  C126  1  0.62405996  0.53862388  0.18973109  1  -0.071581  0  -0.089499  -0.124215  0  3.978389  0
C  C127  1  0.37597738  0.46137925  0.81026624  1  -0.071301  0  -0.089373  -0.12407  0  3.977883  0
C  C128  1  0.57424652  0.57005664  0.08193197  1  -0.078338  0  -0.086568  -0.093434  0  3.960033  0
C  C129  1  0.42576177  0.42993402  0.91806962  1  -0.078483  0  -0.0865  -0.093376  0  3.959984  0
C  C130  1  0.25840475  0.10802134  0.14665709  1  0.025145  0  -0.016442  -0.025776  0  3.959927  0
C  C131  1  0.74157882  0.89197001  0.85334051  1  0.025324  0  -0.016426  -0.025703  0  3.959923  0
C  C132  1  0.37496111  0.02714605  0.22241328  1  -0.078845  0  -0.088845  -0.123934  0  3.971535  0
C  C133  1  0.62504141  0.97284157  0.77758726  1  -0.082722  0  -0.088872  -0.124152  0  3.971864  0
C  C134  1  0.13336530  0.19514510  0.94603446  1  0.467658  0  0.055787  0.102582  0  3.924863  0
C  C135  1  0.86664898  0.80484937  0.05396498  1  0.467441  0  0.05584  0.102499  0  3.924926  0
C  C136  1  0.11474203  0.13160690  0.77738677  1  -0.00029  0  -0.078232  -0.201807  0  3.890312  0
C  C137  1  0.88524221  0.86839308  0.22261303  1  0.000138  0  -0.078182  -0.201704  0  3.890183  0
C  C138  1  0.38429800  0.79553679  0.39573871  1  0.044552  0  -0.072738  -0.162505  0  3.936634  0
C  C139  1  0.61571454  0.20446701  0.60425621  1  0.044221  0  -0.072743  -0.162538  0  3.936815  0
C  C140  1  0.40660308  0.83625656  0.27780689  1  0.091993  0  -0.080263  -0.20503  0  3.890021  0
C  C141  1  0.59337017  0.16372869  0.72219217  1  0.09236  0  -0.080282  -0.204961  0  3.889926  0
C  C142  1  0.94729070  0.44390504  0.68563414  1  -0.009941  0  -0.089443  -0.124464  0  3.972173  0
C  C143  1  0.05270844  0.55611114  0.31437543  1  -0.008786  0  -0.089207  -0.124215  0  3.97202  0
C  C144  1  0.19921287  0.19740391  0.12040590  1  1.554204  0  0.201184  0.577368  0  4.207313  0
C  C145  1  0.80077609  0.80258264  0.87958536  1  1.553086  0  0.201137  0.577284  0  4.207026  0
C  C146  1  0.53407574  0.61841516  0.17344381  1  0.001364  0  -0.010189  0.030217  0  3.991364  0
C  C147  1  0.46594168  0.38158231  0.82655354  1  0.001368  0  -0.010238  0.030355  0  3.990848  0
C  C148  1  0.36351166  0.93944937  0.19636234  1  -0.012272  0  -0.01219  0.029721  0  3.986534  0
C  C149  1  0.63646986  0.06053472  0.80363543  1  -0.012051  0  -0.012034  0.029946  0  3.986537  0
C  C150  1  0.31208942  0.77464703  0.62366818  1  1.570374  0  0.211056  0.582083  0  4.192813  0
C  C151  1  0.68790517  0.22536046  0.37633251  1  1.57047  0  0.210876  0.581833  0  4.19289  0
C  C152  1  0.32569177  0.11072293  0.19745602  1  -0.033349  0  -0.08022  -0.087559  0  3.972235  0
C  C153  1  0.67430537  0.88926667  0.80254457  1  -0.03006  0  -0.080148  -0.087347  0  3.972318  0
C  C154  1  0.16710755  0.03244028  0.69790121  1  -0.031659  0  -0.010015  0.034728  0  3.992632  0
C  C155  1  0.83285657  0.96756697  0.30209797  1  -0.031662  0  -0.009902  0.034729  0  3.992501  0
C  C156  1  0.78865965  0.55024296  0.55778804  1  1.53996  0  0.207311  0.574624  0  4.215261  0
C  C157  1  0.21135313  0.44978164  0.44221243  1  1.539437  0  0.207296  0.574582  0  4.215295  0
C  C158  1  0.56053338  0.64561602  0.43324177  1  0.436408  0  0.05104  0.104716  0  3.923685  0
C  C159  1  0.43945887  0.35438132  0.56675994  1  0.504783  0  0.051036  0.104781  0  3.923609  0
C  C160  1  0.88713737  0.50945901  0.64936697  1  -0.070419  0  -0.078545  -0.074263  0  3.955625  0
C  C161  1  0.11287230  0.49056402  0.35063794  1  -0.071038  0  -0.078691  -0.074268  0  3.955946  0
C  C162  1  0.40590130  0.84789753  0.22226411  1  0.503163  0  0.119562  0.212435  0  4.021451  0
C  C163  1  0.59408075  0.15209092  0.77773040  1  0.502769  0  0.119436  0.212219  0  4.021533  0
N  N164  1  0.08559044  0.19469104  0.68849314  1  -1.198521  0  -0.30857  -0.338935  0  3.301086  0
N  N165  1  0.91438990  0.80531168  0.31150667  1  -1.198609  0  -0.308516  -0.338942  0  3.301349  0
N  N166  1  0.49694969  0.70720806  0.46814960  1  -1.261768  0  -0.333748  -0.254914  0  3.599297  0
N  N167  1  0.50306260  0.29279568  0.53185088  1  -1.262209  0  -0.333706  -0.25487  0  3.599381  0
N  N168  1  0.02627822  0.26128448  0.96537741  1  -1.266873  0  -0.331624  -0.243937  0  3.588062  0
N  N169  1  0.97375150  0.73871122  0.03462018  1  -1.266358  0  -0.331586  -0.243873  0  3.588105  0
N  N170  1  0.44276263  0.77662341  0.18994161  1  -1.210315  0  -0.308827  -0.343378  0  3.319236  0
N  N171  1  0.55723766  0.22336989  0.81005807  1  -1.210104  0  -0.308838  -0.343321  0  3.318987  0
O  O172  1  0.75723650  0.45123280  0.00897123  1  -1.18659  0  -0.308994  -0.553638  0  2.228819  0
O  O173  1  0.24281727  0.54876728  0.99102471  1  -1.187215  0  -0.308988  -0.553716  0  2.229178  0
O  O174  1  0.43159558  0.78828154  0.58256239  1  -1.188468  0  -0.344045  -0.584438  0  2.29918  0
O  O175  1  0.56839297  0.21173582  0.41743820  1  -1.18838  0  -0.343978  -0.584402  0  2.2991  0
O  O176  1  0.32624550  0.57044292  0.57493314  1  -1.252347  0  -0.571419  -0.748779  0  2.170135  0
O  O177  1  0.67378026  0.42957062  0.42506496  1  -1.252134  0  -0.571445  -0.748722  0  2.170178  0
O  O178  1  0.24783881  0.27892014  0.13719163  1  -1.174647  0  -0.329966  -0.555985  0  2.082563  0
O  O179  1  0.75215302  0.72106652  0.86279760  1  -1.173961  0  -0.329962  -0.555986  0  2.082641  0
O  O180  1  0.82969187  0.35831980  0.07823609  1  -1.165186  0  -0.328958  -0.557351  0  2.346031  0
O  O181  1  0.17032468  0.64166970  0.92176460  1  -1.165199  0  -0.329083  -0.557479  0  2.346102  0
O  O182  1  0.09775831  0.18075096  0.08014524  1  -1.169135  0  -0.350793  -0.587299  0  2.292381  0
O  O183  1  0.90224831  0.81923042  0.91984386  1  -1.168883  0  -0.350772  -0.587251  0  2.292182  0
O  O184  1  0.74154157  0.63081151  0.57570039  1  -1.157286  0  -0.337501  -0.556731  0  2.289753  0
O  O185  1  0.25850327  0.36922570  0.42429061  1  -1.156806  0  -0.337565  -0.556832  0  2.289373  0
O  O186  1  0.75669945  0.52135910  0.51236976  1  -1.200576  0  -0.311292  -0.563951  0  2.256557  0
O  O187  1  0.24330133  0.47865576  0.48763148  1  -1.200241  0  -0.311302  -0.563889  0  2.256806  0
O  O188  1  0.26561847  0.38450926  0.04302487  1  -1.301696  0  -0.572861  -0.764811  0  2.183108  0
O  O189  1  0.73441403  0.61548794  0.95697582  1  -1.30166  0  -0.572895  -0.764912  0  2.183054  0
O  O190  1  0.23341901  0.69415870  0.64209412  1  -1.168032  0  -0.31559  -0.539365  0  2.148493  0
O  O191  1  0.76660966  0.30584550  0.35791323  1  -1.168146  0  -0.315486  -0.539224  0  2.148616  0
