# generated using pymatgen
data_CuH8C4N2Cl2O
_symmetry_space_group_name_H-M   'P 1'
_cell_length_a   5.74284509
_cell_length_b   10.41095165
_cell_length_c   13.43167331
_cell_angle_alpha   97.78900535
_cell_angle_beta   93.92431189
_cell_angle_gamma   102.29517657
_symmetry_Int_Tables_number   1
_chemical_formula_structural   CuH8C4N2Cl2O
_chemical_formula_sum   'Cu4 H32 C16 N8 Cl8 O4'
_cell_volume   773.46409048
_cell_formula_units_Z   4
loop_
 _symmetry_equiv_pos_site_id
 _symmetry_equiv_pos_as_xyz
  1  'x, y, z'
loop_
 _atom_site_type_symbol
 _atom_site_label
 _atom_site_symmetry_multiplicity
 _atom_site_fract_x
 _atom_site_fract_y
 _atom_site_fract_z
 _atom_site_occupancy
 _atom_site_hle17_ddec_charge
 _atom_site_hle17_ddec_spin_density
 _atom_site_hle17_ddec_sum_bond_order
 _atom_site_hle17_magmom
 _atom_site_hse06_10hf_ddec_charge
 _atom_site_hse06_10hf_ddec_spin_density
 _atom_site_hse06_10hf_ddec_sum_bond_order
 _atom_site_hse06_10hf_magmom
 _atom_site_hse06_ddec_charge
 _atom_site_hse06_ddec_spin_density
 _atom_site_hse06_ddec_sum_bond_order
 _atom_site_hse06_magmom
 _atom_site_pbe_cm5_charge
 _atom_site_pbe_ddec_charge
 _atom_site_pbe_ddec_spin_density
 _atom_site_pbe_ddec_sum_bond_order
 _atom_site_pbe_magmom
Cu  Cu0  1  0.77112628  0.58032669  0.99469376  1  0.840067  0.548713  1.903272  0.401  0.862029  0.716457  2.304133  0.573  0.970381  0.822415  2.208185  0.68  0.545525  0.794407  0.576817  2.368105  0.456
Cu  Cu1  1  0.22886462  0.41968726  0.00530623  1  0.840139  -0.548713  1.903153  -0.401  0.862134  -0.716457  2.303985  -0.573  0.970494  -0.822419  2.208024  -0.68  0.545578  0.794497  -0.576806  2.368003  -0.456
Cu  Cu2  1  0.23188501  0.90894154  0.48559221  1  0.849791  0.53536  1.863634  0.392  0.860394  0.706777  2.276037  0.565  0.968911  0.813469  2.179738  0.672  0.545434  0.791314  0.556961  2.341843  0.44
Cu  Cu3  1  0.76810754  0.09106349  0.51440990  1  0.849827  -0.535367  1.863584  -0.392  0.860417  -0.706777  2.275984  -0.565  0.968926  -0.813463  2.179689  -0.672  0.54543  0.791321  -0.556995  2.341772  -0.44
H  H4  1  0.64017619  0.42682336  0.77455479  1  0.304389  -0.002306  0.90668  0.0  0.287802  -0.002102  0.970547  0.0  0.295243  -0.001657  0.965265  0.0  0.296734  0.28256  -0.002092  0.974614  0.0
H  H5  1  0.35982663  0.57318572  0.22545772  1  0.304406  0.002306  0.906655  0.0  0.287751  0.002102  0.97059  0.0  0.295186  0.001657  0.965314  0.0  0.296733  0.282511  0.002092  0.97465  0.0
H  H6  1  0.17103673  0.65382337  0.84995553  1  0.296728  -0.000438  0.933416  0.0  0.275756  -0.000178  1.005396  0.0  0.283423  -0.00016  0.999948  0.0  0.286049  0.270596  -0.000158  1.00911  0.0
H  H7  1  0.82896869  0.34617861  0.15003104  1  0.29663  0.000439  0.933293  0.0  0.275686  0.000178  1.005266  0.0  0.283353  0.000161  0.999816  0.0  0.285957  0.270549  0.000158  1.008974  0.0
H  H8  1  0.35911482  0.40881524  0.60068230  1  0.065208  0.000189  0.936546  0.0  0.080903  3.6e-05  0.999344  0.0  0.081183  4e-06  0.998895  0.0  0.09461  0.081209  8.1e-05  0.999332  0.0
H  H9  1  0.64088691  0.59117792  0.39932559  1  0.0652  -0.000197  0.93666  0.0  0.080854  -3.6e-05  0.999444  0.0  0.081131  -5e-06  0.998998  0.0  0.094598  0.081162  -8.1e-05  0.999433  0.0
H  H10  1  0.66830315  0.48883540  0.61370405  1  0.063194  3.6e-05  0.942533  0.0  0.080152  -2.6e-05  1.004246  0.0  0.080778  -1.8e-05  1.00351  0.0  0.102254  0.079866  -1.5e-05  1.004719  0.0
H  H11  1  0.33170931  0.51116273  0.38630170  1  0.063201  -3.6e-05  0.942517  0.0  0.08017  2.7e-05  1.00418  0.0  0.080799  1.8e-05  1.003437  0.0  0.102257  0.079872  1.5e-05  1.004671  0.0
H  H12  1  0.38534545  0.63200032  0.55375123  1  0.087729  -0.000164  0.941904  0.0  0.101688  -0.000152  1.009021  0.0  0.101414  -0.000141  1.010716  0.0  0.097798  0.101855  -0.000133  1.008077  0.0
H  H13  1  0.61463471  0.36797777  0.44623660  1  0.087637  0.000159  0.942039  0.0  0.101597  0.000152  1.00919  0.0  0.101327  0.000141  1.010873  0.0  0.097811  0.101776  0.000133  1.008225  0.0
H  H14  1  0.58091108  0.70673925  0.66344369  1  0.081856  0.00052  0.951247  0.0  0.097902  0.000549  1.01319  0.0  0.099313  0.000435  1.012923  0.0  0.085163  0.097053  0.000551  1.01346  0.0
H  H15  1  0.41906701  0.29324678  0.33654415  1  0.081858  -0.000514  0.950986  0.0  0.097924  -0.00055  1.012939  0.0  0.099341  -0.000435  1.012664  0.0  0.085179  0.097074  -0.000551  1.013202  0.0
H  H16  1  0.17400193  0.73547804  0.69402368  1  0.070466  0.000246  0.948932  0.0  0.084911  0.000247  1.015685  0.0  0.085365  0.00015  1.014903  0.0  0.096451  0.084789  0.000292  1.01627  0.0
H  H17  1  0.82598983  0.26451597  0.30596463  1  0.07037  -0.000245  0.948945  0.0  0.084855  -0.000247  1.015689  0.0  0.085309  -0.00015  1.014906  0.0  0.096421  0.084734  -0.000293  1.016273  0.0
H  H18  1  0.05180287  0.56318646  0.65477512  1  0.058968  -0.000112  0.93208  0.0  0.077437  -0.000244  0.990743  0.0  0.077446  -0.000264  0.990662  0.0  0.096893  0.077677  -0.000135  0.990751  0.0
H  H19  1  0.94818662  0.43679766  0.34522106  1  0.05896  0.000112  0.932265  0.0  0.077444  0.000244  0.990935  0.0  0.077454  0.000264  0.990852  0.0  0.096921  0.077686  0.000135  0.990936  0.0
H  H20  1  0.77917861  0.82035039  0.32394762  1  0.298357  -0.000404  0.924717  0.0  0.277848  -0.000192  0.995572  0.0  0.285193  -0.000171  0.990726  0.0  0.288925  0.272917  -0.000167  0.998712  0.0
H  H21  1  0.22083475  0.17965865  0.67605553  1  0.298321  0.0004  0.924771  0.0  0.277814  0.000192  0.995628  0.0  0.28516  0.000171  0.990785  0.0  0.288924  0.272881  0.000167  0.998763  0.0
H  H22  1  0.30421820  0.04989857  0.29425712  1  0.300896  -0.00245  0.913338  0.0  0.287997  -0.002241  0.971785  0.0  0.295028  -0.001784  0.966869  0.0  0.298762  0.283033  -0.0022  0.975687  -0.001
H  H23  1  0.69579239  0.95010351  0.70574451  1  0.300814  0.002457  0.913286  0.0  0.287883  0.002242  0.97179  0.0  0.294912  0.001784  0.96688  0.0  0.298716  0.28292  0.0022  0.975684  0.001
H  H24  1  0.58609717  0.75322230  0.12836680  1  0.059932  0.000302  0.946762  0.0  0.068725  0.000334  1.024987  0.0  0.067393  0.000195  1.025061  0.0  0.090978  0.069708  0.000364  1.025382  0.0
H  H25  1  0.41388034  0.24677577  0.87164084  1  0.059926  -0.0003  0.946879  0.0  0.068754  -0.000334  1.025062  0.0  0.067411  -0.000195  1.025149  0.0  0.091014  0.069739  -0.000364  1.025459  0.0
H  H26  1  0.89353060  0.82857235  0.16285428  1  0.072236  -0.000338  0.951526  0.0  0.086951  -0.000248  1.018097  0.0  0.087506  -0.000205  1.017867  0.0  0.097901  0.08682  -0.000253  1.018185  0.0
H  H27  1  0.10646174  0.17142768  0.83714360  1  0.072315  0.000331  0.951547  0.0  0.087094  0.000248  1.018025  0.0  0.087647  0.000205  1.0178  0.0  0.097958  0.086964  0.000253  1.018115  0.0
H  H28  1  0.81803731  0.05130174  0.15574876  1  0.08372  -0.001036  0.951839  0.0  0.102191  -0.001001  1.010312  0.0  0.104169  -0.000795  1.009563  0.0  0.084601  0.101062  -0.001001  1.011012  0.0
H  H29  1  0.18196258  0.94869532  0.84424755  1  0.083697  0.001038  0.951871  0.0  0.102163  0.001002  1.010321  0.0  0.104137  0.000795  1.009574  0.0  0.084603  0.10104  0.001001  1.011022  0.0
H  H30  1  0.67962463  0.94705945  0.04313961  1  0.091658  -0.0001  0.948333  0.0  0.11065  -9.8e-05  1.007017  0.0  0.11137  -7.5e-05  1.008068  0.0  0.098581  0.110509  -9.7e-05  1.005867  0.0
H  H31  1  0.32036731  0.05293959  0.95685889  1  0.091642  9.7e-05  0.948362  0.0  0.110629  9.8e-05  1.007027  0.0  0.111349  7.5e-05  1.008072  0.0  0.098565  0.110496  9.6e-05  1.005878  0.0
H  H32  1  0.41278370  0.09049427  0.13017977  1  0.071881  -0.000495  0.942717  0.0  0.088203  -0.000528  1.005093  0.0  0.089255  -0.000392  1.004168  0.0  0.09945  0.087675  -0.000542  1.005883  0.0
H  H33  1  0.58721615  0.90950283  0.86982325  1  0.071838  0.00049  0.942744  0.0  0.08814  0.000528  1.005141  0.0  0.089215  0.000392  1.004194  0.0  0.099433  0.087612  0.000542  1.005925  0.0
H  H34  1  0.28329106  0.91629156  0.10818444  1  0.066018  -0.0002  0.93014  0.0  0.081998  -0.000181  0.992465  0.0  0.082323  -0.000123  0.99182  0.0  0.097891  0.082041  -0.000203  0.992682  0.0
H  H35  1  0.71670403  0.08371547  0.89181944  1  0.066062  0.000199  0.930214  0.0  0.082045  0.000181  0.992529  0.0  0.08237  0.000124  0.991888  0.0  0.097899  0.082088  0.000203  0.992746  0.0
C  C36  1  0.40833661  0.53789763  0.81964810  1  0.709623  -0.001409  3.861898  -0.002  0.641866  -0.000362  4.160278  -0.001  0.680844  -0.000324  4.159083  -0.001  0.332929  0.615321  -0.000217  4.158583  -0.001
C  C37  1  0.59165363  0.46210135  0.18034142  1  0.709733  0.001413  3.861947  0.002  0.641934  0.000363  4.160339  0.001  0.680913  0.000325  4.159136  0.001  0.332927  0.615418  0.000219  4.158638  0.001
C  C38  1  0.49579842  0.49277834  0.64288570  1  0.072042  -0.000323  3.62686  0.0  0.012701  -0.000408  3.887158  0.0  0.018847  -0.000349  3.897768  0.0  -0.060239  0.008511  -0.000334  3.878878  0.0
C  C39  1  0.50422143  0.50722080  0.35712037  1  0.072018  0.00033  3.626978  0.0  0.012798  0.000408  3.887095  0.0  0.018946  0.000349  3.897694  0.0  -0.060198  0.008605  0.000334  3.878819  0.0
C  C40  1  0.42768678  0.62457944  0.63336842  1  -0.166771  0.000495  3.673724  0.001  -0.205995  0.000515  3.931452  0.001  -0.209219  0.000337  3.946213  0.001  -0.16282  -0.20374  0.000565  3.921034  0.001
C  C41  1  0.57232284  0.37541561  0.36662203  1  -0.166757  -0.000492  3.673571  -0.001  -0.206065  -0.000516  3.931391  -0.001  -0.209294  -0.000338  3.94616  -0.001  -0.162877  -0.203797  -0.000565  3.920929  -0.001
C  C42  1  0.21277017  0.63642654  0.69139741  1  0.0739  -0.000273  3.637208  0.0  0.014337  -9e-05  3.89771  0.0  0.020355  -0.000153  3.909051  0.0  -0.061276  0.010419  -1.4e-05  3.888881  0.0
C  C43  1  0.78724102  0.36357250  0.30859499  1  0.074059  0.000269  3.637403  0.0  0.014431  8.9e-05  3.897989  0.0  0.020445  0.000154  3.909344  0.0  -0.061259  0.010537  1.4e-05  3.88917  0.0
C  C44  1  0.53941381  0.93655378  0.31606867  1  0.702208  -5.4e-05  3.876653  0.0  0.634173  0.00028  4.177167  0.0  0.672628  0.000234  4.177242  0.0  0.330639  0.607947  0.000274  4.174546  0.0
C  C45  1  0.46060067  0.06344928  0.68393168  1  0.701975  6.2e-05  3.876736  0.0  0.633919  -0.00028  4.177266  0.0  0.672367  -0.000231  4.17736  0.0  0.330559  0.607695  -0.000276  4.174637  0.0
C  C46  1  0.71142566  0.84328856  0.16897502  1  0.062009  0.000115  3.637901  0.0  -9.3e-05  0.000313  3.906837  0.0  0.005788  0.000193  3.920142  0.0  -0.066292  -0.004213  0.000325  3.897198  0.0
C  C47  1  0.28856723  0.15670849  0.83102258  1  0.061776  -0.000109  3.638189  0.0  -0.000417  -0.000313  3.907154  0.0  0.005467  -0.000194  3.920461  0.0  -0.066435  -0.004533  -0.000325  3.897531  0.0
C  C48  1  0.67266504  0.96503682  0.12501169  1  -0.16746  -0.001557  3.676781  -0.002  -0.206537  -0.00151  3.928782  -0.002  -0.210136  -0.001083  3.942407  -0.001  -0.165686  -0.204053  -0.001552  3.918733  -0.002
C  C49  1  0.32733522  0.03496125  0.87498921  1  -0.16737  0.001562  3.6767  0.002  -0.206362  0.00151  3.928573  0.002  -0.209949  0.001084  3.94219  0.001  -0.165613  -0.203905  0.001553  3.918557  0.002
C  C50  1  0.43220045  0.99400254  0.14982442  1  0.069958  -0.000755  3.623331  -0.001  0.013561  -0.000853  3.880496  -0.001  0.019738  -0.0006  3.890341  -0.001  -0.059013  0.00956  -0.000965  3.872746  -0.001
C  C51  1  0.56780758  0.00599756  0.85017915  1  0.069917  0.000754  3.623479  0.001  0.01349  0.000854  3.880638  0.001  0.019651  0.000599  3.890471  0.001  -0.05902  0.009497  0.000965  3.872891  0.001
N  N52  1  0.51789504  0.47636757  0.74934625  1  -0.44362  -0.002412  3.262979  -0.003  -0.38141  -0.002987  3.508743  -0.004  -0.404023  -0.002524  3.515739  -0.003  -0.418773  -0.364697  -0.002702  3.502333  -0.003
N  N53  1  0.48210449  0.52363749  0.25065831  1  -0.443722  0.002414  3.262737  0.003  -0.381441  0.002987  3.508524  0.004  -0.404043  0.002525  3.515501  0.003  -0.418844  -0.364716  0.002702  3.502096  0.003
N  N54  1  0.26241528  0.61439159  0.79484763  1  -0.440615  0.005132  3.301082  0.006  -0.375517  0.003728  3.541466  0.005  -0.398763  0.002687  3.549055  0.004  -0.416816  -0.358269  0.004006  3.534266  0.005
N  N55  1  0.73757498  0.38561639  0.20515173  1  -0.440557  -0.005137  3.301035  -0.006  -0.375487  -0.003728  3.541526  -0.005  -0.398735  -0.002687  3.549112  -0.004  -0.416725  -0.358329  -0.004008  3.534407  -0.005
N  N56  1  0.67337499  0.85785612  0.27585393  1  -0.429435  0.002179  3.295742  0.002  -0.365139  0.002148  3.536437  0.002  -0.388696  0.00174  3.544856  0.002  -0.413055  -0.346937  0.002049  3.528065  0.002
N  N57  1  0.32662742  0.14214295  0.72414639  1  -0.429276  -0.002179  3.29581  -0.002  -0.365015  -0.00215  3.536579  -0.002  -0.38858  -0.001742  3.545017  -0.002  -0.413031  -0.346803  -0.002049  3.52818  -0.002
N  N58  1  0.41774051  0.00008909  0.25859863  1  -0.441899  -0.002165  3.269949  -0.003  -0.381559  -0.00291  3.514791  -0.004  -0.404438  -0.002468  3.522917  -0.004  -0.418705  -0.364789  -0.002694  3.507817  -0.004
N  N59  1  0.58225742  0.99991199  0.74140697  1  -0.441683  0.002154  3.269726  0.003  -0.381314  0.00291  3.514591  0.004  -0.404189  0.002468  3.522739  0.004  -0.41867  -0.364544  0.002695  3.507606  0.004
Cl  Cl60  1  0.10127504  0.62918512  0.10312989  1  -0.510727  0.108203  1.148286  0.126  -0.518513  0.075849  1.469349  0.092  -0.557415  0.061277  1.439472  0.076  -0.267249  -0.49731  0.07214  1.492577  0.086
Cl  Cl61  1  0.89872567  0.37082293  0.89687650  1  -0.510738  -0.108199  1.148381  -0.126  -0.518567  -0.07585  1.469496  -0.092  -0.557469  -0.061282  1.439614  -0.076  -0.267271  -0.497369  -0.072138  1.492739  -0.086
Cl  Cl62  1  0.88814440  0.74985857  0.91076746  1  -0.49289  0.124743  0.966497  0.147  -0.493443  0.082767  1.237433  0.104  -0.52872  0.066193  1.213309  0.086  -0.278703  -0.476456  0.078563  1.256438  0.096
Cl  Cl63  1  0.11185690  0.25014646  0.08923268  1  -0.492942  -0.12474  0.96639  -0.147  -0.493498  -0.082764  1.237321  -0.104  -0.528769  -0.066188  1.213188  -0.086  -0.278748  -0.476506  -0.078556  1.256341  -0.096
Cl  Cl64  1  0.94151537  0.87952826  0.58779187  1  -0.536571  0.101443  1.058437  0.118  -0.538071  0.073947  1.363661  0.09  -0.574281  0.060517  1.33232  0.076  -0.282748  -0.518654  0.068416  1.387751  0.082
Cl  Cl65  1  0.05849129  0.12047285  0.41221549  1  -0.536587  -0.101445  1.05846  -0.118  -0.538082  -0.07395  1.363666  -0.09  -0.5743  -0.06052  1.332341  -0.076  -0.282753  -0.518664  -0.068413  1.38775  -0.082
Cl  Cl66  1  0.08284916  0.72922858  0.37304931  1  -0.486003  0.121757  0.984781  0.143  -0.483513  0.082487  1.268184  0.103  -0.517794  0.067497  1.241581  0.087  -0.281147  -0.466796  0.075476  1.289118  0.092
Cl  Cl67  1  0.91715482  0.27077448  0.62695295  1  -0.486028  -0.121743  0.984805  -0.143  -0.483512  -0.082479  1.268184  -0.103  -0.517786  -0.067492  1.24158  -0.087  -0.281156  -0.466802  -0.075467  1.289121  -0.092
O  O68  1  0.44676116  0.52351487  0.91476832  1  -0.669225  0.015731  2.270409  0.021  -0.64324  0.010818  2.605326  0.016  -0.697955  0.008785  2.594058  0.013  -0.357296  -0.603652  0.010509  2.611148  0.015
O  O69  1  0.55324155  0.47649813  0.08523566  1  -0.669275  -0.015743  2.270687  -0.021  -0.643245  -0.010817  2.605588  -0.016  -0.697959  -0.008784  2.594331  -0.013  -0.357278  -0.603692  -0.010512  2.611481  -0.015
O  O70  1  0.53000004  0.95413676  0.41455184  1  -0.667519  0.008072  2.279909  0.011  -0.637098  0.006102  2.614153  0.009  -0.692419  0.005241  2.602672  0.008  -0.357676  -0.597209  0.005517  2.620847  0.008
O  O71  1  0.47000415  0.04584944  0.58545543  1  -0.667486  -0.008078  2.280193  -0.011  -0.636971  -0.006107  2.614288  -0.009  -0.692273  -0.005246  2.602784  -0.008  -0.357678  -0.59709  -0.00551  2.620983  -0.008
