# generated using pymatgen
data_InH11C7
_symmetry_space_group_name_H-M   'P 1'
_cell_length_a   6.49179578
_cell_length_b   9.48318330
_cell_length_c   12.19287205
_cell_angle_alpha   90.00180030
_cell_angle_beta   100.68392342
_cell_angle_gamma   89.99997544
_symmetry_Int_Tables_number   1
_chemical_formula_structural   InH11C7
_chemical_formula_sum   'In4 H44 C28'
_cell_volume   737.61617907
_cell_formula_units_Z   4
loop_
 _symmetry_equiv_pos_site_id
 _symmetry_equiv_pos_as_xyz
  1  'x, y, z'
loop_
 _atom_site_type_symbol
 _atom_site_label
 _atom_site_symmetry_multiplicity
 _atom_site_fract_x
 _atom_site_fract_y
 _atom_site_fract_z
 _atom_site_occupancy
 _atom_site_pbe_bader_spin_density
 _atom_site_pbe_cm5_charge
 _atom_site_pbe_ddec_charge
 _atom_site_pbe_ddec_spin_density
 _atom_site_pbe_ddec_sum_bond_order
 _atom_site_pbe_magmom
In  In0  1  0.69323452  0.29308971  0.61978482  1  0  0.429305  0.909937  0  2.657995  0
In  In1  1  0.80677069  0.79306026  0.88022265  1  0  0.429311  0.909854  0  2.657647  0
In  In2  1  0.30674605  0.70693203  0.38021983  1  0  0.429338  0.910018  0  2.657832  0
In  In3  1  0.19327921  0.20690876  0.11980819  1  0  0.429331  0.909944  0  2.657721  0
H  H4  1  0.97543802  0.38080320  0.49097426  1  0  0.075424  0.163821  0  1.080743  0
H  H5  1  0.52458151  0.88079393  0.00901437  1  0  0.075488  0.163841  0  1.080533  0
H  H6  1  0.02451428  0.61924174  0.50902446  1  0  0.075536  0.164101  0  1.080878  0
H  H7  1  0.47545032  0.11921516  0.99096884  1  0  0.075521  0.164028  0  1.080953  0
H  H8  1  0.71707253  0.38239487  0.40890764  1  0  0.073723  0.157248  0  1.088809  0
H  H9  1  0.78294531  0.88239106  0.09107349  1  0  0.073749  0.157311  0  1.088835  0
H  H10  1  0.28288711  0.61757309  0.59106469  1  0  0.07372  0.157294  0  1.088689  0
H  H11  1  0.21707584  0.11759483  0.90892513  1  0  0.073717  0.157263  0  1.08859  0
H  H12  1  0.85761804  0.22007753  0.43512820  1  0  0.075979  0.16355  0  1.070278  0
H  H13  1  0.64239268  0.72008006  0.06487722  1  0  0.07602  0.163604  0  1.070255  0
H  H14  1  0.14240843  0.77992312  0.56490536  1  0  0.075955  0.163526  0  1.070421  0
H  H15  1  0.35760983  0.27991848  0.93512949  1  0  0.075972  0.16359  0  1.070465  0
H  H16  1  0.37281833  0.28977800  0.73595745  1  0  0.07726  0.166837  0  1.068472  0
H  H17  1  0.12719299  0.78978166  0.76403514  1  0  0.077247  0.16682  0  1.06846  0
H  H18  1  0.62716860  0.71020473  0.26405272  1  0  0.077191  0.166775  0  1.06876  0
H  H19  1  0.87284710  0.21020106  0.23597263  1  0  0.077227  0.166915  0  1.068486  0
H  H20  1  0.30688683  0.17909636  0.61538052  1  0  0.079754  0.171824  0  1.047372  0
H  H21  1  0.19316596  0.67911357  0.88461750  1  0  0.079731  0.171853  0  1.0475  0
H  H22  1  0.69312986  0.82089690  0.38463161  1  0  0.079777  0.171793  0  1.047261  0
H  H23  1  0.80690720  0.32088602  0.11540157  1  0  0.07966  0.171713  0  1.047606  0
H  H24  1  0.28276408  0.36643190  0.60114923  1  0  0.074051  0.151285  0  1.094412  0
H  H25  1  0.21720884  0.86646235  0.89884891  1  0  0.074079  0.151299  0  1.094309  0
H  H26  1  0.71717605  0.63354555  0.39886885  1  0  0.074092  0.151242  0  1.094322  0
H  H27  1  0.78282968  0.13353619  0.10115789  1  0  0.074004  0.151216  0  1.094278  0
H  H28  1  0.03962997  0.13894470  0.73221920  1  0  0.101108  0.115616  0  1.040242  0
H  H29  1  0.46036909  0.63893145  0.76776712  1  0  0.101114  0.115558  0  1.04047  0
H  H30  1  0.96033272  0.86105384  0.26774850  1  0  0.101107  0.115543  0  1.040279  0
H  H31  1  0.53968104  0.36109873  0.23227604  1  0  0.101146  0.115486  0  1.04042  0
H  H32  1  0.88909563  0.97802277  0.55224235  1  0  0.095488  0.102164  0  1.045558  0
H  H33  1  0.61088094  0.47804623  0.94774373  1  0  0.095515  0.102236  0  1.045465  0
H  H34  1  0.11087462  0.02197999  0.44771047  1  0  0.095466  0.102162  0  1.045189  0
H  H35  1  0.38915664  0.52196707  0.05229825  1  0  0.095454  0.102099  0  1.045295  0
H  H36  1  0.54196513  0.84898472  0.58939894  1  0  0.095164  0.097022  0  1.05875  0
H  H37  1  0.95798702  0.34896631  0.91059171  1  0  0.095125  0.097039  0  1.058566  0
H  H38  1  0.45798751  0.15103069  0.41053173  1  0  0.095077  0.096984  0  1.058837  0
H  H39  1  0.04203484  0.65102696  0.08944633  1  0  0.095097  0.097004  0  1.058746  0
H  H40  1  0.45149346  0.95012366  0.78136144  1  0  0.102649  0.117303  0  1.030785  0
H  H41  1  0.04849071  0.45008887  0.71861672  1  0  0.102663  0.117385  0  1.030405  0
H  H42  1  0.54844983  0.04985274  0.21857163  1  0  0.102653  0.117249  0  1.030788  0
H  H43  1  0.95155623  0.54991599  0.28142368  1  0  0.102593  0.117332  0  1.030604  0
H  H44  1  0.75779817  0.12943061  0.87158421  1  0  0.102046  0.107454  0  1.047083  0
H  H45  1  0.74214086  0.62938412  0.62838292  1  0  0.102099  0.107507  0  1.046798  0
H  H46  1  0.24207137  0.87057742  0.12833703  1  0  0.102131  0.107527  0  1.04651  0
H  H47  1  0.25794407  0.37066293  0.37168155  1  0  0.10213  0.107643  0  1.046477  0
C  C48  1  0.82763810  0.32259450  0.47064308  1  0  -0.365294  -0.768089  0  3.754528  0
C  C49  1  0.67237953  0.82258391  0.02935306  1  0  -0.36538  -0.76817  0  3.754627  0
C  C50  1  0.17232044  0.67740825  0.52935459  1  0  -0.36536  -0.768403  0  3.754775  0
C  C51  1  0.32767621  0.17741147  0.97065454  1  0  -0.365408  -0.768386  0  3.754756  0
C  C52  1  0.37420773  0.28060195  0.64658873  1  0  -0.361515  -0.754549  0  3.767202  0
C  C53  1  0.12582225  0.78060311  0.85340130  1  0  -0.361447  -0.754477  0  3.766971  0
C  C54  1  0.62576957  0.71939659  0.35340823  1  0  -0.361487  -0.754384  0  3.767143  0
C  C55  1  0.87425250  0.21938700  0.14661957  1  0  -0.361318  -0.754424  0  3.767144  0
C  C56  1  0.88673357  0.08761323  0.71599565  1  0  -0.146113  -0.223907  0  4.103058  0
C  C57  1  0.61322570  0.58761143  0.78398471  1  0  -0.145962  -0.223365  0  4.102975  0
C  C58  1  0.11321018  0.91238215  0.28396289  1  0  -0.145854  -0.223245  0  4.103069  0
C  C59  1  0.38681488  0.41239555  0.21605017  1  0  -0.145962  -0.223204  0  4.102858  0
C  C60  1  0.81469930  0.99297078  0.62423815  1  0  -0.125109  -0.157787  0  4.058816  0
C  C61  1  0.68527425  0.49297953  0.87574718  1  0  -0.125174  -0.158015  0  4.059164  0
C  C62  1  0.18527246  0.00703092  0.37571154  1  0  -0.125271  -0.15801  0  4.059253  0
C  C63  1  0.31475229  0.50702745  0.12428967  1  0  -0.125109  -0.157743  0  4.059074  0
C  C64  1  0.63746854  0.92312026  0.64474008  1  0  -0.12311  -0.147003  0  4.055778  0
C  C65  1  0.86249196  0.42312380  0.85524651  1  0  -0.123008  -0.146934  0  4.055877  0
C  C66  1  0.36247505  0.07687301  0.35520943  1  0  -0.12292  -0.147108  0  4.05538  0
C  C67  1  0.13753603  0.57687790  0.14478391  1  0  -0.123076  -0.147237  0  4.055441  0
C  C68  1  0.59733823  0.96776684  0.75133630  1  0  -0.1403  -0.20626  0  4.082147  0
C  C69  1  0.90261172  0.46775315  0.74865362  1  0  -0.140349  -0.206475  0  4.082341  0
C  C70  1  0.40261139  0.03221167  0.24860065  1  0  -0.140358  -0.20597  0  4.081719  0
C  C71  1  0.09740715  0.53225066  0.25139235  1  0  -0.140308  -0.206281  0  4.081813  0
C  C72  1  0.75183879  0.07010396  0.79482106  1  0  -0.120648  -0.166561  0  4.051  0
C  C73  1  0.74812067  0.57008078  0.70517696  1  0  -0.120704  -0.166782  0  4.05142  0
C  C74  1  0.24809738  0.92989353  0.20515071  1  0  -0.120723  -0.167021  0  4.051643  0
C  C75  1  0.25191842  0.42993780  0.29486188  1  0  -0.120723  -0.167027  0  4.051215  0
