# generated using pymatgen
data_CuH18C12Br2(N3O2)2
_symmetry_space_group_name_H-M   'P 1'
_cell_length_a   3.99589000
_cell_length_b   6.69062524
_cell_length_c   16.91544213
_cell_angle_alpha   97.82122666
_cell_angle_beta   97.33116593
_cell_angle_gamma   97.43832819
_symmetry_Int_Tables_number   1
_chemical_formula_structural   CuH18C12Br2(N3O2)2
_chemical_formula_sum   'Cu1 H18 C12 Br2 N6 O4'
_cell_volume   439.37615248
_cell_formula_units_Z   1
loop_
 _symmetry_equiv_pos_site_id
 _symmetry_equiv_pos_as_xyz
  1  'x, y, z'
loop_
 _atom_site_type_symbol
 _atom_site_label
 _atom_site_symmetry_multiplicity
 _atom_site_fract_x
 _atom_site_fract_y
 _atom_site_fract_z
 _atom_site_occupancy
 _atom_site_hle17_ddec_charge
 _atom_site_hle17_ddec_spin_density
 _atom_site_hle17_ddec_sum_bond_order
 _atom_site_hle17_magmom
 _atom_site_hse06_10hf_ddec_charge
 _atom_site_hse06_10hf_ddec_spin_density
 _atom_site_hse06_10hf_ddec_sum_bond_order
 _atom_site_hse06_10hf_magmom
 _atom_site_hse06_ddec_charge
 _atom_site_hse06_ddec_spin_density
 _atom_site_hse06_ddec_sum_bond_order
 _atom_site_hse06_magmom
 _atom_site_pbe_cm5_charge
 _atom_site_pbe_ddec_charge
 _atom_site_pbe_ddec_spin_density
 _atom_site_pbe_ddec_sum_bond_order
 _atom_site_pbe_magmom
Cu  Cu0  1  0.50000806  0.50000170  0.50000004  1  0.646465  0.553646  1.947687  0.412  0.638006  0.67179  2.33188  0.536  0.734148  0.749943  2.257969  0.627  0.56639  0.587188  0.625326  2.375938  0.486
H  H1  1  0.25686557  0.86531901  0.42898542  1  0.299759  -0.000266  0.903022  0.0  0.277061  0.000314  0.974609  0.0  0.286897  0.000239  0.964585  0.0  0.299481  0.270304  0.000399  0.981379  0.0
H  H2  1  0.74317148  0.13468769  0.57101598  1  0.299729  -0.000266  0.902952  0.0  0.277086  0.000314  0.974551  0.0  0.286929  0.000239  0.964525  0.0  0.299462  0.270323  0.000399  0.981317  0.0
H  H3  1  0.26277106  0.97234757  0.21645274  1  0.34577  9.9e-05  0.876465  0.0  0.329962  7.9e-05  0.935653  0.0  0.337061  5.2e-05  0.929596  0.0  0.313734  0.324895  0.000102  0.93996  0.0
H  H4  1  0.73721213  0.02765543  0.78354582  1  0.345938  0.000101  0.876465  0.0  0.330081  7.9e-05  0.935724  0.0  0.337184  5.2e-05  0.929655  0.0  0.313756  0.325021  0.000102  0.940049  0.0
H  H5  1  0.15218835  0.07784899  0.30948372  1  0.329479  -0.000256  0.910002  0.0  0.315344  -9e-06  0.97084  0.0  0.323361  -2e-05  0.963636  0.0  0.288278  0.30986  8e-06  0.975652  0.0
H  H6  1  0.84780952  0.92215119  0.69051806  1  0.329522  -0.000252  0.91004  0.0  0.315376  -9e-06  0.970882  0.0  0.323405  -1.9e-05  0.963662  0.0  0.288257  0.3099  8e-06  0.975683  0.0
H  H7  1  0.48272212  0.38322531  0.04156468  1  0.048568  7e-06  0.952709  0.0  0.062233  5e-06  1.023252  0.0  0.061837  3e-06  1.023478  0.0  0.102459  0.062404  7e-06  1.023242  0.0
H  H8  1  0.51726294  0.61676253  0.95843550  1  0.048555  1.1e-05  0.952692  0.0  0.062212  5e-06  1.023297  0.0  0.061814  2e-06  1.02352  0.0  0.102436  0.062379  7e-06  1.02329  0.0
H  H9  1  0.90714213  0.51510067  0.06849149  1  0.051861  2e-06  0.942201  0.0  0.063635  0.0  1.01213  0.0  0.063792  -1e-06  1.01156  0.0  0.100248  0.063417  1e-06  1.012697  0.0
H  H10  1  0.09283924  0.48489322  0.93150951  1  0.051918  6e-06  0.942165  0.0  0.063638  0.0  1.012181  0.0  0.063794  -1e-06  1.011607  0.0  0.100293  0.063429  1e-06  1.012741  0.0
H  H11  1  0.67146435  0.06479495  0.08525208  1  0.116655  -1e-06  0.957043  0.0  0.136581  -2e-06  1.019641  0.0  0.138421  -3e-06  1.019076  0.0  0.091056  0.135207  -2e-06  1.020132  0.0
H  H12  1  0.32852277  0.93519136  0.91474571  1  0.11672  -2e-06  0.957106  0.0  0.136669  -2e-06  1.019665  0.0  0.13851  -3e-06  1.019099  0.0  0.091084  0.135297  -2e-06  1.020163  0.0
H  H13  1  0.09608812  0.19634283  0.11321895  1  0.10407  1e-06  0.962379  0.0  0.125064  -2e-06  1.023539  0.0  0.126508  -2e-06  1.023458  0.0  0.088993  0.123974  -3e-06  1.023675  0.0
H  H14  1  0.90390813  0.80364972  0.88678297  1  0.104115  1e-06  0.962437  0.0  0.125128  -2e-06  1.023558  0.0  0.126572  -2e-06  1.023478  0.0  0.089005  0.124034  -3e-06  1.023707  0.0
H  H15  1  0.90345384  0.15057575  0.01022980  1  0.113064  1e-05  0.952977  0.0  0.138211  3e-06  1.009016  0.0  0.138818  1e-06  1.010094  0.0  0.096478  0.137737  3e-06  1.008292  0.0
H  H16  1  0.09654323  0.84942134  0.98976943  1  0.113073  1e-05  0.953031  0.0  0.138225  3e-06  1.009066  0.0  0.138834  1e-06  1.010145  0.0  0.09647  0.137753  3e-06  1.008328  0.0
H  H17  1  0.64766077  0.37558257  0.32288999  1  0.106756  6.7e-05  0.962798  0.0  0.113063  0.00021  1.033508  0.0  0.11644  0.000147  1.028446  0.0  0.111271  0.110567  0.000262  1.037122  0.0
H  H18  1  0.35236023  0.62442084  0.67710726  1  0.106807  7.1e-05  0.962766  0.0  0.113102  0.000209  1.033497  0.0  0.116479  0.000147  1.028432  0.0  0.111297  0.110603  0.000262  1.037119  0.0
C  C19  1  0.54854470  0.51937024  0.32745189  1  0.093002  -0.006274  3.690654  -0.004  0.038414  -0.001825  3.972335  0.0  0.057919  -0.003926  3.980339  -0.002  0.026053  0.026269  -0.000334  3.966829  0.001
C  C20  1  0.45147048  0.48064074  0.67254737  1  0.092995  -0.0063  3.690513  -0.004  0.038434  -0.001826  3.972162  0.0  0.057943  -0.003928  3.980153  -0.002  0.026081  0.026292  -0.000336  3.96665  0.001
C  C21  1  0.49435065  0.64603765  0.26837562  1  -0.318435  0.001689  3.81388  0.003  -0.305111  0.00111  4.082028  0.002  -0.325848  0.000572  4.100872  0.001  -0.054663  -0.291409  0.001582  4.068902  0.002
C  C22  1  0.50565261  0.35396411  0.73162638  1  -0.318586  0.001693  3.814426  0.003  -0.305243  0.00111  4.082358  0.002  -0.326001  0.000571  4.10124  0.001  -0.054638  -0.291545  0.001582  4.069239  0.002
C  C23  1  0.36604245  0.81498351  0.30727038  1  0.473525  0.000544  3.807242  0.001  0.42531  0.001475  4.083476  0.001  0.448217  0.000692  4.094203  0.001  0.231551  0.41028  0.001972  4.075301  0.002
C  C24  1  0.63396664  0.18502282  0.69272788  1  0.473602  0.00055  3.807276  0.001  0.425677  0.001475  4.083259  0.001  0.448585  0.000694  4.093985  0.001  0.231625  0.410649  0.001972  4.075077  0.002
C  C25  1  0.54337570  0.61546558  0.18475845  1  0.613377  -0.000115  3.869686  0.0  0.561561  0.000108  4.16693  0.0  0.597066  4.3e-05  4.158744  0.0  0.220798  0.537336  0.000199  4.172203  0.0
C  C26  1  0.45661203  0.38454948  0.81522963  1  0.613304  -0.000108  3.869574  0.0  0.561542  0.000108  4.166763  0.0  0.597051  4.2e-05  4.158592  0.0  0.220758  0.537315  0.000198  4.172053  0.0
C  C27  1  0.72440150  0.39062862  0.08143500  1  0.145957  -1e-06  3.621775  0.0  0.084177  4e-06  3.902147  0.0  0.094182  -0.0  3.906677  0.0  -0.072096  0.077392  1.4e-05  3.898998  0.0
C  C28  1  0.27558525  0.60936686  0.91856622  1  0.146121  -1.8e-05  3.621425  0.0  0.084326  4e-06  3.901925  0.0  0.094347  -0.0  3.906431  0.0  -0.072028  0.077542  1.4e-05  3.898771  0.0
C  C29  1  0.85591338  0.18848298  0.07257542  1  -0.330454  -2.9e-05  3.703109  0.0  -0.410118  -5e-06  3.949234  0.0  -0.413151  -5e-06  3.95802  0.0  -0.251305  -0.407787  -2e-06  3.943197  0.0
C  C30  1  0.14407297  0.81151095  0.92742453  1  -0.330655  -2.9e-05  3.703313  0.0  -0.410309  -6e-06  3.949382  0.0  -0.413354  -5e-06  3.958171  0.0  -0.251345  -0.407974  -2e-06  3.943348  0.0
Br  Br31  1  0.00961361  0.22077232  0.44455377  1  -0.465463  0.165231  1.075028  0.17  -0.481958  0.11388  1.398873  0.121  -0.520387  0.085499  1.373411  0.098  -0.228807  -0.460862  0.13072  1.417409  0.132
Br  Br32  1  0.99038761  0.77923242  0.55544537  1  -0.465472  0.165237  1.075054  0.17  -0.481957  0.113883  1.398882  0.121  -0.520395  0.085499  1.373434  0.098  -0.228818  -0.460863  0.130722  1.417418  0.132
N  N33  1  0.46312782  0.60091195  0.39669918  1  -0.214603  0.056622  3.321893  0.074  -0.178533  0.043897  3.633077  0.059  -0.209344  0.038336  3.656669  0.055  -0.299692  -0.161564  0.046183  3.619543  0.06
N  N34  1  0.53689401  0.39909455  0.60330121  1  -0.214653  0.056619  3.321929  0.074  -0.178533  0.043891  3.633252  0.059  -0.209315  0.038331  3.656817  0.055  -0.299773  -0.161571  0.046176  3.619717  0.06
N  N35  1  0.35395933  0.78211238  0.38423664  1  -0.267906  0.00528  3.376653  0.005  -0.203571  0.004268  3.60777  0.004  -0.216665  0.003516  3.621112  0.003  -0.297008  -0.194418  0.004787  3.598857  0.004
N  N36  1  0.64605538  0.21789560  0.61576600  1  -0.267656  0.005284  3.376553  0.005  -0.203719  0.004268  3.607993  0.004  -0.216828  0.003516  3.621336  0.003  -0.296984  -0.194559  0.004787  3.599063  0.004
N  N37  1  0.27954437  0.98064368  0.27728013  1  -0.66522  4.1e-05  3.113557  0.0  -0.629475  0.000472  3.343475  0.0  -0.649072  0.00011  3.338165  0.0  -0.575406  -0.615567  0.000849  3.346446  0.001
N  N38  1  0.72045533  0.01936416  0.72272505  1  -0.665505  1.9e-05  3.113611  0.0  -0.629773  0.000473  3.343429  0.0  -0.649378  0.000111  3.338084  0.0  -0.575432  -0.615878  0.000849  3.346411  0.001
O  O39  1  0.47685099  0.73357063  0.13655116  1  -0.561297  0.000557  1.904558  0.001  -0.51567  0.000162  2.116913  0.0  -0.535587  -0.000189  2.108452  0.0  -0.295315  -0.501957  0.000605  2.122513  0.001
O  O40  1  0.52316368  0.26641306  0.86345375  1  -0.561576  0.000547  1.903512  0.001  -0.515913  0.000163  2.115776  0.0  -0.535839  -0.000189  2.107324  0.0  -0.295481  -0.502189  0.000606  2.121393  0.001
O  O41  1  0.66839308  0.43907757  0.16475813  1  -0.341677  -1.7e-05  2.248438  0.0  -0.26514  -3.8e-05  2.484543  0.0  -0.287497  -3.4e-05  2.483479  0.0  -0.179277  -0.249635  -1.1e-05  2.48487  0.0
O  O42  1  0.33159642  0.56090729  0.83524261  1  -0.341548  -1.1e-05  2.248498  0.0  -0.265092  -3.9e-05  2.48469  0.0  -0.287455  -3.4e-05  2.483626  0.0  -0.179246  -0.249589  -1.1e-05  2.485024  0.0
