# generated using pymatgen
data_NiH16C8S2(N3O)2
_symmetry_space_group_name_H-M   'P 1'
_cell_length_a   7.69074155
_cell_length_b   7.69077303
_cell_length_c   12.36729458
_cell_angle_alpha   104.20332469
_cell_angle_beta   104.20361920
_cell_angle_gamma   100.64302987
_symmetry_Int_Tables_number   1
_chemical_formula_structural   NiH16C8S2(N3O)2
_chemical_formula_sum   'Ni2 H32 C16 S4 N12 O4'
_cell_volume   663.70759636
_cell_formula_units_Z   2
loop_
 _symmetry_equiv_pos_site_id
 _symmetry_equiv_pos_as_xyz
  1  'x, y, z'
loop_
 _atom_site_type_symbol
 _atom_site_label
 _atom_site_symmetry_multiplicity
 _atom_site_fract_x
 _atom_site_fract_y
 _atom_site_fract_z
 _atom_site_occupancy
 _atom_site_pbe_cm5_charge
 _atom_site_pbe_ddec_charge
 _atom_site_pbe_ddec_spin_density
 _atom_site_pbe_ddec_sum_bond_order
 _atom_site_pbe_magmom
Ni  Ni0  1  0.50000236  0.50000180  0.49999783  1  0.654861  0.763534  -0.208542  2.599456  -0.129
Ni  Ni1  1  0.50000339  0.50000022  0.99999966  1  0.654827  0.76336  0.208584  2.599791  0.129
H  H2  1  0.27492767  0.66430060  0.38203567  1  0.268718  0.345029  -0.000716  1.00396  -0.001
H  H3  1  0.33570266  0.72505956  0.11795702  1  0.268874  0.345259  0.000717  1.003718  0.001
H  H4  1  0.72507082  0.33569466  0.61796504  1  0.268727  0.345067  -0.000717  1.003921  -0.001
H  H5  1  0.66430996  0.27493844  0.88204547  1  0.268854  0.345228  0.000717  1.003772  0.001
H  H6  1  0.14208310  0.46237045  0.34872952  1  0.281826  0.33061  -0.001287  1.021129  -0.002
H  H7  1  0.53762822  0.85790469  0.15126750  1  0.281801  0.330515  0.001286  1.021053  0.002
H  H8  1  0.85790772  0.53762623  0.65126619  1  0.281845  0.330607  -0.001286  1.021137  -0.002
H  H9  1  0.46237844  0.14209612  0.84873127  1  0.28177  0.330445  0.001287  1.021199  0.002
H  H10  1  0.14309078  0.41421372  0.57539710  1  0.116856  0.090368  0.000176  1.002824  0.0
H  H11  1  0.58576861  0.85690404  0.92459151  1  0.116864  0.090468  -0.000175  1.003353  0.0
H  H12  1  0.85690234  0.58578156  0.42460118  1  0.116896  0.090419  0.000176  1.00289  0.0
H  H13  1  0.41422964  0.14309540  0.07540657  1  0.116856  0.09049  -0.000175  1.003296  0.0
H  H14  1  0.14237414  0.62890703  0.54161047  1  0.113745  0.075366  -5.6e-05  1.043019  0.0
H  H15  1  0.37109025  0.85763260  0.95838923  1  0.113672  0.075105  5.5e-05  1.042774  0.0
H  H16  1  0.85762142  0.37109241  0.45839043  1  0.113741  0.075339  -5.6e-05  1.042984  0.0
H  H17  1  0.62891067  0.14236682  0.04161168  1  0.113669  0.075099  5.5e-05  1.04279  0.0
H  H18  1  0.41076188  0.39356241  0.71545512  1  0.123664  0.103957  4.1e-05  0.98402  0.0
H  H19  1  0.60640403  0.58922225  0.78452657  1  0.123715  0.104129  -4e-05  0.984619  0.0
H  H20  1  0.58923661  0.60643286  0.28454236  1  0.123643  0.103935  4.1e-05  0.984058  0.0
H  H21  1  0.39359154  0.41077720  0.21546948  1  0.123714  0.104115  -4e-05  0.984539  0.0
H  H22  1  0.60250988  0.87537357  0.73500961  1  0.115524  0.093755  0.000138  0.995008  0.0
H  H23  1  0.12462205  0.39748157  0.76497808  1  0.11551  0.093738  -0.000139  0.994734  0.0
H  H24  1  0.39748532  0.12462448  0.26498860  1  0.115514  0.093753  0.000138  0.995051  0.0
H  H25  1  0.87537584  0.60251648  0.23501973  1  0.115501  0.093728  -0.000139  0.994767  0.0
H  H26  1  0.40156764  0.88723306  0.62966442  1  0.116453  0.086805  -0.000166  1.002345  0.0
H  H27  1  0.11277252  0.59843509  0.87032463  1  0.11652  0.086789  0.000165  1.00281  0.0
H  H28  1  0.59842792  0.11276638  0.37033568  1  0.116468  0.086847  -0.000166  1.002295  0.0
H  H29  1  0.88722707  0.40156434  0.12967528  1  0.116513  0.086787  0.000165  1.002798  0.0
H  H30  1  0.11769010  0.89289887  0.67929762  1  0.112666  0.084073  -0.000309  1.006737  0.0
H  H31  1  0.10711051  0.88231834  0.82069734  1  0.112645  0.083959  0.000309  1.006824  0.0
H  H32  1  0.88230680  0.10710057  0.32070268  1  0.112663  0.084037  -0.000309  1.006781  0.0
H  H33  1  0.89288981  0.11768387  0.17930391  1  0.112651  0.083957  0.000309  1.006787  0.0
C  C34  1  0.73398195  0.89578288  0.54487755  1  0.148895  0.279226  0.0005  4.311647  0.0
C  C35  1  0.10425581  0.26603820  0.95513344  1  0.148841  0.279341  -0.0005  4.312199  0.0
C  C36  1  0.26602946  0.10425127  0.45513111  1  0.148827  0.279306  0.000501  4.312308  0.0
C  C37  1  0.89576192  0.73396395  0.04487129  1  0.148837  0.279276  -0.000501  4.312242  0.0
C  C38  1  0.18700940  0.56632833  0.61066451  1  0.01391  -0.018461  4.5e-05  3.887099  -0.001
C  C39  1  0.43371079  0.81299527  0.88931880  1  0.013923  -0.018363  -4.2e-05  3.887009  0.001
C  C40  1  0.81298922  0.43367250  0.38933384  1  0.013855  -0.01845  4.4e-05  3.887077  -0.001
C  C41  1  0.56628977  0.18700277  0.11068104  1  0.013947  -0.018359  -4.2e-05  3.886947  0.001
C  C42  1  0.45491259  0.54514717  0.75000494  1  0.017128  -0.001426  4e-06  3.840676  0.0
C  C43  1  0.54508773  0.45485504  0.24999388  1  0.017144  -0.001339  4e-06  3.84049  0.0
C  C44  1  0.45042314  0.82961434  0.70091062  1  0.02074  0.002951  0.000717  3.837586  -0.001
C  C45  1  0.17038700  0.54959771  0.79909122  1  0.020768  0.003116  -0.000716  3.837867  0.001
C  C46  1  0.54957437  0.17038232  0.29908774  1  0.020746  0.002932  0.000718  3.837652  -0.001
C  C47  1  0.82961294  0.45040311  0.20090976  1  0.020773  0.00314  -0.000716  3.837922  0.001
C  C48  1  0.16622979  0.83378310  0.74999089  1  0.02087  0.01065  -0.0  3.826074  0.0
C  C49  1  0.83376882  0.16621772  0.25000908  1  0.020876  0.010766  -0.0  3.826022  0.0
S  S50  1  0.86428344  0.10538254  0.58464691  1  -0.157113  -0.362229  -0.001299  2.467261  -0.001
S  S51  1  0.89463777  0.13572762  0.91536599  1  -0.157098  -0.362297  0.001299  2.466632  0.001
S  S52  1  0.13571077  0.89463218  0.41536179  1  -0.157095  -0.362304  -0.0013  2.466702  -0.001
S  S53  1  0.10537022  0.86427317  0.08463865  1  -0.157052  -0.362204  0.001298  2.466904  0.001
N  N54  1  0.64193226  0.74059212  0.51559538  1  -0.414126  -0.477086  -0.005706  3.406095  -0.005
N  N55  1  0.25941324  0.35806610  0.98440239  1  -0.414019  -0.476965  0.005706  3.407058  0.005
N  N56  1  0.35806721  0.25940177  0.48439881  1  -0.414085  -0.47703  -0.005705  3.406992  -0.005
N  N57  1  0.74058768  0.64193332  0.01560014  1  -0.414062  -0.477019  0.005709  3.40688  0.005
N  N58  1  0.39208112  0.62422048  0.65426210  1  -0.318816  -0.151889  0.070033  3.434348  0.073
N  N59  1  0.37576368  0.60790739  0.84572264  1  -0.318814  -0.151834  -0.070067  3.434212  -0.073
N  N60  1  0.60791407  0.37577757  0.34573773  1  -0.318756  -0.15187  0.070037  3.434294  0.073
N  N61  1  0.62423591  0.39209205  0.15427565  1  -0.318836  -0.151858  -0.070071  3.434139  -0.073
N  N62  1  0.10351795  0.62861274  0.70387896  1  -0.327145  -0.167013  -0.003443  3.360677  -0.003
N  N63  1  0.37138168  0.89648180  0.79611191  1  -0.32719  -0.166908  0.00344  3.360856  0.003
N  N64  1  0.89647688  0.37138393  0.29612060  1  -0.327132  -0.16712  -0.003444  3.360851  -0.003
N  N65  1  0.62861961  0.10351902  0.20388766  1  -0.327225  -0.166999  0.003441  3.360904  0.003
O  O66  1  0.27621646  0.53271253  0.36995364  1  -0.562292  -0.702084  -0.054796  2.267756  -0.058
O  O67  1  0.46726407  0.72376383  0.13003651  1  -0.562366  -0.702128  0.054804  2.267563  0.058
O  O68  1  0.72377593  0.46727997  0.63004491  1  -0.562309  -0.702105  -0.054798  2.267649  -0.058
O  O69  1  0.53274965  0.27623834  0.86996679  1  -0.562312  -0.702042  0.054803  2.267648  0.058
