# generated using pymatgen
data_Cu2H24C19(NO)6
_symmetry_space_group_name_H-M   'P 1'
_cell_length_a   13.53314651
_cell_length_b   13.53338179
_cell_length_c   14.95516988
_cell_angle_alpha   90.00065994
_cell_angle_beta   90.00171552
_cell_angle_gamma   90.00651517
_symmetry_Int_Tables_number   1
_chemical_formula_structural   Cu2H24C19(NO)6
_chemical_formula_sum   'Cu8 H96 C76 N24 O24'
_cell_volume   2739.02795744
_cell_formula_units_Z   4
loop_
 _symmetry_equiv_pos_site_id
 _symmetry_equiv_pos_as_xyz
  1  'x, y, z'
loop_
 _atom_site_type_symbol
 _atom_site_label
 _atom_site_symmetry_multiplicity
 _atom_site_fract_x
 _atom_site_fract_y
 _atom_site_fract_z
 _atom_site_occupancy
 _atom_site_pbe_bader_charge
 _atom_site_pbe_bader_spin_density
 _atom_site_pbe_cm5_charge
 _atom_site_pbe_ddec_charge
 _atom_site_pbe_ddec_spin_density
 _atom_site_pbe_ddec_sum_bond_order
 _atom_site_pbe_magmom
Cu  Cu0  1  0.47651860  0.20549629  0.03512782  1  1.028362  -0.47086  0.733952  0.711598  -0.603644  2.398512  -0.469
Cu  Cu1  1  0.52348663  0.79451456  0.53510779  1  1.028097  -0.469299  0.733772  0.71146  -0.601638  2.399001  -0.467
Cu  Cu2  1  0.29438723  0.97688969  0.28498143  1  1.001198  0.000738  0.718276  0.68388  0.000927  2.408453  0.001
Cu  Cu3  1  0.70551323  0.02346719  0.78514151  1  1.02831  0.469877  0.734151  0.712141  0.602354  2.398769  0.468
Cu  Cu4  1  0.02318167  0.70547972  0.21503331  1  1.00054  -0.000735  0.71796  0.683677  -0.000923  2.407631  -0.001
Cu  Cu5  1  0.97653245  0.29445951  0.71486187  1  1.028266  -0.469878  0.734135  0.711864  -0.602335  2.399146  -0.468
Cu  Cu6  1  0.20548383  0.47652474  0.96488899  1  1.02831  0.469302  0.733783  0.711482  0.601631  2.399118  0.467
Cu  Cu7  1  0.79452749  0.52349454  0.46487815  1  1.028475  0.470849  0.733975  0.711795  0.603636  2.398133  0.469
H  H8  1  0.39114931  0.20871800  0.80478159  1  0.056214  -0.001042  0.113702  0.077149  -0.00049  0.961095  -0.001
H  H9  1  0.60891804  0.79123348  0.30478323  1  0.056397  -0.001034  0.113657  0.077016  -0.000488  0.961158  -0.001
H  H10  1  0.29139992  0.89102185  0.05446200  1  0.055629  7e-06  0.113669  0.076753  4e-06  0.962135  0.0
H  H11  1  0.70876482  0.10892349  0.55479624  1  0.056658  0.001044  0.113726  0.077089  0.000491  0.960996  0.001
H  H12  1  0.10901641  0.70867522  0.44553137  1  0.056804  -8e-06  0.113739  0.076806  -4e-06  0.962218  0.0
H  H13  1  0.89108958  0.29126401  0.94520378  1  0.056337  -0.001045  0.113711  0.07703  -0.000491  0.961097  -0.001
H  H14  1  0.20875520  0.39109570  0.19521562  1  0.056256  0.001033  0.113658  0.077061  0.000487  0.961137  0.001
H  H15  1  0.79129523  0.60884256  0.69522097  1  0.056205  0.001042  0.113694  0.077035  0.00049  0.961162  0.001
H  H16  1  0.48040635  0.09400590  0.21044660  1  0.57714  -0.000161  0.320286  0.275823  -6.6e-05  0.999904  0.0
H  H17  1  0.51959212  0.90602861  0.71038149  1  0.577512  -0.00017  0.320096  0.275905  4e-05  1.000609  0.0
H  H18  1  0.40580492  0.98033530  0.46048615  1  0.57963  1.1e-05  0.31998  0.27572  -0.000105  1.000716  0.0
H  H19  1  0.59404369  0.01958415  0.96042987  1  0.57794  0.000171  0.320039  0.275935  -3.6e-05  1.000465  0.0
H  H20  1  0.01962042  0.59417362  0.03943254  1  0.578833  -1.2e-05  0.320051  0.275768  0.000104  1.000751  0.0
H  H21  1  0.98042190  0.40593851  0.53959201  1  0.578123  -0.00017  0.320032  0.275666  3.6e-05  1.000906  0.0
H  H22  1  0.09398749  0.48040767  0.78960363  1  0.577731  0.00017  0.320083  0.27599  -4e-05  1.000548  0.0
H  H23  1  0.90601433  0.51958943  0.28959711  1  0.57736  0.000161  0.320245  0.275782  6.6e-05  1.000202  0.0
H  H24  1  0.55852221  0.01891618  0.34968273  1  0.102816  4e-05  0.100435  0.148928  5.3e-05  1.014096  0.0
H  H25  1  0.44147274  0.98108537  0.84965975  1  0.102946  1.2e-05  0.100375  0.148848  2.9e-05  1.014078  0.0
H  H26  1  0.48111867  0.05856495  0.59966634  1  0.102008  -5e-05  0.100259  0.148609  -5.8e-05  1.014189  0.0
H  H27  1  0.51892490  0.94143342  0.09969050  1  0.102533  -2e-06  0.100268  0.14854  -1.1e-05  1.01427  0.0
H  H28  1  0.94140272  0.51887489  0.90030613  1  0.102422  5e-05  0.100198  0.148538  5.8e-05  1.014015  0.0
H  H29  1  0.05854735  0.48106598  0.40033643  1  0.102337  2e-06  0.100258  0.1485  1.1e-05  1.014198  0.0
H  H30  1  0.01891470  0.55853154  0.65034014  1  0.10297  -1.2e-05  0.100385  0.148859  -2.9e-05  1.01409  0.0
H  H31  1  0.98108030  0.44147856  0.15032414  1  0.102801  -4e-05  0.100449  0.148963  -5.3e-05  1.013997  0.0
H  H32  1  0.64710261  0.09704023  0.40043401  1  0.050491  0.000252  0.093737  0.129664  0.000173  1.030735  0.0
H  H33  1  0.35290954  0.90295015  0.90040781  1  0.0506  9e-05  0.093528  0.129315  4.5e-05  1.030882  0.0
H  H34  1  0.40302223  0.14712776  0.65044350  1  0.0505  -0.000157  0.093512  0.129213  -0.000125  1.031118  0.0
H  H35  1  0.59703853  0.85284761  0.15043208  1  0.050594  -0.000257  0.093716  0.129534  -0.000177  1.030683  0.0
H  H36  1  0.85284155  0.59696161  0.84949414  1  0.050369  0.000157  0.093616  0.129317  0.000125  1.030736  0.0
H  H37  1  0.14713418  0.40296235  0.34958019  1  0.050907  0.000257  0.093753  0.129542  0.000177  1.030771  0.0
H  H38  1  0.09704929  0.64709150  0.59959065  1  0.050533  -9e-05  0.093506  0.129292  -4.5e-05  1.030903  0.0
H  H39  1  0.90295955  0.35289874  0.09957428  1  0.050642  -0.000252  0.093718  0.129613  -0.000173  1.030815  0.0
H  H40  1  0.68638440  0.99452209  0.33673817  1  0.042991  -4.3e-05  0.096772  0.137927  -2.4e-05  0.985984  0.0
H  H41  1  0.31360864  0.00547634  0.83671761  1  0.042891  -6e-05  0.096765  0.137898  -3.4e-05  0.985885  0.0
H  H42  1  0.50547113  0.18641752  0.58667584  1  0.042735  -8e-06  0.096723  0.137697  -1e-06  0.986125  0.0
H  H43  1  0.49453358  0.81357108  0.08672275  1  0.042523  3.3e-05  0.096733  0.13773  1.7e-05  0.985998  0.0
H  H44  1  0.81354584  0.49449759  0.91327971  1  0.041825  8e-06  0.096698  0.137758  1e-06  0.986148  0.0
H  H45  1  0.18642017  0.50546561  0.41330103  1  0.042801  -3.3e-05  0.096777  0.137778  -1.7e-05  0.985973  0.0
H  H46  1  0.99452457  0.68639181  0.66327798  1  0.042945  6e-05  0.096783  0.137925  3.4e-05  0.985842  0.0
H  H47  1  0.00547529  0.31361772  0.16327434  1  0.04304  4.3e-05  0.096799  0.137952  2.4e-05  0.98594  0.0
H  H48  1  0.65532699  0.28945726  0.01537898  1  0.060019  0.000313  0.093184  0.122778  0.000257  1.033286  0.0
H  H49  1  0.34466428  0.71054964  0.51536928  1  0.059892  0.000321  0.093217  0.122837  0.000261  1.033305  0.0
H  H50  1  0.21043952  0.15522172  0.26546905  1  0.062114  -1.2e-05  0.092938  0.122666  -1.2e-05  1.034023  0.0
H  H51  1  0.78950534  0.84470782  0.76541663  1  0.061113  -0.000321  0.093144  0.122608  -0.000264  1.033406  0.0
H  H52  1  0.84481905  0.78951517  0.23449634  1  0.062746  1.2e-05  0.092804  0.122529  1.2e-05  1.033949  0.0
H  H53  1  0.15531026  0.21046940  0.73459198  1  0.061141  0.000321  0.093258  0.122734  0.000263  1.033348  0.0
H  H54  1  0.28945337  0.65533787  0.98463272  1  0.059866  -0.000321  0.093255  0.12292  -0.000261  1.033305  0.0
H  H55  1  0.71054088  0.34467205  0.48462911  1  0.059803  -0.000313  0.093271  0.122981  -0.000256  1.033197  0.0
H  H56  1  0.77275387  0.23755540  0.03809552  1  0.037514  0.000264  0.096244  0.138806  0.000166  0.999889  0.0
H  H57  1  0.22721155  0.76242298  0.53811929  1  0.037017  0.000167  0.096173  0.138466  7.6e-05  1.000002  0.0
H  H58  1  0.26240936  0.27265519  0.28813945  1  0.039272  -0.000101  0.096177  0.138814  -9.1e-05  0.999974  0.0
H  H59  1  0.73758576  0.72725470  0.78804896  1  0.037442  -0.000259  0.096186  0.138751  -0.000163  1.000008  0.0
H  H60  1  0.72737445  0.73757676  0.21185682  1  0.039684  0.000101  0.096185  0.138809  9.1e-05  0.999864  0.0
H  H61  1  0.27274820  0.26240531  0.71194950  1  0.037277  0.000259  0.096178  0.138774  0.000163  1.000105  0.0
H  H62  1  0.23757447  0.77278805  0.96188532  1  0.03696  -0.000167  0.096189  0.13855  -7.6e-05  0.999924  0.0
H  H63  1  0.76243971  0.22724523  0.46191265  1  0.037517  -0.000264  0.096255  0.138792  -0.000166  0.999975  0.0
H  H64  1  0.73382546  0.34531968  0.09705777  1  0.03688  0.00013  0.094937  0.134979  5.5e-05  0.998019  0.0
H  H65  1  0.26617738  0.65466093  0.59704470  1  0.036526  0.00012  0.095055  0.135171  5e-05  0.997825  0.0
H  H66  1  0.15455221  0.23386090  0.34704250  1  0.04404  -3e-06  0.094931  0.134969  -1e-06  0.998679  0.0
H  H67  1  0.84533034  0.76614653  0.84706834  1  0.037005  -0.000134  0.094903  0.13493  -5.9e-05  0.99807  0.0
H  H68  1  0.76617103  0.84542378  0.15295453  1  0.044073  3e-06  0.094876  0.134824  1e-06  0.998552  0.0
H  H69  1  0.23386840  0.15465286  0.65294139  1  0.045414  0.000134  0.094965  0.135067  5.9e-05  0.997938  0.0
H  H70  1  0.34533705  0.73382941  0.90295846  1  0.036989  -0.00012  0.095063  0.135201  -5e-05  0.997893  0.0
H  H71  1  0.65467665  0.26617726  0.40295051  1  0.03671  -0.00013  0.094954  0.135069  -5.5e-05  0.997982  0.0
H  H72  1  0.44115701  0.38582500  0.78367946  1  0.065738  0.000208  0.094027  0.138805  0.000172  0.999249  0.0
H  H73  1  0.55886014  0.61413286  0.28366786  1  0.065468  0.000218  0.094063  0.138793  0.000178  0.999035  0.0
H  H74  1  0.11418126  0.94125334  0.03360486  1  0.062847  3e-06  0.094096  0.139018  1e-06  0.999818  0.0
H  H75  1  0.88582465  0.05881143  0.53366789  1  0.066014  -0.000213  0.093887  0.138631  -0.000176  0.999527  0.0
H  H76  1  0.05875249  0.88585954  0.46640065  1  0.067974  -3e-06  0.094169  0.139275  -2e-06  0.999481  0.0
H  H77  1  0.94120790  0.11419891  0.96633269  1  0.065686  0.000212  0.093881  0.138663  0.000175  0.999751  0.0
H  H78  1  0.38586650  0.44113849  0.21632937  1  0.065458  -0.000218  0.094062  0.138773  -0.000178  0.999031  0.0
H  H79  1  0.61418388  0.55884068  0.71632272  1  0.065768  -0.000208  0.094018  0.138783  -0.000172  0.999251  0.0
H  H80  1  0.52647230  0.30294779  0.73060154  1  0.053021  -0.000715  0.090644  0.122884  -0.000384  1.020667  0.0
H  H81  1  0.47355048  0.69704043  0.23061391  1  0.053018  -0.000707  0.090619  0.12273  -0.000383  1.020832  0.0
H  H82  1  0.19712195  0.02669888  0.98074259  1  0.053125  -2e-06  0.091027  0.123702  -7e-06  1.019958  0.0
H  H83  1  0.80293646  0.97344400  0.48063569  1  0.052455  0.000707  0.090517  0.122801  0.000378  1.020527  0.0
H  H84  1  0.97332827  0.80291045  0.51924717  1  0.053025  2e-06  0.090942  0.123556  7e-06  1.020071  0.0
H  H85  1  0.02656411  0.19709576  0.01935991  1  0.052713  -0.000706  0.090515  0.122815  -0.000378  1.020559  0.0
H  H86  1  0.30295803  0.52644169  0.26938727  1  0.053087  0.000706  0.090557  0.122613  0.000383  1.020849  0.0
H  H87  1  0.69705938  0.47351894  0.76939735  1  0.053114  0.000715  0.090607  0.122872  0.000384  1.020697  0.0
H  H88  1  0.55785799  0.36013254  0.83398658  1  0.027057  3.8e-05  0.090291  0.125484  3.4e-05  0.99665  0.0
H  H89  1  0.44218003  0.63985404  0.33399750  1  0.027227  3.8e-05  0.090187  0.125275  3.3e-05  0.996962  0.0
H  H90  1  0.14006893  0.05773908  0.08425266  1  0.027609  -2.9e-05  0.090923  0.126204  -1.7e-05  0.996274  0.0
H  H91  1  0.86008275  0.94217412  0.58407278  1  0.026457  -1.1e-05  0.090254  0.125288  -1.6e-05  0.996875  0.0
H  H92  1  0.94229637  0.85995659  0.41575107  1  0.028184  2.9e-05  0.090889  0.126293  1.7e-05  0.996475  0.0
H  H93  1  0.05782933  0.13994310  0.91592424  1  0.026004  1.1e-05  0.090329  0.125407  1.6e-05  0.996859  0.0
H  H94  1  0.36014658  0.55782520  0.16600857  1  0.02719  -3.8e-05  0.0902  0.12524  -3.3e-05  0.996975  0.0
H  H95  1  0.63987110  0.44214446  0.66601076  1  0.027197  -3.8e-05  0.090276  0.125458  -3.4e-05  0.996724  0.0
H  H96  1  0.82703557  0.13701990  0.30413952  1  0.053092  -0.000313  0.099551  0.098887  -0.000164  0.969147  0.0
H  H97  1  0.17296230  0.86300251  0.80413010  1  0.047951  -0.000312  0.099509  0.098756  -0.000162  0.969203  0.0
H  H98  1  0.36301800  0.32705329  0.55411667  1  0.047875  1.3e-05  0.099478  0.098868  8e-06  0.969281  0.0
H  H99  1  0.63699598  0.67293194  0.05415127  1  0.052364  0.0003  0.099481  0.098902  0.000157  0.968937  0.0
H  H100  1  0.67289392  0.63697525  0.94586528  1  0.052206  -1.3e-05  0.099506  0.099  -8e-06  0.969024  0.0
H  H101  1  0.32705839  0.36297284  0.44584479  1  0.052922  -0.0003  0.099516  0.098891  -0.000157  0.969065  0.0
H  H102  1  0.13700304  0.82704128  0.69586653  1  0.047971  0.000312  0.09951  0.098782  0.000162  0.969188  0.0
H  H103  1  0.86298016  0.17296718  0.19587061  1  0.053182  0.000313  0.09952  0.098891  0.000164  0.96921  0.0
C  C104  1  0.45152208  0.24056738  0.84524952  1  0.353112  -0.00111  0.007145  0.073804  -0.001117  3.915342  0.0
C  C105  1  0.54852888  0.75940751  0.34524317  1  0.352409  -0.001044  0.007158  0.073839  -0.001077  3.91531  0.0
C  C106  1  0.25961023  0.95130900  0.09503447  1  0.354271  3e-05  0.007742  0.072684  9e-06  3.912362  0.0
C  C107  1  0.74056619  0.04852011  0.59524591  1  0.352324  0.001106  0.007212  0.07406  0.00111  3.915105  0.0
C  C108  1  0.04872928  0.74041969  0.40495411  1  0.352925  -3e-05  0.00777  0.072978  -9e-06  3.913484  0.0
C  C109  1  0.95148621  0.25945622  0.90474752  1  0.352709  -0.001106  0.007411  0.074524  -0.001109  3.914832  0.0
C  C110  1  0.24059165  0.45147758  0.15475277  1  0.352726  0.001045  0.007147  0.073793  0.001077  3.915398  0.0
C  C111  1  0.75944413  0.54847272  0.65475194  1  0.353407  0.00111  0.007226  0.074183  0.001116  3.915078  0.0
C  C112  1  0.70642485  0.17190916  0.21754661  1  0.030164  -0.001727  -0.039641  -0.133149  -0.001181  3.97711  -0.001
C  C113  1  0.29356129  0.82808775  0.71752939  1  0.029642  -0.001701  -0.039678  -0.133112  -0.001159  3.977711  -0.001
C  C114  1  0.32805849  0.20640981  0.46757359  1  0.028011  -1.7e-05  -0.039762  -0.133022  -6e-06  3.978666  0.0
C  C115  1  0.67188642  0.79353635  0.96753350  1  0.029986  0.001717  -0.039406  -0.132558  0.001176  3.976619  0.001
C  C116  1  0.79357408  0.67192913  0.03240706  1  0.029283  1.8e-05  -0.039808  -0.133001  6e-06  3.978842  0.0
C  C117  1  0.20645544  0.32807725  0.53246519  1  0.028812  -0.001717  -0.039412  -0.132666  -0.001176  3.977246  -0.001
C  C118  1  0.17191263  0.70644203  0.78246987  1  0.029599  0.001702  -0.039651  -0.133096  0.001159  3.977453  0.001
C  C119  1  0.82808674  0.29358157  0.28246356  1  0.029265  0.001727  -0.039749  -0.13343  0.001181  3.977358  0.001
C  C120  1  0.52957489  0.15926850  0.85728613  1  1.566778  -0.001002  0.215661  0.572547  -0.001761  4.117793  -0.001
C  C121  1  0.47045725  0.84071099  0.35723504  1  1.567264  -0.000733  0.215487  0.572138  -0.00155  4.11843  -0.001
C  C122  1  0.34084953  0.02945099  0.10700991  1  1.568098  0.000261  0.215315  0.572191  0.000207  4.119813  0.0
C  C123  1  0.65921719  0.97051349  0.60725750  1  1.567611  0.000998  0.215212  0.571957  0.001757  4.118265  0.001
C  C124  1  0.97059433  0.65917158  0.39308667  1  1.568631  -0.00026  0.215028  0.571389  -0.000206  4.121409  0.0
C  C125  1  0.02950845  0.34080023  0.89272356  1  1.566064  -0.00101  0.215222  0.572102  -0.001759  4.118121  -0.001
C  C126  1  0.15929477  0.52955019  0.14275689  1  1.567305  0.000733  0.215503  0.572012  0.001551  4.11843  0.001
C  C127  1  0.84073692  0.47041252  0.64271867  1  1.56555  0.001003  0.215753  0.572684  0.001761  4.11801  0.001
C  C128  1  0.34718079  0.33224948  0.95026378  1  1.390402  -0.001467  0.210886  0.361185  -0.000779  4.209375  -0.003
C  C129  1  0.65283522  0.66775040  0.45028671  1  1.353564  -0.001508  0.21073  0.361177  -0.000815  4.209768  -0.003
C  C130  1  0.16758755  0.84737994  0.20030531  1  1.390304  -4e-06  0.211537  0.357974  -6e-06  4.215993  0.0
C  C131  1  0.83233817  0.15270912  0.70028428  1  1.3886  0.001478  0.211179  0.361449  0.000779  4.210529  0.003
C  C132  1  0.15253050  0.83242928  0.29963857  1  1.355663  3e-06  0.211377  0.357754  6e-06  4.216521  0.0
C  C133  1  0.84727067  0.16766399  0.79972309  1  1.353679  -0.001477  0.211067  0.361531  -0.00078  4.210026  -0.003
C  C134  1  0.33225003  0.34717486  0.04971487  1  1.35384  0.001506  0.210685  0.361244  0.000813  4.209646  0.003
C  C135  1  0.66776085  0.65281770  0.54973739  1  1.390499  0.001466  0.210953  0.361452  0.000778  4.209423  0.003
C  C136  1  0.63173607  0.11563394  0.25785912  1  0.397139  0.000595  0.097167  0.191063  0.000179  3.99464  0.0
C  C137  1  0.36825880  0.88436422  0.75783449  1  0.397276  0.000595  0.09695  0.190749  0.000203  3.995146  0.0
C  C138  1  0.38428721  0.13170909  0.50789648  1  0.395797  -0.00016  0.096668  0.189877  -9.2e-05  3.996375  0.0
C  C139  1  0.61565060  0.86824081  0.00785296  1  0.397552  -0.000604  0.096911  0.190569  -0.000194  3.994821  0.0
C  C140  1  0.86826194  0.61569781  0.99207190  1  0.396066  0.00016  0.096764  0.190239  9.2e-05  3.996314  0.0
C  C141  1  0.13175620  0.38433068  0.49215400  1  0.397821  0.000605  0.096707  0.190555  0.000194  3.994982  0.0
C  C142  1  0.11563773  0.63174401  0.74216493  1  0.397709  -0.000595  0.096954  0.190764  -0.000202  3.994927  0.0
C  C143  1  0.88436179  0.36826947  0.24214889  1  0.397683  -0.000596  0.097183  0.191226  -0.000179  3.994546  0.0
C  C144  1  0.66366113  0.21086101  0.13883900  1  0.448655  -0.000388  0.094838  0.207608  -0.000674  4.009988  -0.001
C  C145  1  0.33632388  0.78913120  0.63882789  1  0.449029  -0.00038  0.094895  0.207594  -0.000663  4.009969  -0.001
C  C146  1  0.28895002  0.16359591  0.38893783  1  0.448412  -4.1e-05  0.094697  0.206582  -2.4e-05  4.010305  0.0
C  C147  1  0.71086592  0.83630564  0.88883638  1  0.448544  0.000426  0.095001  0.207876  0.000695  4.009602  0.001
C  C148  1  0.83641539  0.71101690  0.11104018  1  0.446764  4.1e-05  0.094756  0.206592  2.3e-05  4.010809  0.0
C  C149  1  0.16369581  0.28910945  0.61117030  1  0.449762  -0.000424  0.09512  0.208034  -0.000696  4.009881  -0.001
C  C150  1  0.21087214  0.66368012  0.86117139  1  0.449374  0.000381  0.095078  0.207919  0.000663  4.010021  0.001
C  C151  1  0.78913944  0.33634153  0.36117249  1  0.448993  0.000388  0.095049  0.207973  0.000674  4.009689  0.001
C  C152  1  0.81029286  0.18971127  0.25000243  1  8.2e-05  -0.0  -0.144656  -0.144655  -0.0  4.016454  0.0
C  C153  1  0.18969953  0.81030379  0.74999961  1  0.010635  0.0  -0.14462  -0.14458  0.0  4.01667  0.0
C  C154  1  0.31031592  0.31029435  0.49999479  1  0.005911  -0.000609  -0.144653  -0.14494  -0.000419  4.016864  0.0
C  C155  1  0.68967514  0.68966922  0.99999689  1  0.001394  0.000609  -0.144608  -0.145141  0.000419  4.01633  0.0
C  C156  1  0.63081542  0.05369055  0.34021425  1  -0.071523  -0.00015  -0.233461  -0.425169  -3.5e-05  3.972112  0.0
C  C157  1  0.36918069  0.94630793  0.84018962  1  -0.071457  -0.000368  -0.233365  -0.424792  -0.000246  3.971928  0.0
C  C158  1  0.44631253  0.13083162  0.59019394  1  -0.070664  -0.000198  -0.233615  -0.424589  -0.000182  3.972692  0.0
C  C159  1  0.55370634  0.86915259  0.09020692  1  -0.071297  0.00015  -0.23344  -0.424665  2.9e-05  3.972039  0.0
C  C160  1  0.86912602  0.55367219  0.90975557  1  -0.071319  0.000198  -0.233683  -0.424828  0.000182  3.971902  0.0
C  C161  1  0.13083766  0.44629170  0.40980753  1  -0.071828  -0.00015  -0.233397  -0.42457  -2.9e-05  3.971885  0.0
C  C162  1  0.05369359  0.63082076  0.65981063  1  -0.071851  0.000368  -0.233396  -0.424826  0.000246  3.972055  0.0
C  C163  1  0.94630690  0.36918724  0.15979560  1  -0.071439  0.00015  -0.233441  -0.425176  3.5e-05  3.972044  0.0
C  C164  1  0.70885486  0.27460478  0.06880262  1  -0.029223  8.6e-05  -0.232165  -0.417622  0.000141  3.972345  0.0
C  C165  1  0.29113448  0.72537842  0.56879364  1  -0.029094  3.1e-05  -0.232342  -0.417768  8.6e-05  3.972304  0.0
C  C166  1  0.22526632  0.20880596  0.31885976  1  -0.040354  -6.9e-05  -0.232781  -0.418265  -6.3e-05  3.973711  0.0
C  C167  1  0.77463154  0.79113977  0.81880237  1  -0.030724  -9.3e-05  -0.232302  -0.417692  -0.000147  3.972332  0.0
C  C168  1  0.79122225  0.77469509  0.18111400  1  -0.040804  6.9e-05  -0.232763  -0.418095  6.3e-05  3.973413  0.0
C  C169  1  0.20886909  0.22534792  0.68120121  1  -0.039403  9.3e-05  -0.232533  -0.418102  0.000147  3.972554  0.0
C  C170  1  0.27462084  0.70886876  0.93120981  1  -0.029438  -3.1e-05  -0.232468  -0.418077  -8.5e-05  3.972414  0.0
C  C171  1  0.72539159  0.29114566  0.43120738  1  -0.028995  -8.6e-05  -0.232368  -0.418049  -0.000141  3.972376  0.0
C  C172  1  0.49687859  0.32832302  0.79489944  1  -0.080051  -0.001307  -0.240026  -0.399284  -0.000845  3.911412  -0.001
C  C173  1  0.50315888  0.67164976  0.29490165  1  -0.080058  -0.001293  -0.240097  -0.399165  -0.000839  3.911433  -0.001
C  C174  1  0.17175511  0.99686658  0.04495452  1  -0.075955  -2.9e-05  -0.240343  -0.400645  -3.1e-05  3.912311  0.0
C  C175  1  0.82830290  0.00310671  0.54491711  1  -0.078999  0.001305  -0.239781  -0.398905  0.000849  3.911493  0.001
C  C176  1  0.00317068  0.82826465  0.45503496  1  -0.081702  2.9e-05  -0.240335  -0.401023  3.1e-05  3.912213  0.0
C  C177  1  0.99690313  0.17172569  0.95508078  1  -0.07818  -0.001306  -0.239977  -0.39932  -0.000849  3.911839  -0.001
C  C178  1  0.32835071  0.49684184  0.20509798  1  -0.080221  0.001292  -0.239987  -0.398903  0.000839  3.911281  0.001
C  C179  1  0.67168379  0.50311723  0.70510167  1  -0.080081  0.001308  -0.24001  -0.399367  0.000846  3.911389  0.001
N  N180  1  0.41565457  0.26662517  0.93314720  1  -1.195864  -0.076632  -0.412681  -0.411612  -0.049963  3.621835  -0.063
N  N181  1  0.58436457  0.73336267  0.43315091  1  -1.196014  -0.076419  -0.41263  -0.411477  -0.049835  3.62221  -0.063
N  N182  1  0.23384844  0.91513237  0.18301956  1  -1.187806  0.000189  -0.407123  -0.398733  0.000116  3.611392  0.0
N  N183  1  0.76662275  0.08432029  0.68316388  1  -1.195466  0.076468  -0.412722  -0.411765  0.049862  3.622704  0.063
N  N184  1  0.08486796  0.76612282  0.31698716  1  -1.18879  -0.000186  -0.407155  -0.398294  -0.000114  3.612544  0.0
N  N185  1  0.91566973  0.23337958  0.81683951  1  -1.195257  -0.076449  -0.412732  -0.411823  -0.049851  3.62259  -0.063
N  N186  1  0.26663014  0.41564045  0.06684688  1  -1.19621  0.076401  -0.412611  -0.411484  0.049821  3.622191  0.063
N  N187  1  0.73338574  0.58434494  0.56685842  1  -1.196483  0.076632  -0.41278  -0.411753  0.049963  3.621661  0.063
N  N188  1  0.55104635  0.12368022  0.20468916  1  -0.867188  -0.001292  -0.281988  -0.133373  -0.000598  3.678384  0.0
N  N189  1  0.44894084  0.87631357  0.70466396  1  -0.866637  -0.000903  -0.281902  -0.133205  -0.000342  3.67796  0.0
N  N190  1  0.37603532  0.05095168  0.45481397  1  -0.868038  -0.000452  -0.282374  -0.133789  -0.000287  3.677743  0.0
N  N191  1  0.62372369  0.94893223  0.95468860  1  -0.867571  0.000904  -0.281948  -0.133183  0.000349  3.678063  0.0
N  N192  1  0.94902691  0.62394709  0.04514765  1  -0.868028  0.00045  -0.282555  -0.134241  0.000286  3.678919  0.0
N  N193  1  0.05107029  0.37625675  0.54532310  1  -0.867744  -0.000904  -0.281886  -0.133116  -0.00035  3.678259  0.0
N  N194  1  0.12369275  0.55106136  0.79533419  1  -0.867117  0.000903  -0.281856  -0.13331  0.000341  3.677772  0.0
N  N195  1  0.87631961  0.44895502  0.29532078  1  -0.867286  0.001291  -0.282  -0.13332  0.000597  3.678371  0.0
N  N196  1  0.56924815  0.18057936  0.13239698  1  -0.735128  -0.036363  -0.2924  -0.245225  -0.025082  3.584727  -0.031
N  N197  1  0.43073221  0.81941499  0.63237804  1  -0.735848  -0.036385  -0.292418  -0.24525  -0.025087  3.584286  -0.031
N  N198  1  0.31904102  0.06912304  0.38257472  1  -0.733684  9.7e-05  -0.292136  -0.241159  5.5e-05  3.585304  0.0
N  N199  1  0.68061584  0.93072153  0.88239789  1  -0.735511  0.036409  -0.292756  -0.245914  0.025101  3.585056  0.031
N  N200  1  0.93088922  0.68092119  0.11740766  1  -0.731781  -9.7e-05  -0.291848  -0.240958  -5.4e-05  3.584496  0.0
N  N201  1  0.06928057  0.31936190  0.61761043  1  -0.735597  -0.036423  -0.292752  -0.245723  -0.02511  3.584895  -0.031
N  N202  1  0.18059306  0.56927336  0.86762043  1  -0.735905  0.036389  -0.292617  -0.245446  0.025089  3.584713  0.031
N  N203  1  0.81942686  0.43075207  0.36761532  1  -0.735402  0.036362  -0.292459  -0.24551  0.025082  3.584391  0.031
O  O204  1  0.29639117  0.38308793  0.89464245  1  -1.087033  0.074907  -0.305287  -0.459178  0.048658  2.267696  0.068
O  O205  1  0.70363925  0.61692529  0.39466222  1  -1.086494  0.075407  -0.305189  -0.459322  0.048991  2.26817  0.068
O  O206  1  0.11616115  0.79727610  0.14483925  1  -1.072745  -0.000296  -0.296223  -0.445078  -0.000179  2.270246  0.0
O  O207  1  0.88321522  0.20346763  0.64465765  1  -1.086108  -0.075277  -0.305631  -0.459424  -0.048879  2.268352  -0.068
O  O208  1  0.20249465  0.88398056  0.35511532  1  -1.07337  0.0003  -0.296178  -0.445117  0.000182  2.270627  0.0
O  O209  1  0.79648746  0.11680499  0.85534437  1  -1.086191  0.075251  -0.30551  -0.459446  0.048864  2.268165  0.068
O  O210  1  0.38307955  0.29638149  0.10534154  1  -1.086605  -0.075403  -0.305202  -0.45935  -0.048988  2.268186  -0.068
O  O211  1  0.61692135  0.70361178  0.60534984  1  -1.086865  -0.074898  -0.30528  -0.459307  -0.048654  2.267907  -0.068
O  O212  1  0.56362038  0.11730857  0.78959941  1  -1.175317  -0.022481  -0.316042  -0.542545  -0.014301  2.25588  -0.018
O  O213  1  0.43642652  0.88267079  0.28956790  1  -1.174727  -0.022009  -0.315597  -0.540333  -0.014127  2.255308  -0.018
O  O214  1  0.38286939  0.06336465  0.03929494  1  -1.174564  0.000785  -0.315519  -0.542062  0.000384  2.254941  0.0
O  O215  1  0.61727267  0.93647410  0.53955910  1  -1.175682  0.022439  -0.315943  -0.542176  0.014275  2.256171  0.018
O  O216  1  0.93667634  0.61721014  0.46082644  1  -1.174353  -0.000786  -0.31534  -0.541675  -0.000385  2.25563  0.0
O  O217  1  0.06353730  0.38276181  0.96041588  1  -1.175734  -0.022427  -0.315886  -0.542301  -0.014266  2.256279  -0.018
O  O218  1  0.11734601  0.56357003  0.21043677  1  -1.174845  0.022  -0.315672  -0.540205  0.014121  2.255813  0.018
O  O219  1  0.88269013  0.43636398  0.71040201  1  -1.174456  0.022476  -0.316118  -0.542636  0.014296  2.256026  0.018
O  O220  1  0.55687547  0.13922162  0.93846701  1  -1.118159  -0.07992  -0.317012  -0.530449  -0.051901  2.361912  -0.074
O  O221  1  0.44310246  0.86070348  0.43843613  1  -1.118143  -0.079855  -0.317157  -0.530838  -0.051841  2.361384  -0.074
O  O222  1  0.36060099  0.05697864  0.18812474  1  -1.116274  0.000482  -0.31526  -0.5259  0.000336  2.363105  0.0
O  O223  1  0.63914478  0.94323144  0.68844373  1  -1.118303  0.079843  -0.316555  -0.530013  0.051848  2.361598  0.073
O  O224  1  0.94307054  0.63932376  0.31199183  1  -1.116157  -0.000482  -0.315245  -0.525993  -0.000335  2.36306  0.0
O  O225  1  0.05680419  0.36084060  0.81153740  1  -1.117163  -0.079819  -0.316679  -0.530126  -0.051843  2.361561  -0.073
O  O226  1  0.13928929  0.55690755  0.06156477  1  -1.11825  0.079859  -0.317132  -0.530792  0.051843  2.361453  0.074
O  O227  1  0.86078480  0.44311546  0.56153283  1  -1.118105  0.079929  -0.316966  -0.530423  0.051907  2.361881  0.074
