# generated using pymatgen
data_Zn2H13C22Br3(NO4)2
_symmetry_space_group_name_H-M   'P 1'
_cell_length_a   9.70690567
_cell_length_b   11.26227012
_cell_length_c   11.12247445
_cell_angle_alpha   87.76570487
_cell_angle_beta   90.94652592
_cell_angle_gamma   107.93260528
_symmetry_Int_Tables_number   1
_chemical_formula_structural   Zn2H13C22Br3(NO4)2
_chemical_formula_sum   'Zn2 H13 C22 Br3 N2 O8'
_cell_volume   1155.96570449
_cell_formula_units_Z   1
loop_
 _symmetry_equiv_pos_site_id
 _symmetry_equiv_pos_as_xyz
  1  'x, y, z'
loop_
 _atom_site_type_symbol
 _atom_site_label
 _atom_site_symmetry_multiplicity
 _atom_site_fract_x
 _atom_site_fract_y
 _atom_site_fract_z
 _atom_site_occupancy
 _atom_site_pbe_bader_charge
 _atom_site_pbe_bader_spin_density
 _atom_site_pbe_cm5_charge
 _atom_site_pbe_ddec_charge
 _atom_site_pbe_ddec_spin_density
 _atom_site_pbe_ddec_sum_bond_order
 _atom_site_pbe_magmom
Zn  Zn0  1  0.35702338  0.48034614  0.50551352  1  1.290259  0  0.672004  0.832352  0  2.434862  0
Zn  Zn1  1  0.65564710  0.52700305  0.50715632  1  1.281409  0  0.663445  0.819831  0  2.39797  0
H  H2  1  0.62408916  0.12228317  0.50948689  1  0.106902  0  0.111014  0.122509  0  0.976657  0
H  H3  1  0.69847747  0.65157019  0.11781913  1  0.07339  0  0.104545  0.10866  0  1.000974  0
H  H4  1  0.70472950  0.65144217  0.89498612  1  0.093258  0  0.107037  0.112235  0  0.986394  0
H  H5  1  0.16535557  0.32432409  0.89407512  1  0.064228  0  0.094109  0.111592  0  0.999057  0
H  H6  1  0.27713204  0.22413437  0.89365142  1  0.070781  0  0.103353  0.124045  0  0.9671  0
H  H7  1  0.27926055  0.22017057  0.12099375  1  0.10947  0  0.110239  0.102774  0  0.953568  0
H  H8  1  0.85173621  0.43781975  0.67934186  1  0.143614  0  0.138243  0.121759  0  0.965446  0
H  H9  1  0.10493895  0.41911141  0.67700875  1  0.159382  0  0.136145  0.120066  0  0.977664  0
H  H10  1  0.14861235  0.54841585  0.22374448  1  0.1582  0  0.098233  0.103432  0  1.036351  0
H  H11  1  0.95864048  0.71434038  0.28417426  1  0.10624  0  0.114478  0.149762  0  0.958513  0
H  H12  1  0.89190467  0.56081071  0.22556261  1  0.110511  0  0.113724  0.148725  0  0.967512  0
H  H13  1  0.30422908  0.07252093  0.57704236  1  0.101585  0  0.097228  0.116251  0  1.029167  0
H  H14  1  0.69217260  0.94502849  0.47815689  1  0.086048  0  0.114743  0.144699  0  0.974735  0
C  C15  1  0.49940470  0.50297584  0.27117201  1  1.617248  0  0.216578  0.598376  0  4.180847  0
C  C16  1  0.92238417  0.47072768  0.60186407  1  0.50818  0  0.072034  0.055957  0  3.85006  0
C  C17  1  0.06214070  0.46032750  0.60048259  1  0.435751  0  0.069093  0.046587  0  3.854165  0
C  C18  1  0.57904561  0.74683034  0.50811533  1  1.59108  0  0.201273  0.64533  0  4.179981  0
C  C19  1  0.09736237  0.55376128  0.41587837  1  0.646753  0  0.140399  0.153673  0  3.860781  0
C  C20  1  0.12620369  0.60996996  0.28944308  1  -0.036259  0  -0.062812  -0.013798  0  3.722388  0
C  C21  1  0.96636302  0.61917663  0.29067350  1  -0.022367  0  -0.140591  -0.269478  0  3.808775  0
C  C22  1  0.50657461  0.50121372  0.74280185  1  1.534146  0  0.215787  0.6013  0  4.177428  0
C  C23  1  0.44307946  0.26043684  0.52757011  1  1.571673  0  0.2038  0.635195  0  4.175636  0
C  C24  1  0.59063514  0.88078852  0.51272543  1  0.047452  0  -0.096055  -0.280366  0  3.851312  0
C  C25  1  0.49207051  0.93321481  0.55213338  1  -0.139556  0  -0.005076  0.146751  0  3.974922  0
C  C26  1  0.49896296  0.50152823  0.13684032  1  -0.024057  0  -0.00679  -0.043462  0  3.956134  0
C  C27  1  0.41498752  0.12485953  0.55209029  1  -0.009996  0  -0.097293  -0.210313  0  3.899226  0
C  C28  1  0.51556613  0.06654844  0.53883554  1  -0.060655  0  -0.085355  -0.091837  0  4.017982  0
C  C29  1  0.39041969  0.41926835  0.06976485  1  -0.013147  0  -0.01535  -0.001571  0  3.897766  0
C  C30  1  0.61190545  0.58478779  0.06935497  1  0.022793  0  -0.086408  -0.112965  0  3.989148  0
C  C31  1  0.61556392  0.58469058  0.94365704  1  -0.114979  0  -0.079622  -0.091161  0  3.973295  0
C  C32  1  0.50589655  0.50095424  0.87706390  1  0.091215  0  -0.010864  -0.065036  0  3.964571  0
C  C33  1  0.39417346  0.41928099  0.94424154  1  -0.090048  0  -0.002408  0.074251  0  3.898467  0
C  C34  1  0.26110933  0.30622645  0.93448861  1  0.012315  0  -0.152473  -0.24051  0  3.879053  0
C  C35  1  0.26152618  0.30254310  0.07603520  1  -0.035419  0  -0.057341  0.041438  0  3.719501  0
C  C36  1  0.95705497  0.56221578  0.41638556  1  0.518212  0  0.151347  0.216793  0  3.860305  0
Br  Br37  1  0.27722594  0.77022846  0.27032619  1  -0.086259  0  -0.005113  -0.07897  0  1.295926  0
Br  Br38  1  0.31561055  0.83782818  0.62808692  1  -0.051973  0  0.02687  -0.056042  0  1.459218  0
Br  Br39  1  0.07848153  0.31010546  0.14651165  1  -0.16808  0  -0.046289  -0.151662  0  1.252876  0
N  N40  1  0.86619763  0.52096266  0.50752485  1  -1.199464  0  -0.28337  -0.173161  0  3.448494  0
N  N41  1  0.15241856  0.50056675  0.50525416  1  -1.218552  0  -0.280992  -0.163284  0  3.456167  0
O  O42  1  0.37702550  0.48052513  0.32153751  1  -1.156366  0  -0.31034  -0.53677  0  2.342565  0
O  O43  1  0.62204366  0.52643757  0.32377639  1  -1.161365  0  -0.314078  -0.545482  0  2.320969  0
O  O44  1  0.45274786  0.66832058  0.50941567  1  -1.179327  0  -0.322124  -0.578367  0  2.455666  0
O  O45  1  0.69706066  0.71995032  0.50035128  1  -1.13941  0  -0.328756  -0.541206  0  2.199586  0
O  O46  1  0.38285141  0.47289916  0.69195563  1  -1.154266  0  -0.313892  -0.54422  0  2.303949  0
O  O47  1  0.62902532  0.52939473  0.69069033  1  -1.163933  0  -0.318464  -0.552539  0  2.307483  0
O  O48  1  0.32951584  0.29479498  0.51639150  1  -1.140571  0  -0.32664  -0.538434  0  2.264729  0
O  O49  1  0.57363857  0.33162068  0.51987322  1  -1.186047  0  -0.327226  -0.573711  0  2.289234  0
