# generated using pymatgen
data_AgH6C7(N2O)2
_symmetry_space_group_name_H-M   'P 1'
_cell_length_a   7.52313043
_cell_length_b   7.84379968
_cell_length_c   8.34454202
_cell_angle_alpha   103.76114482
_cell_angle_beta   112.31150369
_cell_angle_gamma   105.22769354
_symmetry_Int_Tables_number   1
_chemical_formula_structural   AgH6C7(N2O)2
_chemical_formula_sum   'Ag2 H12 C14 N8 O4'
_cell_volume   406.90544171
_cell_formula_units_Z   2
loop_
 _symmetry_equiv_pos_site_id
 _symmetry_equiv_pos_as_xyz
  1  'x, y, z'
loop_
 _atom_site_type_symbol
 _atom_site_label
 _atom_site_symmetry_multiplicity
 _atom_site_fract_x
 _atom_site_fract_y
 _atom_site_fract_z
 _atom_site_occupancy
 _atom_site_pbe_bader_spin_density
 _atom_site_pbe_cm5_charge
 _atom_site_pbe_ddec_charge
 _atom_site_pbe_ddec_spin_density
 _atom_site_pbe_ddec_sum_bond_order
 _atom_site_pbe_magmom
Ag  Ag0  1  0.31283420  0.52370577  0.91719661  1  0  0.445801  0.325714  0  2.088568  0
Ag  Ag1  1  0.68716842  0.47629256  0.08280336  1  0  0.445797  0.325729  0  2.088563  0
H  H2  1  0.74519177  0.96671844  0.69324993  1  0  0.307213  0.290523  0  1.007726  0
H  H3  1  0.25481564  0.03328422  0.30675616  1  0  0.307227  0.290551  0  1.007723  0
H  H4  1  0.79047408  0.69205384  0.55077489  1  0  0.304065  0.285669  0  1.00789  0
H  H5  1  0.20951902  0.30794584  0.44921984  1  0  0.30409  0.285732  0  1.0078  0
H  H6  1  0.47251769  0.11220263  0.69858133  1  0  0.118086  0.11617  0  1.044612  0
H  H7  1  0.52748482  0.88779861  0.30142404  1  0  0.118065  0.116164  0  1.044531  0
H  H8  1  0.23465319  0.88898868  0.81404431  1  0  0.116189  0.119813  0  1.003551  0
H  H9  1  0.76535447  0.11101115  0.18596244  1  0  0.116185  0.119844  0  1.00347  0
H  H10  1  0.86767649  0.30700025  0.82639383  1  0  0.11392  0.115872  0  1.038618  0
H  H11  1  0.13232013  0.69299792  0.17359454  1  0  0.113928  0.115933  0  1.038579  0
H  H12  1  0.93074910  0.43206666  0.56407907  1  0  0.118778  0.114014  0  1.042714  0
H  H13  1  0.06924455  0.56793442  0.43591375  1  0  0.118772  0.114014  0  1.042623  0
C  C14  1  0.58876873  0.75727917  0.76955878  1  0  0.214613  0.227174  0  4.022563  0
C  C15  1  0.41123574  0.24272345  0.23044394  1  0  0.214591  0.227184  0  4.022546  0
C  C16  1  0.47837814  0.98678737  0.72982789  1  0  0.001751  -0.04158  0  3.933868  0
C  C17  1  0.52162822  0.01321956  0.27017880  1  0  0.001746  -0.04157  0  3.933903  0
C  C18  1  0.36149052  0.87459020  0.78776301  1  0  -0.006954  -0.04171  0  4.003821  0
C  C19  1  0.63851471  0.12541393  0.21224628  1  0  -0.006962  -0.041773  0  4.003945  0
C  C20  1  0.70095892  0.63487972  0.75893975  1  0  0.216521  0.234517  0  3.997691  0
C  C21  1  0.29904198  0.36512141  0.24105788  1  0  0.216549  0.234572  0  3.997545  0
C  C22  1  0.82602901  0.41485395  0.77936604  1  0  -0.016091  -0.057488  0  4.014043  0
C  C23  1  0.17396509  0.58514142  0.22062568  1  0  -0.016116  -0.057596  0  4.014168  0
C  C24  1  0.86349260  0.47919533  0.65091221  1  0  -0.001923  -0.035152  0  3.955045  0
C  C25  1  0.13650124  0.52080288  0.34907885  1  0  -0.001924  -0.035143  0  3.955027  0
C  C26  1  0.04324653  0.08831564  0.59265893  1  0  0.196744  0.467867  0  4.233561  0
C  C27  1  0.95674409  0.91168128  0.40734158  1  0  0.196732  0.467898  0  4.233428  0
N  N28  1  0.43054787  0.73155887  0.81149086  1  0  -0.368365  -0.296189  0  3.594152  0
N  N29  1  0.56945893  0.26844237  0.18851472  1  0  -0.368339  -0.296216  0  3.594351  0
N  N30  1  0.62040006  0.91092346  0.71901791  1  0  -0.373174  -0.235774  0  3.62002  0
N  N31  1  0.37960591  0.08907920  0.28098771  1  0  -0.373148  -0.235768  0  3.620104  0
N  N32  1  0.72646187  0.51356069  0.84740573  1  0  -0.367948  -0.284741  0  3.581177  0
N  N33  1  0.27353554  0.48643901  0.15259043  1  0  -0.367923  -0.284741  0  3.581282  0
N  N34  1  0.78507556  0.61761074  0.63997561  1  0  -0.371905  -0.233823  0  3.621708  0
N  N35  1  0.21491958  0.38239038  0.36002011  1  0  -0.371935  -0.233876  0  3.621694  0
O  O36  1  0.17882272  0.24214051  0.61573206  1  0  -0.322093  -0.528677  0  2.342676  0
O  O37  1  0.82116330  0.75785921  0.38426515  1  0  -0.322108  -0.528693  0  2.342658  0
O  O38  1  0.97711414  0.06779938  0.70762645  1  0  -0.325241  -0.542219  0  2.254399  0
O  O39  1  0.02288824  0.93219475  0.29237851  1  0  -0.32521  -0.542228  0  2.254301  0
