# generated using pymatgen
data_CuH20C28(NO)4
_symmetry_space_group_name_H-M   'P 1'
_cell_length_a   10.26506247
_cell_length_b   10.34027704
_cell_length_c   12.76210511
_cell_angle_alpha   104.03265704
_cell_angle_beta   110.74896725
_cell_angle_gamma   100.45386838
_symmetry_Int_Tables_number   1
_chemical_formula_structural   CuH20C28(NO)4
_chemical_formula_sum   'Cu2 H40 C56 N8 O8'
_cell_volume   1174.38293204
_cell_formula_units_Z   2
loop_
 _symmetry_equiv_pos_site_id
 _symmetry_equiv_pos_as_xyz
  1  'x, y, z'
loop_
 _atom_site_type_symbol
 _atom_site_label
 _atom_site_symmetry_multiplicity
 _atom_site_fract_x
 _atom_site_fract_y
 _atom_site_fract_z
 _atom_site_occupancy
 _atom_site_pbe_cm5_charge
 _atom_site_pbe_ddec_charge
 _atom_site_pbe_ddec_spin_density
 _atom_site_pbe_ddec_sum_bond_order
 _atom_site_pbe_magmom
Cu  Cu0  1  0.40573192  0.17222572  0.55483935  1  0.743785  0.800425  -0.7613  2.230586  -0.571
Cu  Cu1  1  0.59426135  0.82776769  0.44515790  1  0.74377  0.800362  0.761301  2.230615  0.571
H  H2  1  0.96188308  0.13950910  0.56534549  1  0.107096  0.119696  -0.000412  1.007629  0.0
H  H3  1  0.03810667  0.86048629  0.43464641  1  0.107115  0.11971  0.000412  1.007663  0.0
H  H4  1  0.75677260  0.46311738  0.61195187  1  0.099513  0.102977  -0.000177  1.038928  0.0
H  H5  1  0.24322364  0.53688213  0.38803718  1  0.09954  0.102965  0.000177  1.038925  0.0
H  H6  1  0.20630356  0.56552796  0.66040828  1  0.100275  0.099564  1.6e-05  1.034004  0.0
H  H7  1  0.79369807  0.43446545  0.33958904  1  0.10028  0.099534  -1.6e-05  1.033991  0.0
H  H8  1  0.64130206  0.91659873  0.82730887  1  0.104589  0.109536  -0.00055  1.059794  -0.001
H  H9  1  0.35869330  0.08339469  0.17268899  1  0.104614  0.109555  0.00055  1.059746  0.001
H  H10  1  0.41797561  0.44154260  0.27223730  1  0.111988  0.135608  -0.000414  1.035482  -0.001
H  H11  1  0.58202581  0.55845719  0.72776898  1  0.111973  0.135586  0.000414  1.035524  0.001
H  H12  1  0.98671409  0.64257929  0.66018624  1  0.093932  0.091402  -0.000145  1.035765  0.0
H  H13  1  0.01328745  0.35741717  0.33980692  1  0.093929  0.091464  0.000145  1.035766  0.0
H  H14  1  0.57177682  0.29524811  0.99881187  1  0.110662  0.114727  -0.000554  1.010388  -0.001
H  H15  1  0.42822743  0.70475052  0.00118718  1  0.110663  0.114764  0.000554  1.010402  0.001
H  H16  1  0.13171607  0.05651828  0.33622979  1  0.120525  0.09924  -0.000994  1.008342  -0.002
H  H17  1  0.86828599  0.94348350  0.66377156  1  0.120514  0.099228  0.000994  1.008348  0.002
H  H18  1  0.84407932  0.98433118  0.32862910  1  0.110807  0.127743  7.9e-05  1.0042  0.0
H  H19  1  0.15591961  0.01567064  0.67137449  1  0.110819  0.127741  -7.9e-05  1.004141  0.0
H  H20  1  0.02253308  0.10375957  0.14651631  1  0.1042  0.110612  -0.000515  1.037224  -0.001
H  H21  1  0.97746335  0.89624431  0.85348616  1  0.10419  0.110603  0.000515  1.037306  0.001
H  H22  1  0.52976010  0.96011375  0.63460066  1  0.115443  0.079975  -0.001134  1.071552  -0.001
H  H23  1  0.47022837  0.03987759  0.36539795  1  0.115406  0.079909  0.001134  1.071555  0.001
H  H24  1  0.51019745  0.37689230  0.45495020  1  0.121488  0.100097  -0.000848  1.013135  -0.002
H  H25  1  0.48980251  0.62310960  0.54505840  1  0.121538  0.100138  0.000848  1.013097  0.002
H  H26  1  0.66289448  0.26108052  0.15616446  1  0.109108  0.11677  -6.4e-05  1.008038  0.0
H  H27  1  0.33710927  0.73892328  0.84383383  1  0.109119  0.116795  6.4e-05  1.008084  0.0
H  H28  1  0.81877120  0.83759857  0.13099462  1  0.106171  0.072006  -1.5e-05  1.027803  0.0
H  H29  1  0.18122886  0.16240016  0.86901028  1  0.106182  0.07202  1.5e-05  1.027801  0.0
H  H30  1  0.92506976  0.20703077  0.03085379  1  0.099297  0.102608  -2.8e-05  1.050054  0.0
H  H31  1  0.07493493  0.79297617  0.96914537  1  0.099273  0.102561  2.8e-05  1.05006  0.0
H  H32  1  0.47095575  0.32689813  0.80196036  1  0.120813  0.098991  -0.001045  1.01437  -0.001
H  H33  1  0.52903961  0.67309526  0.19803593  1  0.120777  0.098943  0.001045  1.014345  0.001
H  H34  1  0.28414809  0.49325386  0.94525780  1  0.105621  0.069323  1e-05  1.001568  0.0
H  H35  1  0.71586962  0.50674802  0.05474887  1  0.105575  0.069307  -1e-05  1.001635  0.0
H  H36  1  0.76957481  0.20421686  0.34106490  1  0.107934  0.105326  2e-06  1.005661  0.0
H  H37  1  0.23042403  0.79578801  0.65893531  1  0.107929  0.105304  -2e-06  1.005717  0.0
H  H38  1  0.83726517  0.27707665  0.85031037  1  0.106326  0.110043  2.4e-05  0.990811  0.0
H  H39  1  0.16274486  0.72293764  0.14969404  1  0.106333  0.110065  -2.4e-05  0.990795  0.0
H  H40  1  0.02221411  0.42743275  0.80863155  1  0.09689  0.098487  3.2e-05  1.081773  0.0
H  H41  1  0.97779873  0.57258056  0.19137584  1  0.096927  0.098465  -3.2e-05  1.081911  0.0
C  C42  1  0.84572533  0.29123622  0.58660939  1  -0.023036  -0.044862  -0.006998  3.968685  -0.008
C  C43  1  0.15427089  0.70876339  0.41338595  1  -0.022983  -0.04476  0.006997  3.968581  0.008
C  C44  1  0.23230531  0.31211437  0.61292018  1  0.18822  0.54424  -0.000463  4.244227  0.003
C  C45  1  0.76769161  0.68787382  0.38707559  1  0.188172  0.544102  0.000463  4.244518  -0.003
C  C46  1  0.96816349  0.24975539  0.58616292  1  -0.077767  -0.11176  -0.000953  3.921461  -0.001
C  C47  1  0.03182657  0.75024108  0.41383084  1  -0.077789  -0.111852  0.000953  3.921358  0.001
C  C48  1  0.09770153  0.34989632  0.61329177  1  -0.021921  -0.033815  -0.00704  3.972021  -0.008
C  C49  1  0.90229039  0.65009601  0.38670333  1  -0.021861  -0.033637  0.007038  3.971998  0.008
C  C50  1  0.85286126  0.43285813  0.61206214  1  -0.08323  -0.084583  0.000512  3.942935  0.001
C  C51  1  0.14713456  0.56714350  0.38793033  1  -0.083337  -0.084613  -0.000512  3.943073  -0.001
C  C52  1  0.70823851  0.18576815  0.56449306  1  0.205839  0.583548  -0.002283  4.210161  0.0
C  C53  1  0.29175385  0.81423249  0.43550214  1  0.205864  0.583484  0.002284  4.209978  0.0
C  C54  1  0.61929628  0.10323574  0.93061147  1  0.011896  0.07751  0.002437  3.963513  0.002
C  C55  1  0.38070588  0.89676289  0.06938776  1  0.011887  0.077495  -0.002437  3.963662  -0.002
C  C56  1  0.10392122  0.49120960  0.64085390  1  -0.083539  -0.095584  -0.000245  3.979766  0.0
C  C57  1  0.89607302  0.50878687  0.35914028  1  -0.083502  -0.095452  0.000245  3.979535  0.0
C  C58  1  0.60496815  0.00872793  0.82475467  1  -0.081197  -0.155155  -0.003983  3.922042  -0.005
C  C59  1  0.39503338  0.99126866  0.17524635  1  -0.081191  -0.155074  0.003982  3.921955  0.005
C  C60  1  0.21003204  0.27950058  0.19335865  1  0.016933  0.084006  0.002459  3.963112  0.002
C  C61  1  0.78997096  0.72050438  0.80664670  1  0.016908  0.083971  -0.002459  3.963041  -0.002
C  C62  1  0.15206976  0.31566471  0.08398348  1  0.118394  0.19351  -0.000394  3.997275  -0.001
C  C63  1  0.84793815  0.68433919  0.91601996  1  0.118359  0.193466  0.000394  3.997028  0.001
C  C64  1  0.68482574  0.07792996  0.04496353  1  0.110088  0.172782  -0.000373  4.027382  0.0
C  C65  1  0.31518122  0.92207081  0.95503905  1  0.110097  0.172806  0.000373  4.027425  0.0
C  C66  1  0.34979795  0.35578582  0.28225573  1  -0.075098  -0.155859  -0.004242  3.899141  -0.005
C  C67  1  0.65020098  0.64421597  0.71774629  1  -0.075141  -0.155864  0.004241  3.899237  0.005
C  C68  1  0.98194866  0.53281038  0.63983049  1  -0.095259  -0.087334  -0.000553  4.021119  -0.001
C  C69  1  0.01804798  0.46718709  0.36016144  1  -0.095281  -0.08755  0.000553  4.021121  0.001
C  C70  1  0.56822835  0.21890774  0.92155025  1  -0.079409  -0.164163  -0.003712  3.94804  -0.004
C  C71  1  0.43177349  0.78108986  0.07844948  1  -0.079443  -0.164326  0.003712  3.948127  0.004
C  C72  1  0.18947995  0.14153215  0.31805699  1  0.047627  0.09466  -6.7e-05  3.927249  0.0
C  C73  1  0.81051898  0.85846964  0.68194503  1  0.047679  0.094731  6.7e-05  3.927328  0.0
C  C74  1  0.80166669  0.01555792  0.25042021  1  -0.07875  -0.119663  0.000517  3.932161  0.001
C  C75  1  0.19833224  0.98444390  0.74958338  1  -0.078742  -0.119604  -0.000517  3.932055  -0.001
C  C76  1  0.12991481  0.16986481  0.21302087  1  -0.084599  -0.175271  -0.003879  3.944739  -0.004
C  C77  1  0.87008580  0.83013906  0.78698124  1  -0.084544  -0.175224  0.003879  3.944903  0.004
C  C78  1  0.54258703  0.03193449  0.71787044  1  0.044738  0.098332  -7.8e-05  3.927171  0.001
C  C79  1  0.45740865  0.96806000  0.28212928  1  0.044773  0.098342  7.8e-05  3.9273  -0.001
C  C80  1  0.40185322  0.32105460  0.38468557  1  0.050377  0.098386  -0.000311  3.905381  0.0
C  C81  1  0.59814810  0.67894832  0.61532205  1  0.050326  0.098297  0.000312  3.905523  0.0
C  C82  1  0.69904704  0.16804432  0.15271351  1  -0.08099  -0.163469  0.000454  3.935465  0.0
C  C83  1  0.30095680  0.83195641  0.84728660  1  -0.080989  -0.163493  -0.000454  3.935433  0.0
C  C84  1  0.78542178  0.93276458  0.13949967  1  0.042461  0.09063  -0.000134  3.998321  0.0
C  C85  1  0.21457788  0.06723617  0.86050236  1  0.042408  0.090553  0.000134  3.998237  0.0
C  C86  1  0.00235337  0.27032613  0.00945616  1  -0.083817  -0.162122  0.000415  3.929079  0.0
C  C87  1  0.99765236  0.72968087  0.99054722  1  -0.083799  -0.162064  -0.000415  3.928868  0.0
C  C88  1  0.50888547  0.23677710  0.81171095  1  0.047486  0.088174  0.000381  3.940277  0.001
C  C89  1  0.49111115  0.76322051  0.18828962  1  0.047536  0.088283  -0.000381  3.940173  -0.001
C  C90  1  0.20168900  0.43104105  0.96320091  1  0.039236  0.085505  -7.9e-05  4.027426  0.0
C  C91  1  0.79832454  0.56896083  0.03680613  1  0.039135  0.085346  7.9e-05  4.027528  0.0
C  C92  1  0.75822418  0.13616126  0.25639333  1  -0.068851  -0.026412  -0.000137  3.96916  0.0
C  C93  1  0.24177716  0.86384152  0.74360565  1  -0.068914  -0.026459  0.000137  3.969124  0.0
C  C94  1  0.95313173  0.30981936  0.90887258  1  -0.072585  -0.028333  -0.000112  3.966912  0.0
C  C95  1  0.04687953  0.69018872  0.09113260  1  -0.072597  -0.028374  0.000112  3.966805  0.0
C  C96  1  0.05486487  0.39262012  0.88519165  1  -0.089249  -0.132919  0.000471  3.987406  0.0
C  C97  1  0.94514608  0.60738692  0.11481404  1  -0.08924  -0.132804  -0.000471  3.987537  0.0
N  N98  1  0.49541797  0.14431783  0.71106196  1  -0.34754  -0.228271  -0.057373  3.617599  -0.072
N  N99  1  0.50457467  0.85567352  0.28893630  1  -0.347512  -0.228189  0.057374  3.617658  0.072
N  N100  1  0.32354621  0.21585883  0.40272450  1  -0.344874  -0.219121  -0.058062  3.583489  -0.073
N  N101  1  0.67645208  0.78414089  0.59727773  1  -0.344901  -0.219123  0.05806  3.583469  0.073
N  N102  1  0.25080923  0.39555599  0.06084502  1  -0.315781  -0.300982  0.000251  3.301411  0.0
N  N103  1  0.74919731  0.60444693  0.93916254  1  -0.315635  -0.300852  -0.000251  3.301168  0.0
N  N104  1  0.72957437  0.96223415  0.03935286  1  -0.318202  -0.305236  0.000167  3.319827  0.0
N  N105  1  0.27042873  0.03776772  0.96065350  1  -0.318149  -0.305192  -0.000167  3.319694  0.0
O  O106  1  0.21872734  0.18022974  0.57300663  1  -0.32732  -0.547214  -0.077888  2.292181  -0.105
O  O107  1  0.78126290  0.81976052  0.42698916  1  -0.327296  -0.547221  0.077895  2.292158  0.105
O  O108  1  0.70840255  0.06273052  0.55779323  1  -0.323221  -0.584334  -0.000831  2.312141  -0.001
O  O109  1  0.29158774  0.93727000  0.44219430  1  -0.323243  -0.584303  0.000831  2.311955  0.001
O  O110  1  0.34892065  0.40745041  0.64881699  1  -0.331415  -0.572767  -0.000101  2.157771  -0.001
O  O111  1  0.65107648  0.59254202  0.35118433  1  -0.331427  -0.57269  0.0001  2.158037  0.001
O  O112  1  0.59987801  0.23567088  0.55500672  1  -0.332104  -0.577208  -0.06376  2.441369  -0.088
O  O113  1  0.40012051  0.76433302  0.44499714  1  -0.332099  -0.577176  0.06376  2.441409  0.088
