# generated using pymatgen
data_MnH17C22(NO)4
_symmetry_space_group_name_H-M   'P 1'
_cell_length_a   8.38716230
_cell_length_b   10.28824281
_cell_length_c   12.02988513
_cell_angle_alpha   67.66528067
_cell_angle_beta   86.35472379
_cell_angle_gamma   88.49967368
_symmetry_Int_Tables_number   1
_chemical_formula_structural   MnH17C22(NO)4
_chemical_formula_sum   'Mn2 H34 C44 N8 O8'
_cell_volume   958.22896859
_cell_formula_units_Z   2
loop_
 _symmetry_equiv_pos_site_id
 _symmetry_equiv_pos_as_xyz
  1  'x, y, z'
loop_
 _atom_site_type_symbol
 _atom_site_label
 _atom_site_symmetry_multiplicity
 _atom_site_fract_x
 _atom_site_fract_y
 _atom_site_fract_z
 _atom_site_occupancy
 _atom_site_hle17_ddec_charge
 _atom_site_hle17_ddec_spin_density
 _atom_site_hle17_ddec_sum_bond_order
 _atom_site_hle17_magmom
 _atom_site_hse06_10hf_ddec_charge
 _atom_site_hse06_10hf_ddec_spin_density
 _atom_site_hse06_10hf_ddec_sum_bond_order
 _atom_site_hse06_10hf_magmom
 _atom_site_hse06_ddec_charge
 _atom_site_hse06_ddec_spin_density
 _atom_site_hse06_ddec_sum_bond_order
 _atom_site_hse06_magmom
 _atom_site_pbe_cm5_charge
 _atom_site_pbe_ddec_charge
 _atom_site_pbe_ddec_spin_density
 _atom_site_pbe_ddec_sum_bond_order
 _atom_site_pbe_magmom
Mn  Mn0  1  0.00071984  0.36796176  0.37782748  1  1.118401  -4.797567  1.825401  -4.671  0.953126  -4.716656  2.325987  -4.522  1.010464  -4.765098  2.255772  -4.592  0.605057  0.908041  -4.665933  2.37932  -4.453
Mn  Mn1  1  0.99928092  0.63204145  0.62217389  1  1.118401  -4.797573  1.825406  -4.671  0.953092  -4.716679  2.326021  -4.522  1.010431  -4.765116  2.255809  -4.592  0.605042  0.90802  -4.665953  2.37933  -4.453
H  H2  1  0.93466276  0.89744553  0.41275593  1  0.114258  1.9e-05  0.972186  0.0  0.119179  -0.000363  1.044435  0.0  0.123852  -0.000203  1.039841  0.0  0.110486  0.115645  -0.000471  1.048109  0.0
H  H3  1  0.06533675  0.10255772  0.58724300  1  0.114269  1.4e-05  0.972176  0.0  0.119188  -0.000363  1.044434  0.0  0.123846  -0.000203  1.039856  0.0  0.11049  0.115653  -0.000471  1.048106  0.0
H  H4  1  0.96169993  0.75774899  0.11929882  1  0.104625  0.00055  0.96242  0.0  0.113669  0.000258  1.025618  0.0  0.118082  0.00033  1.021228  0.0  0.107179  0.110531  0.000145  1.028656  0.0
H  H5  1  0.03830077  0.24225107  0.88070272  1  0.104619  0.000566  0.962362  0.0  0.113661  0.000258  1.025572  0.0  0.118074  0.00033  1.021182  0.0  0.107159  0.110522  0.000145  1.02861  0.0
H  H6  1  0.00790975  0.20036568  0.05321464  1  0.103919  0.000325  0.944209  0.0  0.116321  -6.7e-05  1.001558  0.0  0.120221  2.7e-05  0.998013  0.0  0.109043  0.113433  -0.000165  1.004182  0.0
H  H7  1  0.99208975  0.79963652  0.94678462  1  0.103924  0.000328  0.944256  0.0  0.116307  -6.7e-05  1.001624  0.0  0.120205  2.7e-05  0.998084  0.0  0.10906  0.113422  -0.000165  1.004246  0.0
H  H8  1  0.31710424  0.27926510  0.22611387  1  0.099601  0.000172  0.979791  0.0  0.107814  1.1e-05  1.042312  0.0  0.109255  6.8e-05  1.04331  0.0  0.113582  0.106887  -4.7e-05  1.041537  0.0
H  H9  1  0.68289878  0.72072966  0.77389005  1  0.099516  0.000168  0.979862  0.0  0.107745  1.1e-05  1.042364  0.0  0.109186  6.8e-05  1.043362  0.0  0.113536  0.106819  -4.8e-05  1.041588  0.0
H  H10  1  0.58270736  0.45342375  0.13464602  1  0.124535  -0.000196  0.945432  0.0  0.137557  -0.000287  0.999536  0.0  0.14016  -0.000207  0.99848  0.0  0.128167  0.135608  -0.000378  1.000427  0.0
H  H11  1  0.41728972  0.54657531  0.86535520  1  0.124552  -0.000199  0.945358  0.0  0.137538  -0.000287  0.99952  0.0  0.140142  -0.000206  0.998464  0.0  0.128163  0.135589  -0.000378  1.00041  0.0
H  H12  1  0.24223782  0.64930979  0.29473831  1  0.092358  0.000264  0.948664  0.0  0.101478  -0.000105  1.014537  0.0  0.102699  2.3e-05  1.013667  0.0  0.134163  0.100407  -0.000189  1.015536  0.0
H  H13  1  0.75776393  0.35068504  0.70526151  1  0.092339  0.000278  0.948642  0.0  0.101455  -0.000105  1.014519  0.0  0.102689  2.3e-05  1.013619  0.0  0.134168  0.100383  -0.00019  1.015518  0.0
H  H14  1  0.66331040  0.68462147  0.17537658  1  0.097547  0.000176  0.919624  0.0  0.113867  0.000115  0.978637  0.0  0.114464  0.000157  0.978139  0.0  0.11701  0.113107  1.5e-05  0.979467  0.0
H  H15  1  0.33668907  0.31537863  0.82462335  1  0.097551  0.000165  0.919604  0.0  0.113872  0.000115  0.978616  0.0  0.114469  0.000157  0.97812  0.0  0.117006  0.113111  1.5e-05  0.979446  0.0
H  H16  1  0.50032123  0.77880536  0.20874837  1  0.078052  4e-05  0.951496  0.0  0.08991  -6e-06  1.023748  0.0  0.090321  7e-06  1.024361  0.0  0.109013  0.090005  -2.1e-05  1.022617  0.0
H  H17  1  0.49967579  0.22119162  0.79125185  1  0.078013  2.9e-05  0.951514  0.0  0.089877  -6e-06  1.023766  0.0  0.090288  6e-06  1.024379  0.0  0.108987  0.089972  -2.1e-05  1.022635  0.0
H  H18  1  0.71748081  0.92899187  0.00574485  1  0.086298  -2.4e-05  0.990567  0.0  0.098267  -9.2e-05  1.051771  0.0  0.099264  -4.7e-05  1.053829  0.0  0.096059  0.097469  -0.000104  1.050621  0.0
H  H19  1  0.28252099  0.07100823  0.99425163  1  0.086289  -2.2e-05  0.9906  0.0  0.098274  -9.2e-05  1.051791  0.0  0.09927  -4.7e-05  1.05385  0.0  0.096058  0.097476  -0.000104  1.05064  0.0
H  H20  1  0.70571752  0.05209634  0.78590101  1  0.087089  3.1e-05  0.973204  0.0  0.095983  2e-05  1.040281  0.0  0.097571  2.8e-05  1.041215  0.0  0.096517  0.09481  8e-06  1.039529  0.0
H  H21  1  0.29428425  0.94790272  0.21409497  1  0.087089  3.1e-05  0.973149  0.0  0.095959  2e-05  1.040261  0.0  0.097568  2.8e-05  1.041156  0.0  0.096507  0.094787  8e-06  1.039509  0.0
H  H22  1  0.29650510  0.80173505  0.79524261  1  0.099364  0.000256  0.987354  0.0  0.108634  0.000231  1.04991  0.0  0.111344  0.000279  1.049312  0.0  0.10017  0.106566  0.000166  1.050556  0.0
H  H23  1  0.70349432  0.19826401  0.20475598  1  0.099331  0.000258  0.987418  0.0  0.108624  0.000231  1.049954  0.0  0.111333  0.000279  1.049352  0.0  0.100149  0.106556  0.000166  1.0506  0.0
H  H24  1  0.31069662  0.67917912  0.01232660  1  0.097814  3e-05  0.954334  0.0  0.109362  -2e-05  1.012002  0.0  0.112144  1.3e-05  1.0111  0.0  0.104976  0.107355  -5.8e-05  1.01274  0.0
H  H25  1  0.68930637  0.32081990  0.98767098  1  0.097836  3.3e-05  0.954301  0.0  0.109387  -2e-05  1.011971  0.0  0.112168  1.3e-05  1.01107  0.0  0.10496  0.107378  -5.8e-05  1.012711  0.0
H  H26  1  0.54322794  0.91917950  0.60454633  1  0.09008  7.1e-05  0.92351  0.0  0.10475  3.6e-05  0.987301  0.0  0.105614  5.3e-05  0.987119  0.0  0.118698  0.103966  1.4e-05  0.987742  0.0
H  H27  1  0.45677147  0.08082063  0.39545026  1  0.090052  7.9e-05  0.923532  0.0  0.104771  3.6e-05  0.987288  0.0  0.105636  5.3e-05  0.987106  0.0  0.118708  0.103989  1.4e-05  0.987729  0.0
H  H28  1  0.36687533  0.01298710  0.61474308  1  0.088066  -1.4e-05  0.921497  0.0  0.104398  -7e-05  0.984391  0.0  0.1047  -4e-05  0.984295  0.0  0.116654  0.104042  -0.000159  0.984714  0.0
H  H29  1  0.63312531  0.98701406  0.38525395  1  0.08809  -1.7e-05  0.921456  0.0  0.104414  -7e-05  0.984375  0.0  0.104716  -4e-05  0.98428  0.0  0.116683  0.104061  -0.000159  0.984698  0.0
H  H30  1  0.38459384  0.28014570  0.55483151  1  0.127708  0.000145  0.970916  0.0  0.136654  2.2e-05  1.032182  0.0  0.139438  0.000147  1.030922  0.0  0.121353  0.134606  -0.000135  1.03326  0.0
H  H31  1  0.61540321  0.71985657  0.44516453  1  0.127706  0.000145  0.970981  0.0  0.136656  2.2e-05  1.032244  0.0  0.139439  0.000147  1.030984  0.0  0.121359  0.134608  -0.000135  1.033322  0.0
H  H32  1  0.63287589  0.46698180  0.43792576  1  0.107052  0.000271  0.957421  0.0  0.115303  6.7e-05  1.019625  0.0  0.117605  0.000157  1.018923  0.0  0.118366  0.113629  -2.7e-05  1.020229  0.0
H  H33  1  0.36712242  0.53302041  0.56207356  1  0.107074  0.000272  0.957505  0.0  0.115318  6.7e-05  1.019709  0.0  0.117622  0.000156  1.019005  0.0  0.118394  0.113643  -2.7e-05  1.020314  0.0
H  H34  1  0.81232772  0.05183372  0.55001802  1  0.108747  0.000427  0.983474  0.0  0.111682  9.2e-05  1.056094  0.0  0.115324  0.000242  1.052224  0.0  0.130877  0.109024  -1.6e-05  1.058722  0.0
H  H35  1  0.18767298  0.94816846  0.44998118  1  0.108793  0.000429  0.98344  0.0  0.111725  9.2e-05  1.056058  0.0  0.11537  0.000242  1.052186  0.0  0.130892  0.109067  -1.6e-05  1.058686  0.0
C  C36  1  0.99274819  0.17406139  0.28311947  1  0.620159  -0.003823  3.92174  -0.002  0.572285  -0.007484  4.212869  -0.004  0.605513  -0.006018  4.208192  -0.004  0.199609  0.549703  -0.009142  4.214317  -0.005
C  C37  1  0.00724660  0.82594613  0.71687752  1  0.620104  -0.003816  3.922083  -0.002  0.572214  -0.007486  4.213249  -0.004  0.605442  -0.00602  4.20858  -0.004  0.199619  0.549634  -0.009143  4.214692  -0.005
C  C38  1  0.97728555  0.05951601  0.23599212  1  -0.059141  0.006354  3.778573  0.004  -0.0341  0.004101  4.017067  0.003  -0.041147  0.004772  4.037183  0.003  -0.01725  -0.030185  0.002666  4.004398  0.002
C  C39  1  0.02271279  0.94048406  0.76401120  1  -0.059095  0.006368  3.778556  0.004  -0.034097  0.004103  4.017119  0.003  -0.041141  0.004783  4.03723  0.003  -0.01728  -0.030185  0.002666  4.004448  0.002
C  C40  1  0.94946964  0.92137884  0.31635728  1  -0.090584  -0.003236  3.715087  -0.003  -0.129184  -0.003546  3.969852  -0.003  -0.126205  -0.003025  3.986658  -0.003  -0.081903  -0.131979  -0.008188  3.959881  -0.007
C  C41  1  0.05052867  0.07862337  0.68364204  1  -0.090528  -0.003247  3.714987  -0.003  -0.129114  -0.003547  3.969759  -0.003  -0.126122  -0.003031  3.98657  -0.003  -0.081856  -0.131906  -0.008188  3.959784  -0.007
C  C42  1  0.94074009  0.81420998  0.27222684  1  -0.084131  0.004818  3.801742  0.003  -0.060034  0.002591  4.045143  0.002  -0.069294  0.003847  4.067385  0.002  -0.026548  -0.054036  0.000691  4.031094  0.001
C  C43  1  0.05926182  0.18579005  0.72777547  1  -0.084227  0.004879  3.801787  0.003  -0.060136  0.002585  4.045207  0.002  -0.069399  0.003851  4.067447  0.002  -0.026564  -0.05414  0.000691  4.031155  0.001
C  C44  1  0.96431274  0.84564427  0.14849191  1  -0.109357  -0.007881  3.700063  -0.007  -0.145402  -0.009641  3.954489  -0.008  -0.142687  -0.007373  3.9704  -0.006  -0.083114  -0.146458  -0.009485  3.94341  -0.007
C  C45  1  0.03568668  0.15435161  0.85151019  1  -0.109369  -0.007961  3.700172  -0.007  -0.145448  -0.009635  3.954559  -0.008  -0.142738  -0.007369  3.970479  -0.006  -0.083119  -0.146504  -0.009482  3.943477  -0.007
C  C46  1  0.98876764  0.98406113  0.06568193  1  0.038851  0.004254  3.767629  0.003  0.0563  0.001996  4.005499  0.002  0.054935  0.002771  4.027275  0.002  -0.009731  0.056878  0.001678  3.990755  0.002
C  C47  1  0.01123309  0.01594104  0.93431893  1  0.038769  0.00432  3.767819  0.003  0.056383  0.001995  4.005546  0.002  0.055023  0.002778  4.02732  0.002  -0.009732  0.056957  0.001678  3.990803  0.002
C  C48  1  0.99146017  0.09054512  0.11214580  1  -0.088397  -0.007577  3.673088  -0.006  -0.124445  -0.009451  3.924673  -0.007  -0.121648  -0.007103  3.940606  -0.006  -0.072193  -0.125733  -0.009049  3.914009  -0.007
C  C49  1  0.00854053  0.90945600  0.88785457  1  -0.088393  -0.007616  3.673199  -0.007  -0.124452  -0.009448  3.924766  -0.007  -0.12166  -0.007122  3.940697  -0.006  -0.072201  -0.125743  -0.009048  3.914107  -0.007
C  C50  1  0.90823125  0.66549701  0.35635467  1  0.653677  -0.017393  3.894529  -0.017  0.59762  -0.02867  4.193885  -0.026  0.63558  -0.020905  4.183497  -0.02  0.215879  0.570229  -0.037461  4.200965  -0.032
C  C51  1  0.09177177  0.33450094  0.64364575  1  0.653789  -0.017406  3.894316  -0.017  0.597723  -0.028662  4.193673  -0.026  0.635679  -0.020912  4.183289  -0.02  0.215925  0.570335  -0.037453  4.200753  -0.032
C  C52  1  0.34051033  0.38182658  0.22705870  1  -0.000888  -0.001364  3.756872  -0.002  -0.033126  -0.002531  4.023992  -0.003  -0.031487  -0.002096  4.045733  -0.003  -0.00095  -0.034905  -0.002948  4.00952  -0.003
C  C53  1  0.65949265  0.61816609  0.77294506  1  -0.000916  -0.001368  3.756977  -0.002  -0.03317  -0.00253  4.024071  -0.003  -0.03153  -0.002095  4.045817  -0.003  -0.000942  -0.03495  -0.002948  4.009599  -0.003
C  C54  1  0.47235581  0.46619235  0.18125963  1  -0.072874  0.000445  3.688133  0.0  -0.115392  -0.000158  3.951066  0.0  -0.114467  0.000311  3.970712  0.0  0.000107  -0.115549  -0.000614  3.937589  0.0
C  C55  1  0.52764363  0.53380564  0.81874096  1  -0.072795  0.000483  3.687955  0.0  -0.115282  -0.000159  3.950893  0.0  -0.114361  0.000312  3.970541  0.0  0.000144  -0.115444  -0.000614  3.937427  0.0
C  C56  1  0.29548236  0.57064129  0.26426252  1  0.157931  -0.003691  3.661103  -0.004  0.099184  -0.005664  3.927851  -0.005  0.111963  -0.004809  3.943079  -0.005  0.144281  0.09061  -0.006559  3.917366  -0.006
C  C57  1  0.70451836  0.42935770  0.73574101  1  0.15798  -0.003735  3.661424  -0.004  0.099237  -0.005661  3.928168  -0.005  0.11202  -0.004807  3.943402  -0.005  0.144301  0.090664  -0.006556  3.917684  -0.006
C  C58  1  0.53743344  0.71309279  0.15782451  1  -0.040215  -0.000483  3.651488  0.0  -0.107066  -0.000616  3.900985  0.0  -0.102284  -0.000461  3.91112  0.0  -0.04429  -0.110256  -0.000825  3.893944  -0.001
C  C59  1  0.46256600  0.28690732  0.84217375  1  -0.040217  -0.000449  3.651405  0.0  -0.107089  -0.000616  3.900929  0.0  -0.102308  -0.000462  3.911065  0.0  -0.044292  -0.110281  -0.000826  3.893889  -0.001
C  C60  1  0.51868819  0.79274520  0.02453295  1  0.065413  -8.4e-05  3.747723  0.0  0.086096  -0.000191  3.984319  0.0  0.085466  -0.000149  4.008313  0.0  -0.013605  0.086276  -0.000248  3.968348  0.0
C  C61  1  0.48131117  0.20725178  0.97546465  1  0.065681  -0.000104  3.747552  0.0  0.086393  -0.000192  3.984104  0.0  0.085765  -0.00015  4.008096  0.0  -0.013463  0.086574  -0.000248  3.968129  0.0
C  C62  1  0.62557941  0.90065497  0.95915796  1  -0.110307  -4.5e-05  3.76075  0.0  -0.126631  -0.000172  4.001355  0.0  -0.129982  -9.9e-05  4.025326  0.0  -0.093736  -0.124597  -0.0002  3.985249  0.0
C  C63  1  0.37442001  0.09934516  0.04083946  1  -0.110388  -2.3e-05  3.760906  0.0  -0.126741  -0.000172  4.001497  0.0  -0.130095  -9.8e-05  4.025477  0.0  -0.093737  -0.124705  -0.0002  3.985388  0.0
C  C64  1  0.61708796  0.97181740  0.83517368  1  -0.122224  -5e-05  3.77362  0.0  -0.142339  -0.000111  4.02415  0.0  -0.144576  -6.4e-05  4.046111  0.0  -0.097744  -0.140137  -0.000124  4.007955  0.0
C  C65  1  0.38291145  0.02818168  0.16482409  1  -0.122149  -6.3e-05  3.773591  0.0  -0.142248  -0.000109  4.024087  0.0  -0.144499  -6.6e-05  4.046038  0.0  -0.097741  -0.140039  -0.000124  4.007902  0.0
C  C66  1  0.49889456  0.93729660  0.77439173  1  0.056166  1.2e-05  3.758569  0.0  0.074504  -0.00014  4.000744  0.0  0.073772  -8.3e-05  4.024141  0.0  -0.01941  0.075399  -0.000203  3.983555  0.0
C  C67  1  0.50110840  0.06270033  0.22560652  1  0.056066  1.6e-05  3.758689  0.0  0.07446  -0.000143  4.000818  0.0  0.073752  -8.2e-05  4.024187  0.0  -0.0194  0.075331  -0.000203  3.983665  0.0
C  C68  1  0.38851408  0.83256723  0.84035527  1  -0.113943  -0.000171  3.755289  0.0  -0.130265  -0.000305  4.000136  0.0  -0.1336  -0.000213  4.023171  0.0  -0.093347  -0.127795  -0.000408  3.984417  0.0
C  C69  1  0.61148533  0.16743185  0.15964249  1  -0.113825  -0.000176  3.755388  0.0  -0.130165  -0.000304  4.000172  0.0  -0.13351  -0.000214  4.023208  0.0  -0.093308  -0.127687  -0.000408  3.984459  0.0
C  C70  1  0.39770830  0.76137930  0.96397327  1  -0.11513  8e-06  3.752089  0.0  -0.136119  -9.4e-05  4.000575  0.0  -0.138566  -3.7e-05  4.022069  0.0  -0.093198  -0.134627  -0.000146  3.986205  0.0
C  C71  1  0.60229112  0.23862083  0.03602415  1  -0.115403  1.7e-05  3.752046  0.0  -0.136411  -9.3e-05  4.000556  0.0  -0.13886  -3.5e-05  4.02205  0.0  -0.093323  -0.134917  -0.000146  3.986184  0.0
C  C72  1  0.49203033  0.99714582  0.63901629  1  -0.037628  -0.000455  3.65885  0.0  -0.10608  -0.000614  3.91243  0.0  -0.100966  -0.000462  3.922198  0.0  -0.042656  -0.109427  -0.000827  3.905699  -0.001
C  C73  1  0.50797032  0.00285639  0.36098041  1  -0.037591  -0.000473  3.658889  0.0  -0.106137  -0.000614  3.912566  0.0  -0.101036  -0.000467  3.922337  0.0  -0.042711  -0.109481  -0.000827  3.90585  -0.001
C  C74  1  0.51090424  0.26282655  0.53967425  1  -0.087157  0.000821  3.668664  0.0  -0.12548  5.9e-05  3.928687  0.0  -0.124684  0.000564  3.947154  0.0  -0.007284  -0.125956  -0.000414  3.916132  0.0
C  C75  1  0.48910119  0.73717348  0.46032455  1  -0.087154  0.000803  3.668555  0.0  -0.12549  5.9e-05  3.928571  0.0  -0.124695  0.000564  3.947035  0.0  -0.007291  -0.125965  -0.000414  3.916015  0.0
C  C76  1  0.63357693  0.35341328  0.47994081  1  0.0092  -0.001541  3.750281  -0.002  -0.024957  -0.002977  4.023972  -0.003  -0.022178  -0.002384  4.043312  -0.003  -0.000206  -0.026767  -0.003571  4.010454  -0.004
C  C77  1  0.36642256  0.64658469  0.52006229  1  0.009211  -0.001531  3.75019  -0.002  -0.024936  -0.002978  4.023862  -0.003  -0.022154  -0.002383  4.043198  -0.003  -0.000218  -0.026746  -0.003572  4.010345  -0.004
C  C78  1  0.73315760  0.14210248  0.53501453  1  0.144032  -0.004215  3.640847  -0.004  0.08855  -0.006104  3.906325  -0.006  0.100715  -0.005187  3.920403  -0.005  0.13727  0.080679  -0.007  3.896298  -0.007
C  C79  1  0.26684305  0.85789761  0.46498450  1  0.143967  -0.004233  3.640922  -0.005  0.088482  -0.006104  3.90639  -0.006  0.100643  -0.005188  3.920473  -0.005  0.137258  0.080612  -0.007  3.896363  -0.007
N  N80  1  0.23116239  0.44795276  0.27893547  1  -0.371547  -0.025215  3.237879  -0.012  -0.303388  -0.027489  3.524653  -0.01  -0.324322  -0.025051  3.539531  -0.008  -0.342615  -0.288163  -0.030392  3.514313  -0.012
N  N81  1  0.76883938  0.55203994  0.72106751  1  -0.371589  -0.025198  3.2381  -0.012  -0.303401  -0.027491  3.524841  -0.01  -0.324337  -0.025047  3.539723  -0.008  -0.342662  -0.288183  -0.030392  3.514507  -0.012
N  N82  1  0.44229163  0.58543456  0.20603438  1  -0.070425  -0.001127  3.609006  -0.001  0.023497  -0.002207  3.827664  -0.002  0.008505  -0.001752  3.854246  -0.002  -0.247046  0.033357  -0.002648  3.809372  -0.003
N  N83  1  0.55771258  0.41456550  0.79396281  1  -0.070398  -0.001135  3.609009  -0.001  0.023505  -0.002207  3.827691  -0.002  0.008513  -0.001754  3.854275  -0.002  -0.247023  0.033365  -0.002648  3.809398  -0.003
N  N84  1  0.57638877  0.12909317  0.57452902  1  -0.072546  -0.001142  3.600878  -0.001  0.021764  -0.002398  3.819183  -0.002  0.007214  -0.001892  3.845181  -0.002  -0.249758  0.031372  -0.002918  3.801349  -0.003
N  N85  1  0.42361067  0.87090801  0.42546807  1  -0.072544  -0.001127  3.600922  -0.001  0.0218  -0.002398  3.819233  -0.002  0.00725  -0.001892  3.845236  -0.002  -0.249719  0.031409  -0.002918  3.801397  -0.003
N  N86  1  0.77139944  0.27741031  0.47760120  1  -0.387914  -0.024649  3.226831  -0.011  -0.320517  -0.027746  3.517072  -0.009  -0.342196  -0.025319  3.533003  -0.007  -0.342928  -0.304778  -0.030481  3.50576  -0.011
N  N87  1  0.22860006  0.72258977  0.52240039  1  -0.387909  -0.024637  3.226877  -0.011  -0.320507  -0.027744  3.517111  -0.009  -0.342185  -0.025313  3.533044  -0.007  -0.342934  -0.304772  -0.030479  3.505802  -0.011
O  O88  1  0.06209671  0.14463996  0.38182429  1  -0.638527  -0.023468  1.948508  -0.016  -0.574557  -0.029667  2.188798  -0.021  -0.603835  -0.026784  2.17856  -0.018  -0.313723  -0.552745  -0.033742  2.194456  -0.025
O  O89  1  0.93790050  0.85536434  0.61817775  1  -0.638519  -0.02347  1.94871  -0.016  -0.57453  -0.029665  2.189014  -0.021  -0.603804  -0.026774  2.178782  -0.018  -0.31375  -0.552728  -0.033739  2.194677  -0.025
O  O90  1  0.93644115  0.29553200  0.22552686  1  -0.612391  -0.024423  1.903531  -0.018  -0.558716  -0.031424  2.131394  -0.023  -0.5854  -0.027189  2.120484  -0.02  -0.313129  -0.538169  -0.035215  2.138045  -0.027
O  O91  1  0.06355595  0.70447024  0.77447168  1  -0.612353  -0.024423  1.903612  -0.018  -0.558663  -0.031425  2.131473  -0.023  -0.585351  -0.027192  2.120569  -0.02  -0.313108  -0.538115  -0.035218  2.138119  -0.027
O  O92  1  0.88302058  0.63916753  0.46835382  1  -0.650826  -0.033687  2.078793  -0.019  -0.59158  -0.046462  2.365323  -0.028  -0.619885  -0.039935  2.347782  -0.022  -0.31448  -0.569764  -0.051896  2.376579  -0.032
O  O93  1  0.11698372  0.36083247  0.53164838  1  -0.650832  -0.033686  2.078718  -0.019  -0.591589  -0.046461  2.365245  -0.028  -0.619893  -0.039932  2.347704  -0.022  -0.314508  -0.569775  -0.051894  2.376502  -0.032
O  O94  1  0.90401392  0.57308943  0.30948730  1  -0.634762  -0.035984  2.032108  -0.023  -0.568381  -0.046064  2.30023  -0.028  -0.596789  -0.039807  2.282627  -0.023  -0.313655  -0.547616  -0.052971  2.312921  -0.034
O  O95  1  0.09598912  0.42690957  0.69051278  1  -0.634851  -0.035973  2.031917  -0.023  -0.568442  -0.046065  2.300014  -0.028  -0.596848  -0.0398  2.282408  -0.023  -0.313704  -0.547666  -0.05297  2.312674  -0.034
