# generated using pymatgen
data_CoH12(C8O3)2
_symmetry_space_group_name_H-M   'P 1'
_cell_length_a   5.11750672
_cell_length_b   8.83571068
_cell_length_c   15.35828113
_cell_angle_alpha   100.35639977
_cell_angle_beta   89.99976852
_cell_angle_gamma   90.00038418
_symmetry_Int_Tables_number   1
_chemical_formula_structural   CoH12(C8O3)2
_chemical_formula_sum   'Co2 H24 C32 O12'
_cell_volume   683.13882734
_cell_formula_units_Z   2
loop_
 _symmetry_equiv_pos_site_id
 _symmetry_equiv_pos_as_xyz
  1  'x, y, z'
loop_
 _atom_site_type_symbol
 _atom_site_label
 _atom_site_symmetry_multiplicity
 _atom_site_fract_x
 _atom_site_fract_y
 _atom_site_fract_z
 _atom_site_occupancy
 _atom_site_hse06_10hf_ddec_charge
 _atom_site_hse06_10hf_ddec_spin_density
 _atom_site_hse06_10hf_ddec_sum_bond_order
 _atom_site_hse06_10hf_magmom
 _atom_site_hse06_ddec_charge
 _atom_site_hse06_ddec_spin_density
 _atom_site_hse06_ddec_sum_bond_order
 _atom_site_hse06_magmom
 _atom_site_pbe_cm5_charge
 _atom_site_pbe_ddec_charge
 _atom_site_pbe_ddec_spin_density
 _atom_site_pbe_ddec_sum_bond_order
 _atom_site_pbe_magmom
Co  Co0  1  0.49998699  0.99999811  0.50000049  1  1.067773  0.835218  2.927534  0.612  1.141715  0.793473  2.883489  0.548  0.769874  1.016866  0.803701  2.958964  0.59
Co  Co1  1  0.99999306  0.50000147  0.49999938  1  1.067737  0.835322  2.927024  0.612  1.141719  0.793708  2.882965  0.548  0.76975  1.016848  0.803649  2.958456  0.59
H  H2  1  0.27416672  0.66522613  0.37228270  1  0.108117  0.007235  0.991211  0.012  0.113811  0.009326  0.986627  0.015  0.126984  0.105366  0.00716  0.994005  0.011
H  H3  1  0.22581396  0.16522166  0.37229159  1  0.108034  0.007238  0.991275  0.012  0.113742  0.009331  0.986704  0.015  0.126917  0.105277  0.007166  0.994052  0.011
H  H4  1  0.72581877  0.33477053  0.62771614  1  0.108076  0.007233  0.991331  0.012  0.113778  0.009327  0.986749  0.015  0.126949  0.105319  0.00716  0.994118  0.011
H  H5  1  0.77418130  0.83476809  0.62771369  1  0.108061  0.007238  0.991346  0.012  0.113763  0.009332  0.986774  0.015  0.126943  0.105303  0.007162  0.994129  0.011
H  H6  1  0.78801072  0.90465053  0.27863692  1  0.117423  -0.000277  1.024798  0.0  0.121166  -0.000303  1.023173  0.0  0.103083  0.115052  -0.000245  1.025988  0.0
H  H7  1  0.71199410  0.40464949  0.27862731  1  0.117317  -0.000277  1.024887  0.0  0.121059  -0.000303  1.023266  0.0  0.10305  0.114939  -0.000243  1.026089  0.0
H  H8  1  0.21197476  0.09534958  0.72136683  1  0.117353  -0.000277  1.024833  0.0  0.121098  -0.000303  1.023211  0.0  0.103062  0.114982  -0.000243  1.026022  0.0
H  H9  1  0.28802265  0.59534947  0.72137633  1  0.117306  -0.000277  1.024861  0.0  0.12105  -0.000303  1.023238  0.0  0.103032  0.114938  -0.000244  1.026062  0.0
H  H10  1  0.84836706  0.88219742  0.11703614  1  0.088739  6.4e-05  1.051148  0.0  0.090507  6.7e-05  1.052238  0.0  0.093589  0.087262  7.6e-05  1.051037  0.0
H  H11  1  0.65166667  0.38220424  0.11702287  1  0.088716  6.4e-05  1.051114  0.0  0.090491  6.8e-05  1.052198  0.0  0.093589  0.087248  7.6e-05  1.050966  0.0
H  H12  1  0.15163406  0.11780384  0.88297034  1  0.088732  6.4e-05  1.051086  0.0  0.090506  6.8e-05  1.052171  0.0  0.093612  0.087263  7.7e-05  1.050947  0.0
H  H13  1  0.34834813  0.61780048  0.88297746  1  0.088725  6.4e-05  1.051319  0.0  0.090496  6.7e-05  1.052416  0.0  0.093595  0.087259  7.7e-05  1.05117  0.0
H  H14  1  0.56942213  0.70390709  0.01194259  1  0.087585  -9e-06  1.049513  0.0  0.08994  -2.1e-05  1.048921  0.0  0.094963  0.085922  5e-06  1.049839  0.0
H  H15  1  0.93063600  0.20390792  0.01193871  1  0.087572  -9e-06  1.049506  0.0  0.089927  -2.1e-05  1.048917  0.0  0.094963  0.085909  5e-06  1.049834  0.0
H  H16  1  0.43059658  0.29609878  0.98805591  1  0.087604  -9e-06  1.04955  0.0  0.089958  -2.1e-05  1.04896  0.0  0.094985  0.085943  5e-06  1.049876  0.0
H  H17  1  0.06938466  0.79608874  0.98806339  1  0.087554  -8e-06  1.049409  0.0  0.089903  -2.1e-05  1.048827  0.0  0.094957  0.085896  5e-06  1.049731  0.0
H  H18  1  0.22476669  0.54804452  0.07065317  1  0.094978  -4e-06  1.014092  0.0  0.097253  -1.1e-05  1.013951  0.0  0.098165  0.093215  2e-05  1.014558  0.0
H  H19  1  0.27528825  0.04804022  0.07065875  1  0.095032  -4e-06  1.014074  0.0  0.097303  -1.1e-05  1.013934  0.0  0.098148  0.093265  2e-05  1.014539  0.0
H  H20  1  0.77524029  0.45196826  0.92934474  1  0.095026  -4e-06  1.014027  0.0  0.097295  -1.1e-05  1.013886  0.0  0.09818  0.093261  2e-05  1.014489  0.0
H  H21  1  0.72473632  0.95195530  0.92933997  1  0.095015  -4e-06  1.014007  0.0  0.097284  -1.1e-05  1.013867  0.0  0.098167  0.093253  2e-05  1.01447  0.0
H  H22  1  0.16617684  0.57072466  0.23276784  1  0.103896  8.9e-05  1.031135  0.0  0.106181  3.1e-05  1.031534  0.0  0.100532  0.10208  0.000138  1.031449  0.0
H  H23  1  0.33381989  0.07071710  0.23277690  1  0.103995  8.9e-05  1.031034  0.0  0.10628  3.1e-05  1.031431  0.0  0.100553  0.102177  0.000137  1.031346  0.0
H  H24  1  0.83379888  0.42928237  0.76722622  1  0.103961  8.9e-05  1.031025  0.0  0.106248  3.1e-05  1.031418  0.0  0.100553  0.102148  0.000138  1.031341  0.0
H  H25  1  0.66619882  0.92927496  0.76722342  1  0.103993  8.9e-05  1.031112  0.0  0.106278  3e-05  1.031508  0.0  0.100569  0.102179  0.000138  1.031425  0.0
C  C26  1  0.65524687  0.71666481  0.42014679  1  0.600038  -0.003025  4.049315  0.0  0.639812  -0.001897  4.04141  0.002  0.240798  0.572639  -0.003159  4.057532  -0.001
C  C27  1  0.84469546  0.21665041  0.42013819  1  0.600198  -0.003027  4.04918  0.0  0.639987  -0.0019  4.041297  0.002  0.240993  0.572781  -0.003158  4.057393  -0.001
C  C28  1  0.34471712  0.28332265  0.57985240  1  0.600139  -0.003027  4.0492  0.0  0.639915  -0.001898  4.041307  0.002  0.240744  0.572731  -0.003158  4.057407  -0.001
C  C29  1  0.15528612  0.78333821  0.57985656  1  0.600221  -0.003028  4.049001  0.0  0.640002  -0.001899  4.041116  0.002  0.240903  0.572814  -0.003162  4.05721  -0.001
C  C30  1  0.42220814  0.75212456  0.36388342  1  0.020461  -0.004968  3.938572  -0.006  0.01977  -0.005385  3.942856  -0.006  0.001807  0.019505  -0.003354  3.93434  -0.005
C  C31  1  0.07778151  0.25213341  0.36388350  1  0.020407  -0.004978  3.938448  -0.006  0.019617  -0.005388  3.942913  -0.006  0.001845  0.019511  -0.003363  3.934112  -0.005
C  C32  1  0.57777540  0.24787325  0.63611749  1  0.020524  -0.004978  3.938368  -0.006  0.019805  -0.005396  3.942717  -0.006  0.001925  0.019624  -0.00336  3.934046  -0.005
C  C33  1  0.92222742  0.74786210  0.63611588  1  0.020328  -0.004972  3.93877  -0.006  0.01957  -0.005389  3.943182  -0.006  0.001854  0.019429  -0.003356  3.934445  -0.005
C  C34  1  0.47334093  0.73866275  0.26596177  1  0.070995  0.007032  3.959244  0.009  0.070256  0.00869  3.983062  0.011  -0.011391  0.072264  0.007027  3.942256  0.009
C  C35  1  0.02664966  0.23866453  0.26596183  1  0.071164  0.007029  3.959032  0.009  0.07045  0.008684  3.98287  0.011  -0.011383  0.07242  0.00703  3.94203  0.009
C  C36  1  0.52663284  0.26134082  0.73403844  1  0.07098  0.007029  3.959434  0.009  0.07025  0.008688  3.983263  0.011  -0.01142  0.072241  0.007028  3.942435  0.009
C  C37  1  0.97337100  0.76132754  0.73403783  1  0.071193  0.00703  3.959071  0.009  0.070467  0.008687  3.982908  0.011  -0.011382  0.072456  0.007026  3.942067  0.009
C  C38  1  0.66605854  0.82596474  0.23300203  1  -0.118641  0.002058  3.951667  0.002  -0.119874  0.003105  3.970841  0.003  -0.086745  -0.116887  0.00206  3.937521  0.002
C  C39  1  0.83394389  0.32596065  0.23299648  1  -0.11851  0.002057  3.951742  0.002  -0.119743  0.003104  3.970915  0.003  -0.086706  -0.11676  0.002062  3.937601  0.002
C  C40  1  0.33393281  0.17403652  0.76700055  1  -0.118505  0.002056  3.951532  0.002  -0.119744  0.003104  3.970718  0.003  -0.086698  -0.116754  0.002062  3.937389  0.002
C  C41  1  0.16606505  0.67403601  0.76700366  1  -0.118523  0.002056  3.951734  0.002  -0.119758  0.003102  3.970914  0.003  -0.086716  -0.116774  0.002059  3.937599  0.002
C  C42  1  0.69908482  0.81296287  0.14184965  1  -0.081099  -0.000699  4.027945  0.0  -0.0841  -0.001406  4.051169  -0.001  -0.093357  -0.079373  -0.000351  4.012442  0.0
C  C43  1  0.80093802  0.31296441  0.14184668  1  -0.081208  -0.0007  4.027727  0.0  -0.084221  -0.001409  4.050958  -0.001  -0.093415  -0.079478  -0.000352  4.012228  0.0
C  C44  1  0.30091630  0.18704300  0.85815406  1  -0.081206  -0.000699  4.027752  0.0  -0.084217  -0.001406  4.050981  -0.001  -0.09346  -0.07948  -0.000349  4.012259  0.0
C  C45  1  0.19908460  0.68703110  0.85815529  1  -0.081238  -0.0007  4.027795  0.0  -0.084251  -0.001407  4.051018  -0.001  -0.093407  -0.079507  -0.00035  4.012304  0.0
C  C46  1  0.54169735  0.71316967  0.08308110  1  -0.098766  0.001604  4.028882  0.001  -0.100242  0.002617  4.050289  0.002  -0.095035  -0.097038  0.001509  4.013705  0.001
C  C47  1  0.95836596  0.21317290  0.08307808  1  -0.098598  0.001604  4.028485  0.001  -0.100078  0.00262  4.049899  0.002  -0.095018  -0.096866  0.001509  4.013295  0.001
C  C48  1  0.45831354  0.28683505  0.91691858  1  -0.098658  0.001603  4.028768  0.001  -0.100135  0.002617  4.050179  0.002  -0.094993  -0.096925  0.001508  4.013578  0.001
C  C49  1  0.04165470  0.78682837  0.91692189  1  -0.098593  0.001604  4.028439  0.001  -0.10007  0.002618  4.049852  0.002  -0.09501  -0.096858  0.001509  4.013246  0.001
C  C50  1  0.34984540  0.62579330  0.11577982  1  -0.086193  0.000706  4.041207  0.001  -0.088489  0.000689  4.06295  0.001  -0.094335  -0.084516  0.000785  4.026366  0.001
C  C51  1  0.15019240  0.12578512  0.11578453  1  -0.086325  0.000705  4.041301  0.001  -0.088616  0.000686  4.063043  0.001  -0.094264  -0.084639  0.000785  4.026446  0.001
C  C52  1  0.65015182  0.37421718  0.88421720  1  -0.086298  0.000706  4.041157  0.001  -0.088585  0.000689  4.062889  0.001  -0.094337  -0.084613  0.000786  4.02631  0.001
C  C53  1  0.84983999  0.87421039  0.88421419  1  -0.086315  0.000705  4.041146  0.001  -0.088603  0.000686  4.06288  0.001  -0.094312  -0.084634  0.000785  4.026298  0.001
C  C54  1  0.31598277  0.63864778  0.20699698  1  -0.117671  -0.000352  3.962536  0.0  -0.120043  -0.000209  3.984805  0.0  -0.084415  -0.116101  -0.000217  3.947524  0.0
C  C55  1  0.18402875  0.13864087  0.20700177  1  -0.117877  -0.000353  3.962346  0.0  -0.12025  -0.000207  3.984607  0.0  -0.084495  -0.116308  -0.000217  3.947334  0.0
C  C56  1  0.68400272  0.36135465  0.79299856  1  -0.117766  -0.000354  3.962504  0.0  -0.120136  -0.00021  3.984768  0.0  -0.08447  -0.116202  -0.000216  3.947504  0.0
C  C57  1  0.81598409  0.86135695  0.79299589  1  -0.117835  -0.000352  3.962169  0.0  -0.120206  -0.000206  3.98443  0.0  -0.084451  -0.116266  -0.000216  3.947163  0.0
O  O58  1  0.72525394  0.82646307  0.48192938  1  -0.469686  -0.024546  2.429204  -0.021  -0.50769  -0.033312  2.424993  -0.029  -0.255367  -0.446439  -0.017851  2.433908  -0.015
O  O59  1  0.77471444  0.32645532  0.48193005  1  -0.469837  -0.024561  2.428854  -0.021  -0.507852  -0.033325  2.424647  -0.029  -0.255381  -0.446582  -0.017859  2.433562  -0.015
O  O60  1  0.27472569  0.17354509  0.51807716  1  -0.469607  -0.024531  2.429589  -0.021  -0.507601  -0.033295  2.425376  -0.029  -0.255216  -0.446364  -0.017839  2.434294  -0.015
O  O61  1  0.22528473  0.67354595  0.51806797  1  -0.46977  -0.024543  2.428999  -0.021  -0.507783  -0.033301  2.424791  -0.029  -0.255335  -0.446526  -0.017847  2.433713  -0.015
O  O62  1  0.75894704  0.58509885  0.40663741  1  -0.44877  -0.028622  2.264599  -0.025  -0.490511  -0.034169  2.264013  -0.03  -0.229523  -0.428073  -0.018913  2.270266  -0.017
O  O63  1  0.74103097  0.08511399  0.40665027  1  -0.448775  -0.028598  2.265365  -0.025  -0.490501  -0.03412  2.264767  -0.03  -0.229615  -0.428076  -0.018907  2.271028  -0.017
O  O64  1  0.24105213  0.41490702  0.59335848  1  -0.448866  -0.028654  2.264282  -0.025  -0.490612  -0.034208  2.263699  -0.03  -0.229559  -0.428166  -0.018932  2.269955  -0.017
O  O65  1  0.25895451  0.91489764  0.59334687  1  -0.4488  -0.028618  2.264784  -0.025  -0.490534  -0.034154  2.264192  -0.03  -0.229598  -0.428108  -0.01891  2.270462  -0.017
O  O66  1  0.32667011  0.89980022  0.40230207  1  -0.405228  0.126109  2.142662  0.184  -0.40859  0.155386  2.129875  0.22  -0.294702  -0.393317  0.123465  2.147026  0.175
O  O67  1  0.17332091  0.39979904  0.40229901  1  -0.405241  0.126068  2.142651  0.184  -0.408523  0.155361  2.129879  0.22  -0.294674  -0.393265  0.123492  2.146973  0.175
O  O68  1  0.67330561  0.10018839  0.59769789  1  -0.405359  0.126097  2.142586  0.184  -0.40859  0.155421  2.129734  0.22  -0.294732  -0.39339  0.123488  2.146942  0.175
O  O69  1  0.82667044  0.60020107  0.59770280  1  -0.405204  0.126086  2.142786  0.184  -0.408504  0.155389  2.12996  0.22  -0.294717  -0.393299  0.123439  2.147156  0.175
