# generated using pymatgen
data_Cd2CuH20C26N4(ClO7)2
_symmetry_space_group_name_H-M   'P 1'
_cell_length_a   5.45735482
_cell_length_b   10.08650438
_cell_length_c   13.93140468
_cell_angle_alpha   80.62538196
_cell_angle_beta   86.35069723
_cell_angle_gamma   84.99957920
_symmetry_Int_Tables_number   1
_chemical_formula_structural   Cd2CuH20C26N4(ClO7)2
_chemical_formula_sum   'Cd2 Cu1 H20 C26 N4 Cl2 O14'
_cell_volume   752.78684971
_cell_formula_units_Z   1
loop_
 _symmetry_equiv_pos_site_id
 _symmetry_equiv_pos_as_xyz
  1  'x, y, z'
loop_
 _atom_site_type_symbol
 _atom_site_label
 _atom_site_symmetry_multiplicity
 _atom_site_fract_x
 _atom_site_fract_y
 _atom_site_fract_z
 _atom_site_occupancy
 _atom_site_pbe_cm5_charge
 _atom_site_pbe_ddec_charge
 _atom_site_pbe_ddec_spin_density
 _atom_site_pbe_ddec_sum_bond_order
 _atom_site_pbe_magmom
Cd  Cd0  1  0.73229157  0.02656276  0.09564952  1  0.723886  0.971805  1.4e-05  2.113581  0.0
Cd  Cd1  1  0.26769490  0.97343882  0.90435053  1  0.723883  0.971848  1.4e-05  2.113447  0.0
Cu  Cu2  1  0.99998423  0.00000713  0.49999428  1  0.769392  0.724629  0.716424  2.269133  0.55
H  H3  1  0.20033680  0.23382360  0.33721959  1  0.310133  0.377332  -0.000304  0.946364  0.0
H  H4  1  0.79968931  0.76616242  0.66277084  1  0.310045  0.377222  -0.000304  0.946297  0.0
H  H5  1  0.22087573  0.87555576  0.12126765  1  0.261694  0.373501  9e-06  0.969948  0.0
H  H6  1  0.77912648  0.12445097  0.87873179  1  0.26169  0.373524  9e-06  0.96991  0.0
H  H7  1  0.02751881  0.79900740  0.06455627  1  0.282266  0.36966  0.0  0.982154  0.0
H  H8  1  0.97245462  0.20100490  0.93545334  1  0.282187  0.369526  0.0  0.98232  0.0
H  H9  1  0.77826534  0.47719745  0.25995120  1  0.11233  0.11876  6.3e-05  1.016304  0.0
H  H10  1  0.22176641  0.52278829  0.74005122  1  0.112305  0.118808  6.3e-05  1.016456  0.0
H  H11  1  0.42920364  0.61394133  0.17318179  1  0.102074  0.10861  -2e-05  1.017915  0.0
H  H12  1  0.57080397  0.38604885  0.82683572  1  0.102028  0.108539  -2e-05  1.017826  0.0
H  H13  1  0.19166768  0.50228404  0.06137574  1  0.113548  0.134142  0.0  1.015874  0.0
H  H14  1  0.80837355  0.49773531  0.93861394  1  0.113591  0.134182  0.0  1.016055  0.0
H  H15  1  0.47642959  0.40781136  0.53508208  1  0.109547  0.113764  0.00093  1.031929  0.001
H  H16  1  0.52354562  0.59218496  0.46492341  1  0.109547  0.113698  0.000931  1.031701  0.001
H  H17  1  0.74199938  0.49691891  0.64931163  1  0.108543  0.111041  5.5e-05  1.011051  0.0
H  H18  1  0.25798622  0.50306325  0.35069920  1  0.108558  0.11099  5.5e-05  1.010931  0.0
H  H19  1  0.11163782  0.34514894  0.71442892  1  0.105463  0.111532  0.000463  1.024096  0.0
H  H20  1  0.88831180  0.65482988  0.28558476  1  0.105461  0.111679  0.000463  1.024139  0.0
H  H21  1  0.21604060  0.13008044  0.65249472  1  0.111795  0.103207  0.001042  1.037837  0.002
H  H22  1  0.78395681  0.86991339  0.34749700  1  0.111806  0.103229  0.001041  1.038032  0.002
C  C23  1  0.95182427  0.21953651  0.23924326  1  0.234146  0.552455  -0.000126  4.137829  0.0
C  C24  1  0.04815781  0.78045731  0.76074490  1  0.234183  0.552433  -0.000126  4.138458  0.0
C  C25  1  0.74005679  0.30498753  0.19154454  1  0.116863  0.103106  2.1e-05  3.980724  0.0
C  C26  1  0.25996829  0.69501955  0.80844798  1  0.116837  0.102973  2.1e-05  3.979962  0.0
C  C27  1  0.67431035  0.43591684  0.20941152  1  -0.065305  -0.104724  2.9e-05  3.897138  0.0
C  C28  1  0.32571772  0.56406494  0.79058719  1  -0.065292  -0.104778  2.9e-05  3.897083  0.0
C  C29  1  0.47776322  0.51015163  0.16177573  1  -0.060945  -0.014061  -1.9e-05  3.924296  0.0
C  C30  1  0.52225739  0.48985395  0.83823371  1  -0.060994  -0.01396  -1.9e-05  3.924843  0.0
C  C31  1  0.34876503  0.44962849  0.09973429  1  -0.06786  -0.118425  -9e-06  3.891833  0.0
C  C32  1  0.65124245  0.55036594  0.90027485  1  -0.067871  -0.118561  -9e-06  3.892194  0.0
C  C33  1  0.42567347  0.31764421  0.08590874  1  0.117436  0.112881  8e-06  3.94943  0.0
C  C34  1  0.57433358  0.68237052  0.91409391  1  0.117409  0.112836  8e-06  3.949622  0.0
C  C35  1  0.29132973  0.24609128  0.02020585  1  0.207968  0.539559  4e-06  4.219017  0.0
C  C36  1  0.70867454  0.75390532  0.97979674  1  0.207933  0.539561  4e-06  4.219147  0.0
C  C37  1  0.59350081  0.17612758  0.45276328  1  0.210892  0.545149  -0.001188  4.219293  -0.002
C  C38  1  0.40649443  0.82389405  0.54724137  1  0.210937  0.544903  -0.001184  4.219318  -0.002
C  C39  1  0.72066436  0.23274765  0.52818590  1  0.1117  0.10161  -0.000693  3.95984  0.0
C  C40  1  0.27933298  0.76724325  0.47180254  1  0.111855  0.101744  -0.000689  3.959638  0.0
C  C41  1  0.64623968  0.35334270  0.56086331  1  -0.073514  -0.120026  0.00203  3.928825  0.002
C  C42  1  0.35371406  0.64665465  0.43913593  1  -0.073731  -0.120113  0.002029  3.929609  0.002
C  C43  1  0.79070823  0.39960978  0.62587617  1  -0.061286  -0.018192  -0.003382  3.921551  -0.002
C  C44  1  0.20926791  0.60039258  0.37412934  1  -0.061212  -0.018089  -0.003381  3.921705  -0.002
C  C45  1  0.99659181  0.31875144  0.66043971  1  -0.073805  -0.10738  0.004182  3.922031  0.005
C  C46  1  0.00337718  0.68123711  0.33955398  1  -0.073798  -0.107566  0.00418  3.922061  0.005
C  C47  1  0.05762184  0.19674429  0.62683680  1  0.060608  0.124063  -0.001235  3.88154  -0.001
C  C48  1  0.94236784  0.80324856  0.37315181  1  0.060419  0.123959  -0.001235  3.881545  -0.001
N  N49  1  0.61889553  0.24795963  0.13023679  1  -0.305486  -0.265607  1e-06  3.498114  0.0
N  N50  1  0.38113906  0.75203705  0.86977078  1  -0.305383  -0.265384  1e-06  3.498251  0.0
N  N51  1  0.92399485  0.15764260  0.56084084  1  -0.360222  -0.240861  0.052829  3.674797  0.068
N  N52  1  0.07600301  0.84237040  0.43914879  1  -0.360119  -0.240752  0.05282  3.6743  0.068
Cl  Cl53  1  0.50021357  0.86053794  0.21632956  1  -0.301442  -0.530546  0.00012  1.176605  0.0
Cl  Cl54  1  0.49978955  0.13946473  0.78367171  1  -0.301459  -0.530584  0.000121  1.176566  0.0
O  O55  1  0.05367727  0.28266716  0.30134914  1  -0.323798  -0.486417  -0.000328  2.373171  0.0
O  O56  1  0.94637073  0.71730832  0.69866437  1  -0.323575  -0.486166  -0.000327  2.373782  0.0
O  O57  1  0.01787534  0.10638210  0.22056170  1  -0.270135  -0.468494  -0.000169  2.220248  0.0
O  O58  1  0.98211133  0.89360541  0.77943771  1  -0.270294  -0.468654  -0.000169  2.220435  0.0
O  O59  1  0.37138287  0.12531911  0.01429863  1  -0.321223  -0.544196  0.0  2.420772  0.0
O  O60  1  0.62863835  0.87468307  0.98568813  1  -0.321277  -0.544232  0.0  2.420369  0.0
O  O61  1  0.10900514  0.31062745  0.97754987  1  -0.311455  -0.529616  4e-06  2.187375  0.0
O  O62  1  0.89097158  0.68939180  0.02246385  1  -0.311429  -0.529581  4e-06  2.187795  0.0
O  O63  1  0.09293369  0.88838943  0.07161483  1  -0.574227  -0.745324  1.5e-05  2.253276  0.0
O  O64  1  0.90706178  0.11162138  0.92838090  1  -0.57417  -0.745133  1.5e-05  2.253083  0.0
O  O65  1  0.70022395  0.06729264  0.42730212  1  -0.315543  -0.511535  0.075334  2.330891  0.107
O  O66  1  0.29976870  0.93272549  0.57268289  1  -0.315366  -0.511204  0.075293  2.331228  0.106
O  O67  1  0.40010506  0.23694288  0.41868092  1  -0.299321  -0.529133  0.012133  2.227469  0.016
O  O68  1  0.59990006  0.76308815  0.58131358  1  -0.299425  -0.529167  0.012128  2.227542  0.016
