# generated using pymatgen
data_GdH6C7SO8
_symmetry_space_group_name_H-M   'P 1'
_cell_length_a   7.99243157
_cell_length_b   8.25858842
_cell_length_c   18.15962764
_cell_angle_alpha   90.00051605
_cell_angle_beta   89.99949884
_cell_angle_gamma   108.88316310
_symmetry_Int_Tables_number   1
_chemical_formula_structural   GdH6C7SO8
_chemical_formula_sum   'Gd4 H24 C28 S4 O32'
_cell_volume   1134.13742957
_cell_formula_units_Z   4
loop_
 _symmetry_equiv_pos_site_id
 _symmetry_equiv_pos_as_xyz
  1  'x, y, z'
loop_
 _atom_site_type_symbol
 _atom_site_label
 _atom_site_symmetry_multiplicity
 _atom_site_fract_x
 _atom_site_fract_y
 _atom_site_fract_z
 _atom_site_occupancy
 _atom_site_hle17_bader_spin_density
 _atom_site_hle17_ddec_charge
 _atom_site_hle17_ddec_spin_density
 _atom_site_hle17_ddec_sum_bond_order
 _atom_site_hle17_magmom
 _atom_site_hse06_10hf_bader_spin_density
 _atom_site_hse06_10hf_ddec_charge
 _atom_site_hse06_10hf_ddec_spin_density
 _atom_site_hse06_10hf_ddec_sum_bond_order
 _atom_site_hse06_10hf_magmom
 _atom_site_hse06_bader_spin_density
 _atom_site_hse06_ddec_charge
 _atom_site_hse06_ddec_spin_density
 _atom_site_hse06_ddec_sum_bond_order
 _atom_site_hse06_magmom
 _atom_site_pbe_bader_spin_density
 _atom_site_pbe_cm5_charge
 _atom_site_pbe_ddec_charge
 _atom_site_pbe_ddec_spin_density
 _atom_site_pbe_ddec_sum_bond_order
 _atom_site_pbe_magmom
Gd  Gd0  1  0.25004262  0.22828532  0.48000983  1  0  2.224817  0  1.783992  0  0  2.137871  0  2.139595  0  0  2.188472  0  2.087866  0  0  1.462312  2.095539  0  2.18611  0
Gd  Gd1  1  0.24995904  0.77171402  0.98001020  1  0  2.224848  0  1.783936  0  0  2.137882  0  2.139563  0  0  2.188568  0  2.087697  0  0  1.462327  2.095554  0  2.186068  0
Gd  Gd2  1  0.74995313  0.77171372  0.51999098  1  0  2.224839  0  1.783998  0  0  2.137825  0  2.139694  0  0  2.188479  0  2.08788  0  0  1.462308  2.095503  0  2.186191  0
Gd  Gd3  1  0.75004790  0.22828481  0.01999062  1  0  2.224873  0  1.78401  0  0  2.137905  0  2.139643  0  0  2.188551  0  2.087839  0  0  1.462347  2.095575  0  2.186158  0
H  H4  1  0.00996212  0.22794839  0.35221362  1  0  0.439849  0  0.80352  0  0  0.425643  0  0.852683  0  0  0.433233  0  0.844431  0  0  0.335675  0.420216  0  0.858528  0
H  H5  1  0.49003227  0.77204793  0.85221251  1  0  0.439859  0  0.80347  0  0  0.425614  0  0.852691  0  0  0.433204  0  0.844442  0  0  0.335643  0.420188  0  0.858535  0
H  H6  1  0.99001815  0.77204580  0.64778829  1  0  0.439771  0  0.803535  0  0  0.425535  0  0.852753  0  0  0.433125  0  0.844505  0  0  0.335585  0.420108  0  0.858595  0
H  H7  1  0.50997264  0.22795223  0.14778555  1  0  0.439833  0  0.803546  0  0  0.425595  0  0.852761  0  0  0.433186  0  0.84451  0  0  0.335629  0.420168  0  0.858605  0
H  H8  1  0.88180666  0.16067951  0.42137620  1  0  0.446941  0  0.849136  0  0  0.413894  0  0.915045  0  0  0.426106  0  0.897163  0  0  0.303685  0.405213  0  0.92773  0
H  H9  1  0.61819276  0.83931593  0.92137461  1  0  0.446915  0  0.849174  0  0  0.413858  0  0.915102  0  0  0.426073  0  0.897215  0  0  0.303648  0.405174  0  0.92779  0
H  H10  1  0.11818435  0.83931319  0.57862681  1  0  0.446842  0  0.849236  0  0  0.413811  0  0.915137  0  0  0.426025  0  0.897254  0  0  0.303646  0.405127  0  0.927826  0
H  H11  1  0.38181214  0.16068423  0.07862400  1  0  0.44695  0  0.849127  0  0  0.413899  0  0.91504  0  0  0.426115  0  0.897154  0  0  0.303684  0.405216  0  0.927726  0
H  H12  1  0.28045103  0.60926031  0.51229151  1  0  0.447204  0  0.845508  0  0  0.417602  0  0.905517  0  0  0.428489  0  0.889629  0  0  0.309376  0.409852  0  0.916787  0
H  H13  1  0.21955276  0.39073986  0.01228918  1  0  0.44728  0  0.845403  0  0  0.417659  0  0.905447  0  0  0.428547  0  0.889558  0  0  0.309403  0.409908  0  0.916719  0
H  H14  1  0.71954890  0.39073995  0.48770875  1  0  0.447185  0  0.845534  0  0  0.417581  0  0.905549  0  0  0.428468  0  0.889662  0  0  0.309368  0.40983  0  0.916818  0
H  H15  1  0.78045294  0.60925899  0.98770778  1  0  0.447196  0  0.845517  0  0  0.417586  0  0.905542  0  0  0.428474  0  0.889654  0  0  0.309358  0.409836  0  0.91681  0
H  H16  1  0.11546163  0.52095568  0.45964464  1  0  0.442458  0  0.815188  0  0  0.419402  0  0.879386  0  0  0.427554  0  0.870256  0  0  0.324665  0.413523  0  0.885848  0
H  H17  1  0.38455140  0.47905345  0.95964658  1  0  0.442443  0  0.815232  0  0  0.419387  0  0.879429  0  0  0.427541  0  0.870282  0  0  0.324682  0.41351  0  0.885895  0
H  H18  1  0.88453954  0.47904455  0.54035397  1  0  0.442493  0  0.815148  0  0  0.419442  0  0.879336  0  0  0.427595  0  0.870202  0  0  0.324705  0.413564  0  0.885803  0
H  H19  1  0.61546073  0.52095301  0.04035369  1  0  0.442486  0  0.815183  0  0  0.419429  0  0.879378  0  0  0.427584  0  0.870221  0  0  0.324694  0.413551  0  0.88584  0
H  H20  1  0.86794243  0.54231810  0.38405908  1  0  0.123629  0  0.981834  0  0  0.133188  0  1.042737  0  0  0.136726  0  1.040015  0  0  0.112501  0.130626  0  1.044744  0
H  H21  1  0.63207122  0.45767651  0.88405915  1  0  0.123549  0  0.981892  0  0  0.13312  0  1.042793  0  0  0.136656  0  1.040073  0  0  0.112443  0.130558  0  1.044797  0
H  H22  1  0.13205772  0.45768988  0.61594064  1  0  0.123674  0  0.981922  0  0  0.13328  0  1.042738  0  0  0.136818  0  1.040017  0  0  0.112579  0.13072  0  1.04474  0
H  H23  1  0.36792906  0.54232116  0.11594166  1  0  0.123643  0  0.981811  0  0  0.133176  0  1.04275  0  0  0.136715  0  1.040026  0  0  0.112476  0.130617  0  1.04475  0
H  H24  1  0.81850237  0.37609621  0.25604078  1  0  0.119026  0  0.926354  0  0  0.132219  0  0.978914  0  0  0.136012  0  0.976288  0  0  0.113381  0.129427  0  0.980965  0
H  H25  1  0.68150084  0.62390059  0.75604245  1  0  0.119008  0  0.926367  0  0  0.132207  0  0.978917  0  0  0.135999  0  0.976291  0  0  0.113382  0.129417  0  0.980969  0
H  H26  1  0.18149846  0.62390660  0.74395838  1  0  0.118966  0  0.926329  0  0  0.132159  0  0.978894  0  0  0.135951  0  0.976268  0  0  0.11336  0.129368  0  0.980945  0
H  H27  1  0.31849740  0.37609841  0.24395781  1  0  0.118999  0  0.926379  0  0  0.132199  0  0.978932  0  0  0.135991  0  0.976305  0  0  0.113364  0.129409  0  0.980982  0
C  C28  1  0.04786123  0.76006358  0.32677525  1  0  -0.161661  0  3.720492  0  0  -0.143521  0  3.989964  0  0  -0.15077  0  4.009796  0  0  -0.026366  -0.138839  0  3.976794  0
C  C29  1  0.45214393  0.23993345  0.82677538  1  0  -0.161679  0  3.720499  0  0  -0.143443  0  3.989819  0  0  -0.1507  0  4.009668  0  0  -0.026324  -0.138759  0  3.976645  0
C  C30  1  0.95214514  0.23994428  0.67322501  1  0  -0.161654  0  3.720447  0  0  -0.143525  0  3.989935  0  0  -0.150768  0  4.009759  0  0  -0.026367  -0.138843  0  3.976762  0
C  C31  1  0.54785307  0.76006557  0.17322653  1  0  -0.161636  0  3.720492  0  0  -0.143473  0  3.98991  0  0  -0.150732  0  4.009754  0  0  -0.026306  -0.138786  0  3.976733  0
C  C32  1  0.93148271  0.59419285  0.33249523  1  0  -0.082535  0  3.760822  0  0  -0.116054  0  4.029021  0  0  -0.115123  0  4.046976  0  0  -0.097918  -0.116473  0  4.016739  0
C  C33  1  0.56852842  0.40580234  0.83249423  1  0  -0.08256  0  3.760879  0  0  -0.116117  0  4.029041  0  0  -0.115185  0  4.047002  0  0  -0.097926  -0.116536  0  4.016756  0
C  C34  1  0.06851937  0.40580994  0.66750393  1  0  -0.082757  0  3.76109  0  0  -0.116311  0  4.029293  0  0  -0.115383  0  4.047247  0  0  -0.098038  -0.116731  0  4.017011  0
C  C35  1  0.43147310  0.59419531  0.16750548  1  0  -0.08259  0  3.760898  0  0  -0.116102  0  4.029092  0  0  -0.115165  0  4.047043  0  0  -0.097921  -0.116522  0  4.016809  0
C  C36  1  0.90561373  0.50642524  0.26501409  1  0  -0.076529  0  3.750771  0  0  -0.107576  0  4.014716  0  0  -0.107645  0  4.033212  0  0  -0.095737  -0.107366  0  4.002076  0
C  C37  1  0.59439432  0.49357161  0.76501335  1  0  -0.076423  0  3.750716  0  0  -0.107433  0  4.014671  0  0  -0.1075  0  4.033168  0  0  -0.095712  -0.107227  0  4.002035  0
C  C38  1  0.09438462  0.49357763  0.73498728  1  0  -0.07632  0  3.75061  0  0  -0.107347  0  4.014565  0  0  -0.107412  0  4.033058  0  0  -0.095681  -0.107139  0  4.001928  0
C  C39  1  0.40561093  0.50642597  0.23498691  1  0  -0.076495  0  3.750815  0  0  -0.107525  0  4.014758  0  0  -0.107592  0  4.033252  0  0  -0.095741  -0.107316  0  4.002121  0
C  C40  1  0.00144503  0.60617094  0.20810519  1  0  -0.15263  0  3.708662  0  0  -0.132417  0  3.96981  0  0  -0.139373  0  3.990656  0  0  -0.020045  -0.12788  0  3.955915  0
C  C41  1  0.49855294  0.39383092  0.70810578  1  0  -0.152677  0  3.708572  0  0  -0.132559  0  3.969866  0  0  -0.139519  0  3.990716  0  0  -0.020077  -0.128022  0  3.955974  0
C  C42  1  0.99855591  0.39383573  0.79189507  1  0  -0.15275  0  3.708821  0  0  -0.132561  0  3.970042  0  0  -0.139526  0  3.990898  0  0  -0.020057  -0.128023  0  3.956148  0
C  C43  1  0.50144903  0.60616800  0.29189393  1  0  -0.152577  0  3.708747  0  0  -0.132437  0  3.969945  0  0  -0.139396  0  3.990796  0  0  -0.02  -0.127902  0  3.956055  0
C  C44  1  0.09192456  0.88996550  0.38587907  1  0  0.702768  0  3.932034  0  0  0.6575  0  4.228648  0  0  0.693381  0  4.216789  0  0  0.212561  0.633069  0  4.235428  0
C  C45  1  0.40807589  0.11002862  0.88587883  1  0  0.702727  0  3.932074  0  0  0.657446  0  4.228682  0  0  0.693328  0  4.21683  0  0  0.212593  0.633013  0  4.235461  0
C  C46  1  0.90807503  0.11003734  0.61411844  1  0  0.703156  0  3.931743  0  0  0.657898  0  4.228338  0  0  0.69378  0  4.216477  0  0  0.21277  0.633466  0  4.235122  0
C  C47  1  0.59192438  0.88996905  0.11412198  1  0  0.702971  0  3.932057  0  0  0.657711  0  4.228643  0  0  0.693601  0  4.216773  0  0  0.212666  0.633277  0  4.235423  0
C  C48  1  0.99610941  0.55272137  0.13030585  1  0  0.744137  0  3.889527  0  0  0.699588  0  4.178392  0  0  0.735955  0  4.165655  0  0  0.233537  0.674807  0  4.185842  0
C  C49  1  0.50387960  0.44727772  0.63030803  1  0  0.744117  0  3.889661  0  0  0.699544  0  4.178588  0  0  0.735912  0  4.165854  0  0  0.233519  0.674762  0  4.186041  0
C  C50  1  0.00388939  0.44728277  0.86969386  1  0  0.744204  0  3.889487  0  0  0.699606  0  4.178427  0  0  0.735979  0  4.165695  0  0  0.233539  0.674826  0  4.185879  0
C  C51  1  0.49611186  0.55271625  0.36969279  1  0  0.74392  0  3.889812  0  0  0.699441  0  4.178569  0  0  0.735808  0  4.165838  0  0  0.233504  0.674661  0  4.186019  0
C  C52  1  0.57448846  0.06747417  0.47886457  1  0  0.587278  0  3.868864  0  0  0.539274  0  4.17047  0  0  0.569567  0  4.161217  0  0  0.234858  0.518688  0  4.175657  0
C  C53  1  0.92551849  0.93251037  0.97886382  1  0  0.587385  0  3.868465  0  0  0.539304  0  4.170117  0  0  0.569601  0  4.160864  0  0  0.234888  0.518726  0  4.175286  0
C  C54  1  0.42550097  0.93252114  0.52114010  1  0  0.587279  0  3.868829  0  0  0.539183  0  4.170564  0  0  0.569477  0  4.161309  0  0  0.234877  0.518602  0  4.175747  0
C  C55  1  0.07448212  0.06748472  0.02113699  1  0  0.587186  0  3.868564  0  0  0.539239  0  4.170048  0  0  0.569533  0  4.160796  0  0  0.234875  0.51866  0  4.175221  0
S  S56  1  0.12687849  0.80632402  0.23826237  1  0  0.189129  0  2.576714  0  0  0.179112  0  2.882704  0  0  0.179251  0  2.891782  0  0  0.110816  0.178538  0  2.877061  0
S  S57  1  0.37311678  0.19367190  0.73826647  1  0  0.189171  0  2.576544  0  0  0.179167  0  2.882516  0  0  0.179304  0  2.8916  0  0  0.110823  0.17859  0  2.876873  0
S  S58  1  0.87312449  0.19368133  0.76173789  1  0  0.189083  0  2.576669  0  0  0.179092  0  2.882673  0  0  0.179218  0  2.89175  0  0  0.110753  0.178517  0  2.877029  0
S  S59  1  0.62687999  0.80631940  0.26173655  1  0  0.189126  0  2.576755  0  0  0.179119  0  2.882757  0  0  0.179257  0  2.89184  0  0  0.110779  0.178544  0  2.877115  0
O  O60  1  0.22360858  0.02580552  0.37858117  1  0  -0.701559  0  1.966572  0  0  -0.665784  0  2.200681  0  0  -0.688711  0  2.188085  0  0  -0.379649  -0.649193  0  2.208894  0
O  O61  1  0.27639412  0.97419103  0.87858227  1  0  -0.701564  0  1.966505  0  0  -0.665801  0  2.200635  0  0  -0.688737  0  2.188034  0  0  -0.379713  -0.649213  0  2.208848  0
O  O62  1  0.77639474  0.97419725  0.62141909  1  0  -0.701703  0  1.966494  0  0  -0.665923  0  2.20061  0  0  -0.688859  0  2.188008  0  0  -0.379709  -0.649335  0  2.208823  0
O  O63  1  0.72360401  0.02580411  0.12141799  1  0  -0.701647  0  1.966691  0  0  -0.665877  0  2.200809  0  0  -0.68881  0  2.188202  0  0  -0.379716  -0.649289  0  2.209024  0
O  O64  1  0.99218688  0.86113984  0.44291973  1  0  -0.768142  0  2.093207  0  0  -0.725795  0  2.356325  0  0  -0.751979  0  2.343861  0  0  -0.413694  -0.706072  0  2.363902  0
O  O65  1  0.50781686  0.13885840  0.94291897  1  0  -0.768084  0  2.093338  0  0  -0.725741  0  2.356449  0  0  -0.751929  0  2.343987  0  0  -0.413675  -0.70602  0  2.364025  0
O  O66  1  0.00780751  0.13886954  0.55707777  1  0  -0.768319  0  2.093369  0  0  -0.725988  0  2.356493  0  0  -0.752141  0  2.343976  0  0  -0.4138  -0.706267  0  2.364071  0
O  O67  1  0.49218759  0.86114048  0.05707964  1  0  -0.768253  0  2.09323  0  0  -0.725925  0  2.356354  0  0  -0.752116  0  2.343885  0  0  -0.413734  -0.706202  0  2.36393  0
O  O68  1  0.88695739  0.40679104  0.11473110  1  0  -0.719423  0  2.045265  0  0  -0.676218  0  2.293567  0  0  -0.701813  0  2.280634  0  0  -0.406518  -0.657431  0  2.301709  0
O  O69  1  0.61304044  0.59320379  0.61473071  1  0  -0.719405  0  2.045317  0  0  -0.676179  0  2.293653  0  0  -0.701779  0  2.280723  0  0  -0.406511  -0.657391  0  2.301795  0
O  O70  1  0.11304413  0.59320660  0.88526971  1  0  -0.719422  0  2.045209  0  0  -0.676203  0  2.293536  0  0  -0.70181  0  2.2806  0  0  -0.406533  -0.657416  0  2.301678  0
O  O71  1  0.38696097  0.40679000  0.38526790  1  0  -0.719322  0  2.045377  0  0  -0.67614  0  2.293641  0  0  -0.70173  0  2.280714  0  0  -0.406508  -0.657353  0  2.301782  0
O  O72  1  0.09803441  0.65351922  0.08423858  1  0  -0.750238  0  2.079022  0  0  -0.71224  0  2.344659  0  0  -0.737297  0  2.330678  0  0  -0.413668  -0.693584  0  2.353314  0
O  O73  1  0.40195917  0.34648092  0.58424154  1  0  -0.750214  0  2.079101  0  0  -0.712206  0  2.344764  0  0  -0.737224  0  2.330731  0  0  -0.413636  -0.693551  0  2.353419  0
O  O74  1  0.90196021  0.34648372  0.91576003  1  0  -0.750258  0  2.079024  0  0  -0.712268  0  2.344751  0  0  -0.737262  0  2.330637  0  0  -0.413666  -0.693613  0  2.353407  0
O  O75  1  0.59803648  0.65351427  0.41576037  1  0  -0.750187  0  2.079159  0  0  -0.712192  0  2.344755  0  0  -0.737215  0  2.33071  0  0  -0.413665  -0.693536  0  2.35341  0
O  O76  1  0.55245207  0.20957591  0.46586574  1  0  -0.637702  0  2.095338  0  0  -0.590284  0  2.325233  0  0  -0.614201  0  2.315231  0  0  -0.333046  -0.573123  0  2.331639  0
O  O77  1  0.94754806  0.79042403  0.96586487  1  0  -0.637609  0  2.095774  0  0  -0.590175  0  2.325711  0  0  -0.614099  0  2.315709  0  0  -0.332969  -0.573025  0  2.332115  0
O  O78  1  0.44754052  0.79041419  0.53413672  1  0  -0.637704  0  2.095227  0  0  -0.590245  0  2.32516  0  0  -0.614172  0  2.31516  0  0  -0.33301  -0.573087  0  2.331566  0
O  O79  1  0.05246137  0.20957475  0.03413154  1  0  -0.637568  0  2.095775  0  0  -0.590163  0  2.325652  0  0  -0.614082  0  2.315645  0  0  -0.332943  -0.573012  0  2.33206  0
O  O80  1  0.70764272  0.02453411  0.46116562  1  0  -0.650614  0  2.134233  0  0  -0.601274  0  2.367633  0  0  -0.62649  0  2.358152  0  0  -0.332635  -0.583175  0  2.373648  0
O  O81  1  0.79234753  0.97546595  0.96116447  1  0  -0.65076  0  2.133524  0  0  -0.601408  0  2.36696  0  0  -0.62663  0  2.357472  0  0  -0.332726  -0.583309  0  2.372976  0
O  O82  1  0.29234964  0.97546242  0.53883299  1  0  -0.650572  0  2.134331  0  0  -0.601229  0  2.367786  0  0  -0.626439  0  2.358309  0  0  -0.332651  -0.583131  0  2.3738  0
O  O83  1  0.20765669  0.02453938  0.03883525  1  0  -0.650733  0  2.133615  0  0  -0.601411  0  2.366973  0  0  -0.62663  0  2.357486  0  0  -0.332746  -0.583311  0  2.372985  0
O  O84  1  0.99943637  0.24165209  0.40496942  1  0  -0.882855  0  1.859052  0  0  -0.843006  0  2.047461  0  0  -0.861663  0  2.019331  0  0  -0.618704  -0.829118  0  2.067134  0
O  O85  1  0.50056511  0.75834822  0.90496905  1  0  -0.882858  0  1.859058  0  0  -0.842956  0  2.047526  0  0  -0.861616  0  2.019371  0  0  -0.618657  -0.829068  0  2.0672  0
O  O86  1  0.00055182  0.75834324  0.59503139  1  0  -0.882668  0  1.859108  0  0  -0.842791  0  2.047515  0  0  -0.861459  0  2.019388  0  0  -0.618585  -0.828902  0  2.067186  0
O  O87  1  0.49944364  0.24165573  0.09502846  1  0  -0.88286  0  1.859081  0  0  -0.842967  0  2.047538  0  0  -0.861633  0  2.019405  0  0  -0.618694  -0.829078  0  2.067212  0
O  O88  1  0.18763558  0.49939276  0.49933084  1  0  -0.883344  0  1.894152  0  0  -0.841089  0  2.088717  0  0  -0.859705  0  2.060657  0  0  -0.615394  -0.827203  0  2.108447  0
O  O89  1  0.31237428  0.50061315  0.99932984  1  0  -0.883412  0  1.894134  0  0  -0.84112  0  2.088685  0  0  -0.859749  0  2.060608  0  0  -0.615412  -0.82724  0  2.108414  0
O  O90  1  0.81236854  0.50060870  0.50066887  1  0  -0.883378  0  1.894165  0  0  -0.841103  0  2.088714  0  0  -0.859727  0  2.060648  0  0  -0.615418  -0.827224  0  2.108444  0
O  O91  1  0.68763232  0.49938827  0.00066877  1  0  -0.883364  0  1.894171  0  0  -0.841087  0  2.088718  0  0  -0.85971  0  2.060631  0  0  -0.615384  -0.827203  0  2.108447  0
