# generated using pymatgen
data_CuPH20C24NCl
_symmetry_space_group_name_H-M   'P 1'
_cell_length_a   8.13074677
_cell_length_b   11.33443967
_cell_length_c   13.47381646
_cell_angle_alpha   110.03367500
_cell_angle_beta   93.39698977
_cell_angle_gamma   99.15825532
_symmetry_Int_Tables_number   1
_chemical_formula_structural   CuPH20C24NCl
_chemical_formula_sum   'Cu2 P2 H40 C48 N2 Cl2'
_cell_volume   1143.00919628
_cell_formula_units_Z   2
loop_
 _symmetry_equiv_pos_site_id
 _symmetry_equiv_pos_as_xyz
  1  'x, y, z'
loop_
 _atom_site_type_symbol
 _atom_site_label
 _atom_site_symmetry_multiplicity
 _atom_site_fract_x
 _atom_site_fract_y
 _atom_site_fract_z
 _atom_site_occupancy
 _atom_site_hle17_bader_spin_density
 _atom_site_hle17_ddec_charge
 _atom_site_hle17_ddec_spin_density
 _atom_site_hle17_ddec_sum_bond_order
 _atom_site_hle17_magmom
 _atom_site_hse06_10hf_bader_spin_density
 _atom_site_hse06_10hf_ddec_charge
 _atom_site_hse06_10hf_ddec_spin_density
 _atom_site_hse06_10hf_ddec_sum_bond_order
 _atom_site_hse06_10hf_magmom
 _atom_site_hse06_bader_spin_density
 _atom_site_hse06_ddec_charge
 _atom_site_hse06_ddec_spin_density
 _atom_site_hse06_ddec_sum_bond_order
 _atom_site_hse06_magmom
 _atom_site_pbe_bader_spin_density
 _atom_site_pbe_cm5_charge
 _atom_site_pbe_ddec_charge
 _atom_site_pbe_ddec_spin_density
 _atom_site_pbe_ddec_sum_bond_order
 _atom_site_pbe_magmom
Cu  Cu0  1  0.49968250  0.38317976  0.91878550  1  0  0.255823  0  2.271921  0  0  0.17578  0  2.770901  0  0  0.169601  0  2.730744  0  0  0.404551  0.182931  0  2.794784  0
Cu  Cu1  1  0.50030524  0.61682316  0.08121523  1  0  0.255745  0  2.27185  0  0  0.175687  0  2.770823  0  0  0.169469  0  2.730654  0  0  0.404531  0.182827  0  2.794767  0
P  P2  1  0.36387076  0.31436485  0.75941237  1  0  0.286768  0  3.807143  0  0  0.212661  0  4.284822  0  0  0.232787  0  4.269477  0  0  -0.04643  0.19951  0  4.293326  0
P  P3  1  0.63612489  0.68562960  0.24058701  1  0  0.286835  0  3.807014  0  0  0.212757  0  4.284759  0  0  0.232907  0  4.269378  0  0  -0.046396  0.199599  0  4.293292  0
H  H4  1  0.85517472  0.37997188  0.89602806  1  0  0.076817  0  0.95238  0  0  0.084485  0  1.019928  0  0  0.087447  0  1.017183  0  0  0.107912  0.082316  0  1.021881  0
H  H5  1  0.14481250  0.62003967  0.10398029  1  0  0.076956  0  0.952301  0  0  0.084626  0  1.019824  0  0  0.087586  0  1.017084  0  0  0.107947  0.082456  0  1.021783  0
H  H6  1  0.06406047  0.24879860  0.91768945  1  0  0.107712  0  0.982091  0  0  0.115339  0  1.048389  0  0  0.11813  0  1.048498  0  0  0.097072  0.113628  0  1.047698  0
H  H7  1  0.93593026  0.75121199  0.08231282  1  0  0.107789  0  0.982097  0  0  0.115397  0  1.048411  0  0  0.118188  0  1.04852  0  0  0.097036  0.113697  0  1.047682  0
H  H8  1  0.68255617  0.03848526  0.03641491  1  0  0.095634  0  0.964403  0  0  0.109168  0  1.022586  0  0  0.111738  0  1.022296  0  0  0.103045  0.107367  0  1.022929  0
H  H9  1  0.31743486  0.96151574  0.96357947  1  0  0.095619  0  0.964385  0  0  0.109154  0  1.022577  0  0  0.111725  0  1.022289  0  0  0.103066  0.10736  0  1.022919  0
H  H10  1  0.49406849  0.18323663  0.01512886  1  0  0.072667  0  0.949356  0  0  0.079844  0  1.01655  0  0  0.083377  0  1.012914  0  0  0.106177  0.077074  0  1.019554  0
H  H11  1  0.50591692  0.81676147  0.98486671  1  0  0.072709  0  0.949246  0  0  0.079888  0  1.016449  0  0  0.083424  0  1.012808  0  0  0.106197  0.07713  0  1.019451  0
H  H12  1  0.14252326  0.09214767  0.97820768  1  0  0.091789  0  0.954718  0  0  0.103161  0  1.018138  0  0  0.106126  0  1.016557  0  0  0.099755  0.100511  0  1.020373  0
H  H13  1  0.85746739  0.90785717  0.02179073  1  0  0.091726  0  0.954767  0  0  0.103124  0  1.018166  0  0  0.106089  0  1.016584  0  0  0.099729  0.100474  0  1.020398  0
H  H14  1  0.31382668  0.11371550  0.54199837  1  0  0.084197  0  0.976029  0  0  0.093047  0  1.043137  0  0  0.095057  0  1.043637  0  0  0.095793  0.091642  0  1.042778  0
H  H15  1  0.68617265  0.88628941  0.45799521  1  0  0.084236  0  0.975978  0  0  0.093111  0  1.043058  0  0  0.095123  0  1.043555  0  0  0.09581  0.091689  0  1.042709  0
H  H16  1  0.50364444  0.06235293  0.40090115  1  0  0.083626  0  0.958371  0  0  0.0959  0  1.016023  0  0  0.098321  0  1.015695  0  0  0.097272  0.094198  0  1.016291  0
H  H17  1  0.49636036  0.93765967  0.59909331  1  0  0.083534  0  0.958492  0  0  0.095843  0  1.016116  0  0  0.098267  0  1.015783  0  0  0.097264  0.094144  0  1.016382  0
H  H18  1  0.79230281  0.18968850  0.43241955  1  0  0.078552  0  0.98654  0  0  0.088773  0  1.049774  0  0  0.090629  0  1.050221  0  0  0.093451  0.087326  0  1.049666  0
H  H19  1  0.20770263  0.81032700  0.56758022  1  0  0.07855  0  0.986557  0  0  0.088769  0  1.049788  0  0  0.090628  0  1.050233  0  0  0.093435  0.087319  0  1.049685  0
H  H20  1  0.89113860  0.37064922  0.60424262  1  0  0.077756  0  1.002532  0  0  0.087578  0  1.067011  0  0  0.089044  0  1.068482  0  0  0.093346  0.086482  0  1.066198  0
H  H21  1  0.10885932  0.62936052  0.39576117  1  0  0.077698  0  1.002569  0  0  0.08749  0  1.067092  0  0  0.088956  0  1.068562  0  0  0.093285  0.086392  0  1.066279  0
H  H22  1  0.70248286  0.42189188  0.74527956  1  0  0.091203  0  0.984127  0  0  0.098363  0  1.054584  0  0  0.101503  0  1.053005  0  0  0.090315  0.096058  0  1.055823  0
H  H23  1  0.29751343  0.57810547  0.25472363  1  0  0.091242  0  0.984004  0  0  0.098402  0  1.054461  0  0  0.101538  0  1.052894  0  0  0.090313  0.096095  0  1.055711  0
H  H24  1  0.15108484  0.47509604  0.87885711  1  0  0.09114  0  0.962894  0  0  0.100165  0  1.031225  0  0  0.103265  0  1.029342  0  0  0.096713  0.097753  0  1.032798  0
H  H25  1  0.84890747  0.52489452  0.12113659  1  0  0.091096  0  0.96296  0  0  0.100113  0  1.031292  0  0  0.103211  0  1.029411  0  0  0.096685  0.097699  0  1.032868  0
H  H26  1  0.98657286  0.62612802  0.84244158  1  0  0.092352  0  0.969075  0  0  0.102556  0  1.029692  0  0  0.10453  0  1.030618  0  0  0.094015  0.100989  0  1.029381  0
H  H27  1  0.01342550  0.37386737  0.15755223  1  0  0.092363  0  0.969015  0  0  0.102578  0  1.029622  0  0  0.104552  0  1.030548  0  0  0.094027  0.101017  0  1.029307  0
H  H28  1  0.00156410  0.66819142  0.67263363  1  0  0.079315  0  0.95883  0  0  0.093956  0  1.014688  0  0  0.096411  0  1.013439  0  0  0.098894  0.09248  0  1.014936  0
H  H29  1  0.99844233  0.33180695  0.32736282  1  0  0.07923  0  0.958951  0  0  0.093864  0  1.014821  0  0  0.096314  0  1.013572  0  0  0.098879  0.09239  0  1.015072  0
H  H30  1  0.17603591  0.55503857  0.53885860  1  0  0.083166  0  0.982685  0  0  0.093745  0  1.04481  0  0  0.095863  0  1.045081  0  0  0.09618  0.092097  0  1.044896  0
H  H31  1  0.82398484  0.44496860  0.46114385  1  0  0.083198  0  0.98268  0  0  0.093784  0  1.044802  0  0  0.095915  0  1.045057  0  0  0.096241  0.092138  0  1.04489  0
H  H32  1  0.32994813  0.39788618  0.57210193  1  0  0.092022  0  0.958955  0  0  0.104416  0  1.014824  0  0  0.106951  0  1.014534  0  0  0.098616  0.102561  0  1.015151  0
H  H33  1  0.67006870  0.60211997  0.42789859  1  0  0.092098  0  0.958806  0  0  0.104456  0  1.014705  0  0  0.106984  0  1.014415  0  0  0.098633  0.102596  0  1.015028  0
H  H34  1  0.38010207  0.08426928  0.80030199  1  0  0.083142  0  0.960652  0  0  0.0929  0  1.026409  0  0  0.095936  0  1.024665  0  0  0.096412  0.090688  0  1.027828  0
H  H35  1  0.61991198  0.91573016  0.19969802  1  0  0.083223  0  0.960575  0  0  0.092954  0  1.026345  0  0  0.095991  0  1.024599  0  0  0.096445  0.090754  0  1.027755  0
H  H36  1  0.17559083  0.88310282  0.76814214  1  0  0.083418  0  0.96103  0  0  0.093754  0  1.022564  0  0  0.095878  0  1.022791  0  0  0.099365  0.093081  0  1.020963  0
H  H37  1  0.82443650  0.11689015  0.23186025  1  0  0.083441  0  0.96103  0  0  0.093731  0  1.022632  0  0  0.095855  0  1.022858  0  0  0.09936  0.09306  0  1.021029  0
H  H38  1  0.88454627  0.85420234  0.68145633  1  0  0.085585  0  0.944557  0  0  0.098839  0  0.999303  0  0  0.102056  0  0.997554  0  0  0.100931  0.096493  0  1.000603  0
H  H39  1  0.11547767  0.14578685  0.31855378  1  0  0.085429  0  0.944524  0  0  0.09871  0  0.999262  0  0  0.101929  0  0.997509  0  0  0.100803  0.096364  0  1.000565  0
H  H40  1  0.80236811  0.02656052  0.62452892  1  0  0.086686  0  0.960452  0  0  0.100171  0  1.017179  0  0  0.102575  0  1.016679  0  0  0.100088  0.098495  0  1.017594  0
H  H41  1  0.19763612  0.97341792  0.37547740  1  0  0.086729  0  0.960598  0  0  0.100165  0  1.017341  0  0  0.102562  0  1.016865  0  0  0.100082  0.098512  0  1.017737  0
H  H42  1  0.00659298  0.22463991  0.65456575  1  0  0.085332  0  0.994899  0  0  0.093216  0  1.063222  0  0  0.094946  0  1.064546  0  0  0.095194  0.091877  0  1.062484  0
H  H43  1  0.99340025  0.77534402  0.34543056  1  0  0.085341  0  0.995002  0  0  0.093255  0  1.063284  0  0  0.094983  0  1.064613  0  0  0.095191  0.091914  0  1.062544  0
C  C44  1  0.82223733  0.30198066  0.92557751  1  0  0.11926  0  3.687287  0  0  0.091286  0  3.9363  0  0  0.098507  0  3.950045  0  0  0.03832  0.0862  0  3.927486  0
C  C45  1  0.17775419  0.69802804  0.07442574  1  0  0.119193  0  3.687443  0  0  0.091194  0  3.936416  0  0  0.098429  0  3.950158  0  0  0.038268  0.086113  0  3.927607  0
C  C46  1  0.93719816  0.22819213  0.93710565  1  0  -0.14992  0  3.698686  0  0  -0.167114  0  3.941242  0  0  -0.173965  0  3.961389  0  0  -0.083273  -0.162627  0  3.927383  0
C  C47  1  0.06279191  0.77181559  0.06289653  1  0  -0.150215  0  3.699185  0  0  -0.167364  0  3.941646  0  0  -0.174213  0  3.96179  0  0  -0.083292  -0.162872  0  3.927785  0
C  C48  1  0.89151222  0.12892091  0.97626277  1  0  0.130779  0  3.800751  0  0  0.144914  0  4.032862  0  0  0.151126  0  4.053018  0  0  0.002442  0.141124  0  4.019034  0
C  C49  1  0.10847596  0.87108391  0.02373704  1  0  0.130939  0  3.800848  0  0  0.145073  0  4.032918  0  0  0.151283  0  4.053082  0  0  0.002506  0.141288  0  4.019083  0
C  C50  1  0.72668557  0.11157162  0.00344925  1  0  -0.169474  0  3.718947  0  0  -0.184258  0  3.956944  0  0  -0.19171  0  3.978306  0  0  -0.088573  -0.179622  0  3.942318  0
C  C51  1  0.27330669  0.88842942  0.99654667  1  0  -0.169489  0  3.718914  0  0  -0.184288  0  3.956934  0  0  -0.191739  0  3.978299  0  0  -0.08863  -0.179643  0  3.942308  0
C  C52  1  0.62013031  0.19093213  0.99121413  1  0  0.103455  0  3.73681  0  0  0.075303  0  3.98827  0  0  0.081319  0  4.004057  0  0  0.03147  0.071468  0  3.978052  0
C  C53  1  0.37985868  0.80907078  0.00878294  1  0  0.103404  0  3.736638  0  0  0.075227  0  3.988115  0  0  0.081253  0  4.003905  0  0  0.031424  0.071371  0  3.977951  0
C  C54  1  0.01519448  0.05416016  0.98867677  1  0  -0.099624  0  3.727031  0  0  -0.121363  0  3.979425  0  0  -0.12238  0  3.996409  0  0  -0.084363  -0.121118  0  3.968711  0
C  C55  1  0.98479495  0.94584467  0.01132159  1  0  -0.099554  0  3.727039  0  0  -0.121338  0  3.979443  0  0  -0.122356  0  3.996429  0  0  -0.084284  -0.121093  0  3.968727  0
C  C56  1  0.49578560  0.27123777  0.65241705  1  0  -0.087405  0  3.754655  0  0  -0.043904  0  3.989123  0  0  -0.050957  0  4.015323  0  0  -0.026855  -0.039342  0  3.971391  0
C  C57  1  0.50421610  0.72876149  0.34758021  1  0  -0.087291  0  3.754613  0  0  -0.043876  0  3.989199  0  0  -0.050928  0  4.015394  0  0  -0.026882  -0.039311  0  3.971462  0
C  C58  1  0.44010975  0.17045822  0.55509872  1  0  -0.087021  0  3.768381  0  0  -0.108375  0  4.011971  0  0  -0.10967  0  4.035395  0  0  -0.090667  -0.107322  0  3.995945  0
C  C59  1  0.55988855  0.82954765  0.44489657  1  0  -0.08715  0  3.768503  0  0  -0.108494  0  4.012119  0  0  -0.109791  0  4.035547  0  0  -0.090655  -0.107423  0  3.996067  0
C  C60  1  0.54649402  0.14177223  0.47602048  1  0  -0.080283  0  3.792533  0  0  -0.09018  0  4.038171  0  0  -0.093414  0  4.060675  0  0  -0.094925  -0.08793  0  4.022591  0
C  C61  1  0.45350561  0.85823937  0.52397648  1  0  -0.080191  0  3.792739  0  0  -0.090139  0  4.0384  0  0  -0.093376  0  4.060911  0  0  -0.094945  -0.087887  0  4.022812  0
C  C62  1  0.70892892  0.21325514  0.49371852  1  0  -0.062516  0  3.766712  0  0  -0.07477  0  4.007473  0  0  -0.075646  0  4.028665  0  0  -0.091561  -0.07391  0  3.99288  0
C  C63  1  0.29107192  0.78675651  0.50628221  1  0  -0.062542  0  3.766784  0  0  -0.074792  0  4.007551  0  0  -0.075668  0  4.028739  0  0  -0.091574  -0.073933  0  3.992961  0
C  C64  1  0.76465461  0.31417280  0.59029995  1  0  -0.079903  0  3.782737  0  0  -0.087405  0  4.022878  0  0  -0.090208  0  4.044599  0  0  -0.095356  -0.085483  0  4.008127  0
C  C65  1  0.23534286  0.68583504  0.40970477  1  0  -0.079825  0  3.782792  0  0  -0.087295  0  4.022918  0  0  -0.090094  0  4.044633  0  0  -0.095293  -0.085368  0  4.008164  0
C  C66  1  0.65917314  0.34321371  0.66960183  1  0  -0.075537  0  3.731951  0  0  -0.094787  0  3.968899  0  0  -0.096  0  3.990634  0  0  -0.08739  -0.093961  0  3.954369  0
C  C67  1  0.34082651  0.65678749  0.33040184  1  0  -0.075608  0  3.731895  0  0  -0.094836  0  3.968866  0  0  -0.09605  0  3.990598  0  0  -0.087366  -0.094015  0  3.954346  0
C  C68  1  0.24795056  0.42437672  0.72686748  1  0  -0.079513  0  3.744195  0  0  -0.035698  0  3.977045  0  0  -0.041454  0  4.001748  0  0  -0.024034  -0.032101  0  3.960326  0
C  C69  1  0.75204735  0.57561678  0.27312875  1  0  -0.07951  0  3.744198  0  0  -0.035679  0  3.977022  0  0  -0.041438  0  4.001718  0  0  -0.024037  -0.032077  0  3.960292  0
C  C70  1  0.15247973  0.49067821  0.80322532  1  0  -0.069072  0  3.714748  0  0  -0.089588  0  3.958255  0  0  -0.090876  0  3.979856  0  0  -0.082355  -0.088668  0  3.944104  0
C  C71  1  0.84751717  0.50931621  0.19676965  1  0  -0.069057  0  3.71476  0  0  -0.089573  0  3.95829  0  0  -0.090859  0  3.979892  0  0  -0.082341  -0.088654  0  3.944138  0
C  C72  1  0.06309904  0.57738533  0.78357399  1  0  -0.070595  0  3.756456  0  0  -0.081326  0  4.002515  0  0  -0.084322  0  4.025671  0  0  -0.093039  -0.079401  0  3.986807  0
C  C73  1  0.93690077  0.42261104  0.21642164  1  0  -0.070753  0  3.756396  0  0  -0.081498  0  4.00248  0  0  -0.084495  0  4.025636  0  0  -0.093122  -0.079571  0  3.986766  0
C  C74  1  0.07174522  0.60084692  0.68843487  1  0  -0.075251  0  3.779162  0  0  -0.089252  0  4.026915  0  0  -0.090376  0  4.047412  0  0  -0.093403  -0.088441  0  4.011917  0
C  C75  1  0.92825930  0.39914858  0.31156292  1  0  -0.074916  0  3.779153  0  0  -0.088882  0  4.026866  0  0  -0.089998  0  4.047358  0  0  -0.093257  -0.088072  0  4.011875  0
C  C76  1  0.16856272  0.53687997  0.61293852  1  0  -0.078576  0  3.793006  0  0  -0.088697  0  4.038528  0  0  -0.091105  0  4.060041  0  0  -0.09418  -0.086879  0  4.02396  0
C  C77  1  0.83144617  0.46311845  0.38706100  1  0  -0.078766  0  3.793262  0  0  -0.088915  0  4.03881  0  0  -0.091331  0  4.06031  0  0  -0.094331  -0.0871  0  4.024247  0
C  C78  1  0.25547911  0.44822559  0.63160684  1  0  -0.082993  0  3.753383  0  0  -0.100943  0  3.986601  0  0  -0.102209  0  4.00854  0  0  -0.090236  -0.100249  0  3.971974  0
C  C79  1  0.74452811  0.55177089  0.36838985  1  0  -0.083059  0  3.753403  0  0  -0.100965  0  3.986621  0  0  -0.10222  0  4.008555  0  0  -0.090228  -0.100268  0  3.971981  0
C  C80  1  0.20762378  0.16760539  0.72855928  1  0  -0.084483  0  3.751563  0  0  -0.040262  0  3.984832  0  0  -0.045941  0  4.009164  0  0  -0.024584  -0.037026  0  3.968638  0
C  C81  1  0.79237826  0.83239011  0.27144212  1  0  -0.084334  0  3.751148  0  0  -0.040164  0  3.984497  0  0  -0.045843  0  4.008826  0  0  -0.024516  -0.036927  0  3.968306  0
C  C82  1  0.25361768  0.07031900  0.76052473  1  0  -0.085367  0  3.745551  0  0  -0.105886  0  3.992468  0  0  -0.107225  0  4.01342  0  0  -0.087919  -0.105199  0  3.97886  0
C  C83  1  0.74639097  0.92967850  0.23947898  1  0  -0.085602  0  3.745468  0  0  -0.106077  0  3.992404  0  0  -0.107415  0  4.013352  0  0  -0.088011  -0.105396  0  3.978801  0
C  C84  1  0.13856446  0.95782657  0.74288512  1  0  -0.076395  0  3.79494  0  0  -0.085498  0  4.042852  0  0  -0.088302  0  4.065827  0  0  -0.091879  -0.08386  0  4.02672  0
C  C85  1  0.86145398  0.04216537  0.25712184  1  0  -0.076293  0  3.794719  0  0  -0.085359  0  4.042585  0  0  -0.088159  0  4.06556  0  0  -0.091904  -0.083722  0  4.026454  0
C  C86  1  0.97550915  0.94136840  0.69394952  1  0  -0.073222  0  3.774593  0  0  -0.088811  0  4.022958  0  0  -0.090462  0  4.043977  0  0  -0.090183  -0.087303  0  4.008459  0
C  C87  1  0.02450796  0.05861783  0.30605875  1  0  -0.073102  0  3.774097  0  0  -0.088718  0  4.022449  0  0  -0.090368  0  4.043458  0  0  -0.090001  -0.087213  0  4.00797  0
C  C88  1  0.92925623  0.03750618  0.66202147  1  0  -0.065853  0  3.767944  0  0  -0.076331  0  4.012466  0  0  -0.078474  0  4.034163  0  0  -0.089717  -0.074997  0  3.997632  0
C  C89  1  0.07075405  0.96247709  0.33798421  1  0  -0.065831  0  3.767908  0  0  -0.076246  0  4.012451  0  0  -0.07839  0  4.034141  0  0  -0.089684  -0.074933  0  3.997627  0
C  C90  1  0.04477349  0.14983972  0.67883635  1  0  -0.077678  0  3.748283  0  0  -0.098097  0  3.988601  0  0  -0.099744  0  4.011689  0  0  -0.087658  -0.096615  0  3.972936  0
C  C91  1  0.95522701  0.85014909  0.32116459  1  0  -0.077847  0  3.748358  0  0  -0.098284  0  3.988718  0  0  -0.099935  0  4.011812  0  0  -0.08772  -0.096796  0  3.973055  0
N  N92  1  0.66485782  0.28479855  0.95187680  1  0  -0.263089  0  3.372217  0  0  -0.193594  0  3.660798  0  0  -0.20162  0  3.668062  0  0  -0.364235  -0.189042  0  3.656047  0
N  N93  1  0.33512934  0.71520722  0.04812397  1  0  -0.262965  0  3.372136  0  0  -0.193421  0  3.660658  0  0  -0.20147  0  3.667935  0  0  -0.364128  -0.18888  0  3.65594  0
Cl  Cl94  1  0.32595181  0.41118043  0.05599325  1  0  -0.544431  0  1.144505  0  0  -0.483182  0  1.459362  0  0  -0.497061  0  1.433685  0  0  -0.334552  -0.473257  0  1.475707  0
Cl  Cl95  1  0.67403818  0.58882157  0.94400731  1  0  -0.544418  0  1.144492  0  0  -0.483148  0  1.459333  0  0  -0.497029  0  1.433656  0  0  -0.334527  -0.47324  0  1.475701  0
