# generated using pymatgen
data_Cu3P4H18C16(NO9)2
_symmetry_space_group_name_H-M   'P 1'
_cell_length_a   8.59926063
_cell_length_b   9.10230248
_cell_length_c   9.50239603
_cell_angle_alpha   110.25937919
_cell_angle_beta   101.64621359
_cell_angle_gamma   109.72090579
_symmetry_Int_Tables_number   1
_chemical_formula_structural   Cu3P4H18C16(NO9)2
_chemical_formula_sum   'Cu3 P4 H18 C16 N2 O18'
_cell_volume   612.57389740
_cell_formula_units_Z   1
loop_
 _symmetry_equiv_pos_site_id
 _symmetry_equiv_pos_as_xyz
  1  'x, y, z'
loop_
 _atom_site_type_symbol
 _atom_site_label
 _atom_site_symmetry_multiplicity
 _atom_site_fract_x
 _atom_site_fract_y
 _atom_site_fract_z
 _atom_site_occupancy
 _atom_site_hle17_ddec_charge
 _atom_site_hle17_ddec_spin_density
 _atom_site_hle17_ddec_sum_bond_order
 _atom_site_hle17_magmom
 _atom_site_hse06_10hf_ddec_charge
 _atom_site_hse06_10hf_ddec_spin_density
 _atom_site_hse06_10hf_ddec_sum_bond_order
 _atom_site_hse06_10hf_magmom
 _atom_site_hse06_ddec_charge
 _atom_site_hse06_ddec_spin_density
 _atom_site_hse06_ddec_sum_bond_order
 _atom_site_hse06_magmom
 _atom_site_pbe_cm5_charge
 _atom_site_pbe_ddec_charge
 _atom_site_pbe_ddec_spin_density
 _atom_site_pbe_ddec_sum_bond_order
 _atom_site_pbe_magmom
Cu  Cu0  1  0.27016603  0.74964057  0.02696292  1  1.036682  0.670636  1.65516  0.5  1.046693  0.817507  2.026072  0.665  1.131437  0.911853  1.970079  0.763  0.726226  0.966233  0.671739  2.096893  0.541
Cu  Cu1  1  0.72929622  0.25005618  0.97294233  1  1.038676  -0.670419  1.654129  -0.515  1.045588  -0.804238  2.029095  -0.671  1.128688  -0.885039  1.975135  -0.765  0.72823  0.970716  -0.690949  2.093524  -0.565
Cu  Cu2  1  0.00048063  0.50043138  0.50000595  1  1.12084  -0.704594  1.593323  -0.54  1.124652  -0.816689  1.973493  -0.679  1.205273  -0.881341  1.911361  -0.76  0.764304  1.065555  -0.746573  2.0251  -0.608
P  P3  1  0.95345103  0.77769051  0.79538665  1  1.430806  -0.003717  4.783995  -0.002  1.279831  -0.005155  5.283477  -0.004  1.331464  -0.004093  5.245867  -0.004  0.354795  1.243583  -0.005977  5.306741  -0.004
P  P4  1  0.04648883  0.22232855  0.20434428  1  1.43164  -0.003594  4.784056  -0.002  1.280847  -0.004974  5.28302  -0.004  1.332776  -0.003891  5.245121  -0.004  0.355032  1.244342  -0.005884  5.306748  -0.004
P  P5  1  0.89370870  0.42344244  0.76488476  1  1.394945  0.000208  4.862693  0.001  1.254988  -0.002208  5.357669  -0.001  1.311814  -0.001519  5.319342  0.0  0.334213  1.214273  -0.002811  5.381941  -0.001
P  P6  1  0.10625788  0.57619650  0.23483516  1  1.391582  -0.002308  4.861688  -0.001  1.252721  -0.003892  5.357119  -0.002  1.310528  -0.003062  5.31858  -0.002  0.334394  1.210763  -0.004812  5.381531  -0.003
H  H7  1  0.86646226  0.98122316  0.89199515  1  0.445484  -0.000231  0.856588  -0.001  0.411021  -0.000235  0.925498  -0.001  0.422738  -0.000163  0.90862  0.0  0.306709  0.402759  -0.000287  0.937337  -0.001
H  H8  1  0.13274683  0.01828309  0.10754358  1  0.445562  -0.00022  0.85661  -0.001  0.410649  -0.000247  0.926203  -0.001  0.422421  -0.000167  0.909241  0.0  0.306292  0.402359  -0.000307  0.938067  -0.001
H  H9  1  0.84497426  0.59595331  0.02656973  1  0.36985  0.00021  0.923488  0.0  0.345223  0.000138  0.99917  0.0  0.355375  0.00014  0.987431  0.0  0.295339  0.338464  0.000103  1.00656  0.0
H  H10  1  0.15537707  0.40422801  0.97336758  1  0.370172  -0.000207  0.923595  0.0  0.345358  -0.00014  0.999548  0.0  0.355517  -0.000143  0.987735  0.0  0.295136  0.338655  -0.000124  1.006784  0.0
H  H11  1  0.27825930  0.92638933  0.38373493  1  0.312973  3.8e-05  0.903577  0.0  0.291671  4.4e-05  0.96444  0.0  0.301387  2e-05  0.956963  0.0  0.318371  0.284636  5.7e-05  0.969941  0.0
H  H12  1  0.72177292  0.07375391  0.61640687  1  0.312864  -0.000149  0.903633  0.0  0.291478  -0.000175  0.964603  0.0  0.301086  -0.000104  0.957231  0.0  0.318113  0.284699  -0.000233  0.969828  0.0
H  H13  1  0.64360048  0.50220743  0.56194003  1  0.099956  0.000141  0.943873  0.0  0.114615  0.000125  1.008317  0.0  0.115525  0.000118  1.00832  0.0  0.107014  0.113752  0.000136  1.00861  0.0
H  H14  1  0.35623988  0.49753947  0.43797618  1  0.100171  0.000166  0.943759  0.0  0.114822  0.000161  1.008257  0.0  0.115743  0.000141  1.008235  0.0  0.107058  0.113926  0.000151  1.008593  0.0
H  H15  1  0.57611860  0.61676839  0.71132559  1  0.11564  4.7e-05  0.916526  0.0  0.132963  8.6e-05  0.973521  0.0  0.134603  5.2e-05  0.97289  0.0  0.108827  0.131435  9.6e-05  0.974545  0.0
H  H16  1  0.42403685  0.38317281  0.28874838  1  0.11586  -6.7e-05  0.91651  0.0  0.132981  -9.2e-05  0.973772  0.0  0.134559  -6e-05  0.97318  0.0  0.108778  0.131549  -0.000105  0.974677  0.0
H  H17  1  0.41401999  0.45414083  0.85333314  1  0.113964  -9.3e-05  0.930553  0.0  0.123032  -0.000131  0.99425  0.0  0.125727  -0.000115  0.991466  0.0  0.115056  0.121161  -0.000122  0.996004  0.0
H  H18  1  0.58653603  0.54577954  0.14719124  1  0.113563  8.8e-05  0.931504  0.0  0.122816  0.000128  0.995059  0.0  0.125534  0.000111  0.99225  0.0  0.114711  0.120952  0.000125  0.996813  0.0
H  H19  1  0.18673335  0.16386666  0.80294968  1  0.129345  3.2e-05  0.955648  0.0  0.137255  1.8e-05  1.012844  0.0  0.141033  1.3e-05  1.011547  0.0  0.11541  0.134286  2e-05  1.014341  0.0
H  H20  1  0.81352391  0.83609811  0.19730165  1  0.12922  -1.8e-05  0.955992  0.0  0.137063  -2.1e-05  1.013272  0.0  0.140847  -1.7e-05  1.011948  0.0  0.115306  0.134087  -2.6e-05  1.014809  0.0
H  H21  1  0.12440140  0.89468420  0.55671178  1  0.12431  -0.000117  0.968524  0.0  0.130863  -5.9e-05  1.029241  0.0  0.13462  -2.1e-05  1.025895  0.0  0.128539  0.127878  -9e-05  1.031923  0.0
H  H22  1  0.87530079  0.10548034  0.44320908  1  0.124018  -9.7e-05  0.96821  0.0  0.130573  -2.8e-05  1.029063  0.0  0.134207  4e-06  1.025872  0.0  0.128364  0.1278  -6.2e-05  1.031478  0.0
H  H23  1  0.49961468  0.18496587  0.42393267  1  0.117213  0.000158  0.936684  0.0  0.123704  0.000154  1.001495  0.0  0.128347  9.6e-05  0.997142  0.0  0.131601  0.119977  0.000172  1.005197  0.0
H  H24  1  0.50072641  0.81510108  0.57639033  1  0.117166  -0.000184  0.936589  0.0  0.123756  -0.000181  1.001195  0.0  0.128489  -0.000108  0.996707  0.0  0.131513  0.120007  -0.000223  1.004899  0.0
C  C25  1  0.80109484  0.58419071  0.80720567  1  -0.225392  0.001375  3.692597  0.001  -0.18734  0.000614  3.946352  0.0  -0.197705  0.000558  3.958992  0.0  0.051433  -0.179935  0.000542  3.936913  0.0
C  C26  1  0.19918588  0.41575384  0.19258536  1  -0.225436  0.001519  3.696317  0.001  -0.187318  0.000733  3.949779  0.0  -0.197766  0.000683  3.962326  0.0  0.05178  -0.179864  0.000704  3.940431  0.0
C  C27  1  0.62054017  0.51422262  0.67387720  1  -0.187111  0.000317  3.739807  0.0  -0.239479  0.000189  3.976713  0.0  -0.239473  0.000117  3.991612  0.0  -0.153813  -0.239327  0.000236  3.96706  0.0
C  C28  1  0.37958716  0.48572230  0.32617827  1  -0.18736  -4.6e-05  3.740029  0.0  -0.23993  4.9e-05  3.977076  0.0  -0.239791  8.6e-05  3.991784  0.0  -0.154022  -0.239875  -2e-05  3.967574  0.0
C  C29  1  0.47959199  0.34506577  0.64619904  1  0.065933  2.9e-05  3.716879  0.0  0.090652  0.00016  3.959645  0.0  0.084793  0.000129  3.98417  0.0  0.006444  0.094125  0.000161  3.943151  0.0
C  C30  1  0.52063843  0.65495617  0.35404321  1  0.065081  -0.000197  3.717866  0.0  0.090225  -0.000195  3.960058  0.0  0.084426  -0.000146  3.984433  0.0  0.005968  0.093576  -0.000248  3.943766  0.0
C  C31  1  0.38587698  0.33504092  0.75015234  1  -0.019612  0.000246  3.613892  0.0  -0.056558  0.000266  3.874689  0.0  -0.051205  0.000239  3.890194  0.0  -0.048613  -0.059301  0.000256  3.863381  0.0
C  C32  1  0.61448961  0.66494425  0.25019455  1  -0.018755  -0.000149  3.61531  0.0  -0.055999  -0.000203  3.875832  0.0  -0.05063  -0.000179  3.891297  0.0  -0.047968  -0.058725  -0.00021  3.864453  0.0
C  C33  1  0.25733301  0.17427187  0.72117571  1  -0.10272  1.3e-05  3.69137  0.0  -0.116613  0.000137  3.951811  0.0  -0.1254  0.000136  3.972709  0.0  -0.072617  -0.111006  0.000132  3.937786  0.0
C  C34  1  0.74287478  0.82573160  0.27903855  1  -0.103214  -7.4e-05  3.692003  0.0  -0.11678  -0.000133  3.952338  0.0  -0.125496  -0.000128  3.973153  0.0  -0.07292  -0.111272  -0.000153  3.938399  0.0
C  C35  1  0.22058025  0.02530264  0.58681377  1  0.146499  1.1e-05  3.570955  0.0  0.102223  3e-06  3.822382  0.0  0.112293  9e-06  3.83592  0.0  0.06673  0.095585  -1.7e-05  3.813657  0.0
C  C36  1  0.77937399  0.97476025  0.41321407  1  0.147029  0.000172  3.571433  0.0  0.10267  4e-06  3.823225  0.0  0.112675  2.4e-05  3.837006  0.0  0.067263  0.09609  -3.1e-05  3.814214  0.0
C  C37  1  0.43657927  0.19143854  0.51293836  1  0.111932  0.000145  3.553813  0.0  0.061911  0.000198  3.806123  0.0  0.070594  0.000101  3.819039  0.0  0.070052  0.056221  0.000238  3.797981  0.0
C  C38  1  0.56364545  0.80859495  0.48728248  1  0.11175  -0.000145  3.55467  0.0  0.06232  -0.000223  3.806127  0.0  0.071107  -0.000116  3.818918  0.0  0.070167  0.056469  -0.000295  3.798155  0.0
C  C39  1  0.52242264  0.06188173  0.08768947  1  0.537708  -0.000137  3.883866  -0.001  0.500205  -0.000199  4.18321  -0.001  0.53568  -0.000158  4.178839  -0.001  0.211325  0.474894  -0.000136  4.183574  0.0
C  C40  1  0.47677606  0.93786794  0.91203178  1  0.537831  0.001146  3.886893  0.002  0.501406  0.000401  4.184894  0.001  0.536968  0.000323  4.180369  0.001  0.21132  0.475933  0.000441  4.185558  0.001
N  N41  1  0.31028280  0.03906516  0.48742536  1  -0.190513  0.000583  3.462004  0.001  -0.115574  0.000335  3.684765  0.001  -0.130357  0.0002  3.69885  0.0  -0.336985  -0.106006  0.0004  3.675712  0.001
N  N42  1  0.68975935  0.96100231  0.51267536  1  -0.190004  -0.000557  3.461352  -0.001  -0.115911  -0.000359  3.684938  0.0  -0.130823  -0.00021  3.699285  0.0  -0.336879  -0.106168  -0.000462  3.675488  -0.001
O  O43  1  0.85030455  0.88949275  0.78203896  1  -0.722933  -0.004072  2.009338  -0.005  -0.648716  -0.003057  2.232208  -0.004  -0.670654  -0.002098  2.209346  -0.003  -0.37954  -0.63297  -0.004262  2.247818  -0.006
O  O44  1  0.14885482  0.10995223  0.21767810  1  -0.723251  -0.004051  2.008484  -0.005  -0.648657  -0.003089  2.231619  -0.004  -0.670748  -0.002106  2.208761  -0.003  -0.379074  -0.632697  -0.00432  2.247229  -0.006
O  O45  1  0.11676739  0.88478068  0.94958693  1  -0.867954  -0.004803  2.068989  -0.006  -0.797595  -0.002434  2.332668  -0.003  -0.825885  -0.001813  2.31046  -0.002  -0.374676  -0.774227  -0.002543  2.347201  -0.003
O  O46  1  0.88308991  0.11562535  0.05021576  1  -0.867995  -0.003624  2.068165  -0.007  -0.797856  -0.001403  2.332057  -0.003  -0.82622  -0.00013  2.310029  -0.001  -0.374972  -0.775137  -0.002249  2.346575  -0.004
O  O47  1  0.98416844  0.71042899  0.63715820  1  -0.819635  -0.059194  2.033266  -0.082  -0.773021  -0.04045  2.337904  -0.059  -0.809022  -0.031321  2.314309  -0.048  -0.376329  -0.746422  -0.045623  2.353588  -0.064
O  O48  1  0.01626235  0.29028442  0.36272219  1  -0.818855  -0.059155  2.033662  -0.082  -0.772872  -0.040629  2.338253  -0.06  -0.809259  -0.031439  2.314812  -0.048  -0.376164  -0.745539  -0.045496  2.353583  -0.064
O  O49  1  0.78000157  0.26397740  0.78442309  1  -0.804763  -0.055215  2.069646  -0.077  -0.756348  -0.036934  2.366432  -0.054  -0.794401  -0.029386  2.345266  -0.045  -0.377867  -0.727622  -0.037809  2.381731  -0.054
O  O50  1  0.21986929  0.73592678  0.21545667  1  -0.799176  0.040163  2.067899  0.055  -0.75452  0.029138  2.365428  0.042  -0.794405  0.024752  2.344692  0.037  -0.374805  -0.721771  0.026699  2.379628  0.038
O  O51  1  0.08861071  0.51003672  0.87942853  1  -0.846746  0.047699  2.141398  0.063  -0.791673  0.035088  2.440408  0.049  -0.828262  0.028594  2.415659  0.041  -0.38017  -0.761579  0.034083  2.456188  0.046
O  O52  1  0.91119448  0.48974537  0.12103817  1  -0.843473  -0.048744  2.14003  -0.067  -0.789581  -0.033949  2.439505  -0.049  -0.826326  -0.026708  2.414675  -0.04  -0.379799  -0.761129  -0.034939  2.455928  -0.049
O  O53  1  0.87219674  0.35854194  0.58678889  1  -0.800021  -0.072333  2.059482  -0.099  -0.760113  -0.044536  2.368809  -0.065  -0.798619  -0.034085  2.345204  -0.052  -0.379059  -0.732809  -0.049302  2.386152  -0.069
O  O54  1  0.12853672  0.64196897  0.41328054  1  -0.794203  -0.059616  2.057647  -0.082  -0.757124  -0.040112  2.367972  -0.059  -0.797735  -0.031207  2.345302  -0.048  -0.375992  -0.726375  -0.043588  2.383726  -0.062
O  O55  1  0.77975875  0.63425605  0.95866635  1  -0.503353  -0.000378  2.116021  -0.001  -0.467308  0.000137  2.340901  0.0  -0.482009  0.000275  2.333166  0.0  -0.38467  -0.456065  -4.4e-05  2.34497  0.0
O  O56  1  0.22082529  0.36608234  0.04133976  1  -0.503198  0.000314  2.117492  0.001  -0.467133  4.2e-05  2.342154  0.0  -0.481849  -3.7e-05  2.334411  0.0  -0.384289  -0.45576  0.000128  2.346057  0.0
O  O57  1  0.45969054  0.99339754  0.17186074  1  -0.510751  0.061043  2.057306  0.083  -0.490544  0.047244  2.323571  0.07  -0.534726  0.038293  2.320099  0.059  -0.283306  -0.45522  0.044063  2.325314  0.063
O  O58  1  0.53959895  0.00646732  0.82793033  1  -0.511152  -0.064154  2.057642  -0.09  -0.491069  -0.047061  2.323751  -0.071  -0.535188  -0.037238  2.320367  -0.059  -0.283576  -0.456665  -0.047387  2.325654  -0.069
O  O59  1  0.61881339  0.22297426  0.13677247  1  -0.518998  -0.05403  2.022033  -0.076  -0.510086  -0.039554  2.29453  -0.06  -0.551734  -0.031331  2.285304  -0.05  -0.286907  -0.476522  -0.039454  2.300358  -0.058
O  O60  1  0.38050771  0.77680897  0.86288472  1  -0.519694  0.05019  2.024386  0.067  -0.511053  0.039888  2.295973  0.058  -0.552591  0.032612  2.28637  0.049  -0.286803  -0.476749  0.036494  2.302177  0.052
