# generated using pymatgen
data_ZnH8C10(SN3)2
_symmetry_space_group_name_H-M   'P 1'
_cell_length_a   8.56296255
_cell_length_b   9.07754658
_cell_length_c   9.07755583
_cell_angle_alpha   116.58443640
_cell_angle_beta   89.99988610
_cell_angle_gamma   90.00008047
_symmetry_Int_Tables_number   1
_chemical_formula_structural   ZnH8C10(SN3)2
_chemical_formula_sum   'Zn2 H16 C20 S4 N12'
_cell_volume   631.00522209
_cell_formula_units_Z   2
loop_
 _symmetry_equiv_pos_site_id
 _symmetry_equiv_pos_as_xyz
  1  'x, y, z'
loop_
 _atom_site_type_symbol
 _atom_site_label
 _atom_site_symmetry_multiplicity
 _atom_site_fract_x
 _atom_site_fract_y
 _atom_site_fract_z
 _atom_site_occupancy
 _atom_site_hle17_bader_spin_density
 _atom_site_hle17_ddec_charge
 _atom_site_hle17_ddec_spin_density
 _atom_site_hle17_ddec_sum_bond_order
 _atom_site_hle17_magmom
 _atom_site_hse06_10hf_bader_spin_density
 _atom_site_hse06_10hf_ddec_charge
 _atom_site_hse06_10hf_ddec_spin_density
 _atom_site_hse06_10hf_ddec_sum_bond_order
 _atom_site_hse06_10hf_magmom
 _atom_site_hse06_bader_spin_density
 _atom_site_hse06_ddec_charge
 _atom_site_hse06_ddec_spin_density
 _atom_site_hse06_ddec_sum_bond_order
 _atom_site_hse06_magmom
 _atom_site_pbe_bader_spin_density
 _atom_site_pbe_cm5_charge
 _atom_site_pbe_ddec_charge
 _atom_site_pbe_ddec_spin_density
 _atom_site_pbe_ddec_sum_bond_order
 _atom_site_pbe_magmom
Zn  Zn0  1  0.99999811  0.99999887  0.00000040  1  0  0.927861  0  2.017813  0  0  0.734041  0  2.472199  0  0  0.778186  0  2.430688  0  0  0.705166  0.703812  0  2.500089  0
Zn  Zn1  1  0.49999970  0.50000089  0.49999903  1  0  0.927882  0  2.017753  0  0  0.734026  0  2.472164  0  0  0.778178  0  2.430645  0  0  0.705148  0.703796  0  2.50005  0
H  H2  1  0.75000182  0.70815276  0.79184476  1  0  0.071825  0  0.937162  0  0  0.078613  0  1.002687  0  0  0.079816  0  1.000999  0  0  0.128892  0.077623  0  1.004013  0
H  H3  1  0.25000095  0.79184606  0.70815219  1  0  0.071873  0  0.93712  0  0  0.078695  0  1.002623  0  0  0.079897  0  1.000936  0  0  0.128926  0.077706  0  1.003947  0
H  H4  1  0.25000109  0.29184532  0.20815495  1  0  0.07171  0  0.937203  0  0  0.0785  0  1.002764  0  0  0.079704  0  1.00107  0  0  0.128788  0.077511  0  1.004092  0
H  H5  1  0.75000080  0.20815448  0.29184642  1  0  0.071863  0  0.937169  0  0  0.078674  0  1.002669  0  0  0.079879  0  1.000978  0  0  0.12891  0.077684  0  1.003996  0
H  H6  1  0.94952117  0.07513352  0.70035196  1  0  0.072579  0  0.984986  0  0  0.076734  0  1.059291  0  0  0.07909  0  1.056556  0  0  0.108845  0.074987  0  1.06117  0
H  H7  1  0.44951797  0.42486683  0.79964895  1  0  0.072466  0  0.985028  0  0  0.076654  0  1.059297  0  0  0.079011  0  1.056563  0  0  0.108802  0.074906  0  1.061179  0
H  H8  1  0.55048604  0.79965061  0.42486723  1  0  0.072411  0  0.985029  0  0  0.076615  0  1.059285  0  0  0.078977  0  1.056537  0  0  0.108788  0.074865  0  1.06117  0
H  H9  1  0.05048297  0.70035012  0.07513128  1  0  0.072418  0  0.985096  0  0  0.076658  0  1.059308  0  0  0.07901  0  1.056585  0  0  0.108799  0.074909  0  1.061191  0
H  H10  1  0.05048408  0.92486455  0.29964884  1  0  0.072426  0  0.985045  0  0  0.076657  0  1.059272  0  0  0.079017  0  1.056535  0  0  0.108801  0.074908  0  1.061156  0
H  H11  1  0.55048377  0.57513494  0.20035242  1  0  0.072469  0  0.985046  0  0  0.076694  0  1.059254  0  0  0.079052  0  1.056522  0  0  0.108823  0.074948  0  1.061134  0
H  H12  1  0.44951687  0.20034746  0.57513247  1  0  0.072446  0  0.985065  0  0  0.076679  0  1.059288  0  0  0.079039  0  1.056545  0  0  0.108821  0.07493  0  1.06117  0
H  H13  1  0.94951527  0.29964673  0.92486457  1  0  0.072389  0  0.985031  0  0  0.076614  0  1.05928  0  0  0.078978  0  1.056533  0  0  0.108776  0.074866  0  1.061164  0
H  H14  1  0.75000397  0.02294955  0.47705261  1  0  0.124442  0  0.944178  0  0  0.132104  0  1.003396  0  0  0.134645  0  1.004304  0  0  0.111405  0.130263  0  1.003012  0
H  H15  1  0.25000026  0.47705271  0.02294766  1  0  0.124458  0  0.944176  0  0  0.132123  0  1.003407  0  0  0.134664  0  1.004316  0  0  0.111401  0.130283  0  1.003023  0
H  H16  1  0.25000011  0.97704852  0.52294709  1  0  0.124399  0  0.944198  0  0  0.132078  0  1.003424  0  0  0.13462  0  1.004332  0  0  0.111385  0.130234  0  1.003039  0
H  H17  1  0.75000032  0.52294783  0.97704874  1  0  0.124445  0  0.944169  0  0  0.13211  0  1.003393  0  0  0.134652  0  1.0043  0  0  0.111394  0.130268  0  1.003008  0
C  C18  1  0.75000194  0.77860960  0.72139080  1  0  0.318149  0  3.661419  0  0  0.262112  0  3.932153  0  0  0.277603  0  3.944837  0  0  0.188413  0.252012  0  3.923435  0
C  C19  1  0.25000082  0.72139167  0.77860945  1  0  0.318047  0  3.661578  0  0  0.261977  0  3.932306  0  0  0.277467  0  3.944989  0  0  0.18838  0.251878  0  3.923588  0
C  C20  1  0.25000097  0.22138847  0.27860891  1  0  0.318306  0  3.661512  0  0  0.262246  0  3.932218  0  0  0.277736  0  3.944903  0  0  0.188504  0.252146  0  3.923504  0
C  C21  1  0.74999975  0.27861133  0.22139026  1  0  0.318096  0  3.661726  0  0  0.262013  0  3.932466  0  0  0.277499  0  3.945154  0  0  0.188414  0.251917  0  3.923747  0
C  C22  1  0.85802084  0.98290983  0.67176218  1  0  0.179689  0  3.675736  0  0  0.142704  0  3.926897  0  0  0.153906  0  3.94189  0  0  0.063834  0.135614  0  3.916692  0
C  C23  1  0.35801697  0.51709027  0.82823844  1  0  0.179778  0  3.675718  0  0  0.14279  0  3.926875  0  0  0.153989  0  3.941869  0  0  0.063865  0.135699  0  3.91667  0
C  C24  1  0.64198817  0.82824061  0.51709061  1  0  0.179886  0  3.675788  0  0  0.142904  0  3.926881  0  0  0.154103  0  3.941878  0  0  0.063871  0.135816  0  3.916672  0
C  C25  1  0.14198305  0.67176060  0.98290982  1  0  0.179844  0  3.675707  0  0  0.142824  0  3.926896  0  0  0.154024  0  3.941886  0  0  0.063866  0.135735  0  3.91669  0
C  C26  1  0.14198324  0.01708824  0.32823862  1  0  0.179807  0  3.675732  0  0  0.142778  0  3.926915  0  0  0.153976  0  3.941911  0  0  0.063835  0.135687  0  3.916709  0
C  C27  1  0.64198828  0.48291766  0.17176239  1  0  0.179813  0  3.675776  0  0  0.142807  0  3.926877  0  0  0.154003  0  3.941874  0  0  0.063832  0.135716  0  3.916675  0
C  C28  1  0.35801357  0.17175993  0.48291130  1  0  0.179744  0  3.675914  0  0  0.142714  0  3.927068  0  0  0.153912  0  3.942066  0  0  0.063786  0.135624  0  3.91686  0
C  C29  1  0.85801402  0.32823747  0.01708769  1  0  0.179873  0  3.675734  0  0  0.142818  0  3.926899  0  0  0.154015  0  3.941895  0  0  0.063844  0.135729  0  3.916694  0
C  C30  1  0.75000459  0.95252216  0.54747758  1  0  -0.161051  0  3.699952  0  0  -0.165339  0  3.945029  0  0  -0.177211  0  3.966397  0  0  -0.078256  -0.157987  0  3.931019  0
C  C31  1  0.24999934  0.54747542  0.95251881  1  0  -0.161019  0  3.69986  0  0  -0.165337  0  3.945008  0  0  -0.177209  0  3.966374  0  0  -0.078254  -0.157986  0  3.930999  0
C  C32  1  0.25000066  0.04747468  0.45252157  1  0  -0.160901  0  3.699898  0  0  -0.165236  0  3.945059  0  0  -0.177111  0  3.96643  0  0  -0.07819  -0.15788  0  3.931043  0
C  C33  1  0.75000240  0.45252020  0.04747539  1  0  -0.161076  0  3.699981  0  0  -0.165364  0  3.945095  0  0  -0.177238  0  3.966464  0  0  -0.078226  -0.158009  0  3.931084  0
C  C34  1  0.71390533  0.88085581  0.11914353  1  0  0.289376  0  4.067784  0  0  0.270524  0  4.373447  0  0  0.295009  0  4.385618  0  0  0.138978  0.253979  0  4.364614  0
C  C35  1  0.21389800  0.61913639  0.38085195  1  0  0.289273  0  4.067655  0  0  0.270425  0  4.373332  0  0  0.29491  0  4.385503  0  0  0.138905  0.253881  0  4.364498  0
C  C36  1  0.78609206  0.38085921  0.61914665  1  0  0.28935  0  4.067895  0  0  0.270493  0  4.373552  0  0  0.294978  0  4.385724  0  0  0.13895  0.253949  0  4.364717  0
C  C37  1  0.28608941  0.11914843  0.88085564  1  0  0.289306  0  4.067964  0  0  0.270452  0  4.373611  0  0  0.294937  0  4.385782  0  0  0.138925  0.253908  0  4.364775  0
S  S38  1  0.53089503  0.85794369  0.14205524  1  0  -0.32033  0  2.062181  0  0  -0.305092  0  2.35897  0  0  -0.321733  0  2.361082  0  0  -0.157917  -0.293321  0  2.35721  0
S  S39  1  0.03088895  0.64205703  0.35794220  1  0  -0.320247  0  2.062121  0  0  -0.304977  0  2.358859  0  0  -0.321617  0  2.360972  0  0  -0.157829  -0.293208  0  2.3571  0
S  S40  1  0.96910228  0.35794720  0.64205807  1  0  -0.320344  0  2.062252  0  0  -0.305085  0  2.359011  0  0  -0.321725  0  2.361121  0  0  -0.157912  -0.293317  0  2.357251  0
S  S41  1  0.46910088  0.14205561  0.85794501  1  0  -0.32034  0  2.06221  0  0  -0.305088  0  2.358979  0  0  -0.321729  0  2.361088  0  0  -0.157925  -0.293319  0  2.35722  0
N  N42  1  0.85379784  0.90128601  0.76418944  1  0  -0.352215  0  3.18849  0  0  -0.27734  0  3.456287  0  0  -0.298386  0  3.471929  0  0  -0.306733  -0.263419  0  3.445547  0
N  N43  1  0.35379429  0.59871409  0.73581009  1  0  -0.352248  0  3.188623  0  0  -0.27733  0  3.45639  0  0  -0.298371  0  3.472028  0  0  -0.306751  -0.263409  0  3.445648  0
N  N44  1  0.64620852  0.73580983  0.59871218  1  0  -0.352266  0  3.188417  0  0  -0.277374  0  3.456192  0  0  -0.298419  0  3.471834  0  0  -0.306732  -0.263454  0  3.44545  0
N  N45  1  0.14620370  0.76418892  0.90128603  1  0  -0.352193  0  3.188477  0  0  -0.277329  0  3.456313  0  0  -0.298373  0  3.471957  0  0  -0.306717  -0.263408  0  3.445573  0
N  N46  1  0.14620740  0.09871206  0.23581026  1  0  -0.352277  0  3.188561  0  0  -0.277372  0  3.456349  0  0  -0.298417  0  3.471994  0  0  -0.306721  -0.263452  0  3.445612  0
N  N47  1  0.64620862  0.40128891  0.26418963  1  0  -0.352214  0  3.188544  0  0  -0.277309  0  3.456333  0  0  -0.298352  0  3.471979  0  0  -0.306706  -0.263388  0  3.445596  0
N  N48  1  0.35379439  0.26418824  0.40128862  1  0  -0.352239  0  3.188489  0  0  -0.277305  0  3.456245  0  0  -0.298346  0  3.471883  0  0  -0.306692  -0.263384  0  3.445506  0
N  N49  1  0.85379337  0.23580915  0.09871257  1  0  -0.352231  0  3.188552  0  0  -0.27731  0  3.456345  0  0  -0.298349  0  3.471983  0  0  -0.306733  -0.263389  0  3.445607  0
N  N50  1  0.85008836  0.89755228  0.10245107  1  0  -0.58641  0  2.993687  0  0  -0.524205  0  3.290504  0  0  -0.546511  0  3.29216  0  0  -0.415962  -0.508902  0  3.288983  0
N  N51  1  0.35008448  0.60244985  0.39754971  1  0  -0.586381  0  2.993592  0  0  -0.524177  0  3.290425  0  0  -0.546487  0  3.292078  0  0  -0.415968  -0.508876  0  3.288903  0
N  N52  1  0.64990675  0.39755192  0.60245275  1  0  -0.586384  0  2.993746  0  0  -0.524172  0  3.290562  0  0  -0.546482  0  3.292222  0  0  -0.415937  -0.508871  0  3.289036  0
N  N53  1  0.14990871  0.10244948  0.89755250  1  0  -0.586334  0  2.993819  0  0  -0.52411  0  3.290608  0  0  -0.546418  0  3.292266  0  0  -0.415911  -0.508809  0  3.289083  0
