# generated using pymatgen
data_DyP4H20Ru2(CO5)4
_symmetry_space_group_name_H-M   'P 1'
_cell_length_a   9.48175292
_cell_length_b   9.48678737
_cell_length_c   15.54800000
_cell_angle_alpha   92.96879314
_cell_angle_beta   92.97037087
_cell_angle_gamma   99.06479090
_symmetry_Int_Tables_number   1
_chemical_formula_structural   DyP4H20Ru2(CO5)4
_chemical_formula_sum   'Dy2 P8 H40 Ru4 C8 O40'
_cell_volume   1376.69015727
_cell_formula_units_Z   2
loop_
 _symmetry_equiv_pos_site_id
 _symmetry_equiv_pos_as_xyz
  1  'x, y, z'
loop_
 _atom_site_type_symbol
 _atom_site_label
 _atom_site_symmetry_multiplicity
 _atom_site_fract_x
 _atom_site_fract_y
 _atom_site_fract_z
 _atom_site_occupancy
 _atom_site_hle17_ddec_charge
 _atom_site_hle17_ddec_spin_density
 _atom_site_hle17_ddec_sum_bond_order
 _atom_site_hle17_magmom
 _atom_site_pbe_bader_charge
 _atom_site_pbe_bader_spin_density
 _atom_site_pbe_cm5_charge
 _atom_site_pbe_ddec_charge
 _atom_site_pbe_ddec_spin_density
 _atom_site_pbe_ddec_sum_bond_order
 _atom_site_pbe_magmom
Dy  Dy0  1  0.99316676  0.00679287  0.74992476  1  2.371701  -0.000437  1.567281  0.0  2.21563  -0.000186  1.532258  2.276696  -0.000436  1.915797  0.0
Dy  Dy1  1  0.00683730  0.99320118  0.25007968  1  2.371652  -0.000438  1.567315  0.0  2.215582  -0.000186  1.532234  2.276656  -0.000438  1.915796  0.0
P  P2  1  0.05861308  0.34302410  0.64029910  1  1.352686  -0.001076  4.920393  0.003  3.272173  0.003075  0.3198  1.162811  0.002382  5.455058  0.005
P  P3  1  0.65699862  0.94141728  0.85968778  1  1.352654  -0.001079  4.920593  0.003  3.271639  0.003078  0.319657  1.162791  0.002379  5.455267  0.005
P  P4  1  0.94136863  0.65696888  0.35969753  1  1.3527  -0.001076  4.920672  0.003  3.27285  0.003074  0.31983  1.162842  0.002385  5.455245  0.005
P  P5  1  0.34300011  0.05858961  0.14032526  1  1.352597  -0.001082  4.920786  0.003  3.272719  0.003078  0.319645  1.162807  0.002382  5.455322  0.005
P  P6  1  0.99657509  0.64892160  0.65931556  1  1.368255  -0.000845  4.903973  0.003  3.292056  0.003246  0.325492  1.181896  0.002634  5.435586  0.005
P  P7  1  0.35103438  0.00350124  0.84068932  1  1.368367  -0.000851  4.903746  0.003  3.293314  0.003243  0.325393  1.182035  0.002631  5.435253  0.005
P  P8  1  0.00340944  0.35106925  0.34068045  1  1.368404  -0.000858  4.90344  0.003  3.292401  0.003248  0.325551  1.182096  0.002636  5.435034  0.005
P  P9  1  0.64897137  0.99650993  0.15932151  1  1.368528  -0.000856  4.903352  0.003  3.292884  0.003245  0.325424  1.182174  0.002632  5.434904  0.005
H  H10  1  0.17209858  0.43538345  0.81985916  1  0.127483  6.1e-05  0.925173  0.0  0.062774  0.000297  0.103225  0.146872  0.000118  0.983893  0.0
H  H11  1  0.56458358  0.82800665  0.68015663  1  0.127369  6.1e-05  0.925043  0.0  0.06272  0.000297  0.103335  0.146729  0.000118  0.983831  0.0
H  H12  1  0.82790545  0.56461702  0.18013326  1  0.127483  6.2e-05  0.925229  0.0  0.062695  0.000298  0.103253  0.146947  0.000119  0.983871  0.0
H  H13  1  0.43541152  0.17198419  0.31985900  1  0.12729  6.2e-05  0.924909  0.0  0.062726  0.000298  0.103301  0.146665  0.000119  0.983721  0.0
H  H14  1  0.14593378  0.62037377  0.82616141  1  0.127888  -2.9e-05  0.933094  0.0  0.071731  0.000169  0.098466  0.14416  2.3e-05  0.997299  0.0
H  H15  1  0.37950330  0.85413548  0.67385298  1  0.127712  -2.9e-05  0.933473  0.0  0.073037  0.00017  0.098497  0.144  2.4e-05  0.997671  0.0
H  H16  1  0.85405795  0.37962242  0.17383114  1  0.127876  -2.9e-05  0.9331  0.0  0.071663  0.000172  0.098475  0.14418  2.5e-05  0.99728  0.0
H  H17  1  0.62049565  0.14585965  0.32616163  1  0.127756  -2.8e-05  0.93358  0.0  0.072994  0.000171  0.09849  0.14407  2.5e-05  0.997727  0.0
H  H18  1  0.25984230  0.55877806  0.74973443  1  0.116438  1.5e-05  0.943641  0.0  0.057521  0.000295  0.099349  0.137704  0.000144  1.003361  0.0
H  H19  1  0.44112263  0.74030671  0.75029351  1  0.116324  1.5e-05  0.943568  0.0  0.057511  0.000295  0.099238  0.13767  0.000144  1.003195  0.0
H  H20  1  0.74014150  0.44122134  0.25025282  1  0.116464  1.3e-05  0.943748  0.0  0.057542  0.000297  0.099296  0.137743  0.000145  1.003429  0.0
H  H21  1  0.55886908  0.25969590  0.24972689  1  0.116392  1.4e-05  0.943502  0.0  0.057797  0.000297  0.09928  0.137716  0.000146  1.003157  0.0
H  H22  1  0.82526326  0.44046527  0.72244746  1  0.383912  4.3e-05  0.822349  0.0  0.608457  0.000331  0.332197  0.362202  0.000269  0.883041  0.0
H  H23  1  0.55957292  0.17466199  0.77753917  1  0.384036  4.4e-05  0.821886  0.0  0.608843  0.000332  0.332213  0.362226  0.00027  0.882724  0.0
H  H24  1  0.17472182  0.55952237  0.27755554  1  0.383899  4.7e-05  0.822481  0.0  0.608605  0.000331  0.332172  0.362182  0.000269  0.883204  0.0
H  H25  1  0.44044625  0.82534062  0.22246795  1  0.383999  4.6e-05  0.821999  0.0  0.608913  0.000331  0.332221  0.362215  0.000269  0.882812  0.0
H  H26  1  0.39467132  0.51090391  0.53662370  1  0.435783  -2.9e-05  0.808438  0.0  0.631295  0.000575  0.322512  0.407046  0.000169  0.88133  0.0
H  H27  1  0.48919041  0.60573787  0.96334204  1  0.435749  -2.7e-05  0.808859  0.0  0.630851  0.000574  0.32238  0.406999  0.00017  0.881824  0.0
H  H28  1  0.60534745  0.48910939  0.46336059  1  0.43569  -2.5e-05  0.808413  0.0  0.631481  0.000573  0.322581  0.40696  0.000168  0.881309  0.0
H  H29  1  0.51086429  0.39449894  0.03650188  1  0.435684  -2.7e-05  0.808606  0.0  0.63221  0.000573  0.322363  0.406808  0.000167  0.881781  0.0
H  H30  1  0.41493289  0.67629842  0.54877319  1  0.425736  -3.8e-05  0.814523  0.0  0.602446  0.000564  0.331181  0.407837  0.00011  0.870482  0.001
H  H31  1  0.32369848  0.58524375  0.95124194  1  0.425662  -3.7e-05  0.814303  0.0  0.603164  0.000562  0.331106  0.407831  0.000111  0.870251  0.001
H  H32  1  0.58502023  0.32371382  0.45123214  1  0.425649  -3.8e-05  0.814575  0.0  0.602637  0.000562  0.331169  0.407775  0.000109  0.870559  0.001
H  H33  1  0.67633338  0.41470646  0.04875556  1  0.425678  -3.7e-05  0.814235  0.0  0.602902  0.000563  0.331139  0.407817  0.000111  0.870247  0.001
H  H34  1  0.82695398  0.14016826  0.62028530  1  0.442087  -0.000351  0.850415  0.0  0.640126  6.5e-05  0.300851  0.408402  -0.000138  0.915975  0.0
H  H35  1  0.85987974  0.17302580  0.87957923  1  0.442013  -0.000352  0.850603  0.0  0.642218  6.5e-05  0.300807  0.408528  -0.000138  0.915758  0.0
H  H36  1  0.17304436  0.85980334  0.37971761  1  0.442074  -0.000353  0.850436  0.0  0.639887  6.6e-05  0.300794  0.408388  -0.000138  0.916026  0.0
H  H37  1  0.14012675  0.82697681  0.12042621  1  0.442026  -0.000353  0.850582  0.0  0.642043  6.6e-05  0.300834  0.408537  -0.000138  0.915761  0.0
H  H38  1  0.71175947  0.07402650  0.68399718  1  0.424154  -2e-06  0.879395  0.0  0.626146  2.6e-05  0.294717  0.384639  1.6e-05  0.95593  0.0
H  H39  1  0.92593930  0.28814427  0.81582312  1  0.424401  -2e-06  0.878976  0.0  0.626178  2.6e-05  0.294614  0.384732  1.6e-05  0.955766  0.0
H  H40  1  0.28823776  0.92595793  0.31600803  1  0.424324  -2e-06  0.879244  0.0  0.626165  2.6e-05  0.294743  0.384817  1.6e-05  0.955747  0.0
H  H41  1  0.07406353  0.71184872  0.18417997  1  0.424256  -2e-06  0.879178  0.0  0.626017  2.6e-05  0.294573  0.384594  1.6e-05  0.955935  0.0
H  H42  1  0.12325951  0.90218822  0.91536554  1  0.443733  -8.9e-05  0.844231  0.0  0.64868  0.000149  0.308733  0.408003  -7.9e-05  0.913405  0.0
H  H43  1  0.09796221  0.87665184  0.58460939  1  0.443326  -8.6e-05  0.844561  0.0  0.647999  0.000148  0.30873  0.407921  -7.9e-05  0.913285  0.0
H  H44  1  0.87675260  0.09781653  0.08464399  1  0.443793  -9.3e-05  0.844188  0.0  0.64883  0.000149  0.308706  0.408022  -7.9e-05  0.913415  0.0
H  H45  1  0.90203779  0.12334328  0.41539495  1  0.443464  -9.4e-05  0.844376  0.0  0.647957  0.000148  0.308745  0.408022  -7.9e-05  0.913147  0.0
H  H46  1  0.95473341  0.88211010  0.92308301  1  0.449314  -6e-06  0.798609  0.0  0.632836  -3e-06  0.333629  0.426445  -1.6e-05  0.857151  0.0
H  H47  1  0.11805309  0.04505198  0.57676550  1  0.449065  -6e-06  0.798391  0.0  0.630715  -3e-06  0.333628  0.426294  -1.6e-05  0.856789  0.0
H  H48  1  0.04527880  0.11791497  0.07694325  1  0.449337  -7e-06  0.798488  0.0  0.632943  -2e-06  0.333622  0.426454  -1.5e-05  0.857056  0.0
H  H49  1  0.88195219  0.95494314  0.42323194  1  0.449023  -7e-06  0.798493  0.0  0.632625  -2e-06  0.333632  0.426261  -1.5e-05  0.856854  0.0
Ru  Ru50  1  0.12204088  0.54185897  0.49746402  1  0.988723  1.451561  3.189598  1.366  1.269657  1.33188  0.780489  0.889407  1.401834  3.799194  1.312
Ru  Ru51  1  0.45809071  0.87802603  0.00253586  1  0.988326  1.45073  3.190461  1.365  1.270632  1.331811  0.780419  0.88903  1.401933  3.800043  1.312
Ru  Ru52  1  0.87794859  0.45812974  0.50253272  1  0.988172  1.446989  3.190012  1.361  1.27378  1.331894  0.780388  0.889528  1.401721  3.798912  1.312
Ru  Ru53  1  0.54190625  0.12198299  0.99748041  1  0.988553  1.448028  3.190414  1.362  1.274934  1.331808  0.780671  0.88985  1.401804  3.799286  1.312
C  C54  1  0.03453581  0.49259566  0.71704211  1  -0.183587  -0.001851  3.667766  -0.002  -0.395853  5.2e-05  0.051741  -0.13842  -0.000904  3.912544  -0.001
C  C55  1  0.50737477  0.96550781  0.78296283  1  -0.183251  -0.001845  3.667525  -0.002  -0.397252  5.1e-05  0.051838  -0.138239  -0.000902  3.912438  -0.001
C  C56  1  0.96545120  0.50739091  0.28295577  1  -0.183357  -0.001837  3.667369  -0.002  -0.396575  5.3e-05  0.051696  -0.138221  -0.000903  3.912213  -0.001
C  C57  1  0.49262365  0.03449052  0.21704864  1  -0.183314  -0.001839  3.667519  -0.002  -0.398183  5.4e-05  0.051815  -0.138311  -0.000901  3.912495  -0.001
C  C58  1  0.16113940  0.52930734  0.78295563  1  -0.300966  0.000592  3.69488  0.001  -0.097619  0.001243  -0.234547  -0.387033  0.000918  3.934523  0.001
C  C59  1  0.47060849  0.83896380  0.71705977  1  -0.300696  0.000596  3.694524  0.001  -0.097703  0.001245  -0.234656  -0.38681  0.000919  3.934246  0.001
C  C60  1  0.83885022  0.47068886  0.21703621  1  -0.301004  0.000601  3.694829  0.001  -0.097274  0.001245  -0.234472  -0.3872  0.00092  3.934526  0.001
C  C61  1  0.52939292  0.16103347  0.28295820  1  -0.300625  0.0006  3.694185  0.001  -0.097717  0.001246  -0.234636  -0.386825  0.000921  3.933959  0.001
O  O62  1  0.17936369  0.39758418  0.58041404  1  -0.734095  0.012755  2.041366  0.015  -1.342068  0.036854  -0.370199  -0.652941  0.022162  2.323944  0.023
O  O63  1  0.60244791  0.82072613  0.91958531  1  -0.733925  0.012617  2.04174  0.015  -1.341791  0.036798  -0.369831  -0.652608  0.022134  2.324154  0.023
O  O64  1  0.82062222  0.60241522  0.41958292  1  -0.734723  0.012254  2.04213  0.015  -1.34216  0.036834  -0.370172  -0.653036  0.022152  2.324118  0.023
O  O65  1  0.39755826  0.17926793  0.08043142  1  -0.734155  0.012374  2.042031  0.015  -1.341729  0.036835  -0.369896  -0.652626  0.022152  2.324093  0.023
O  O66  1  0.91177819  0.30484306  0.58521834  1  -0.769479  0.017268  2.112792  0.021  -1.348685  0.037369  -0.367939  -0.681018  0.023208  2.395602  0.023
O  O67  1  0.69524999  0.08815872  0.91477875  1  -0.769425  0.017343  2.112598  0.021  -1.349268  0.037398  -0.36808  -0.681108  0.023215  2.395431  0.023
O  O68  1  0.08820902  0.69513816  0.41478131  1  -0.769009  0.017575  2.112232  0.022  -1.348641  0.037377  -0.367925  -0.680941  0.023215  2.395496  0.023
O  O69  1  0.30473892  0.91183962  0.08523178  1  -0.769128  0.017511  2.112184  0.021  -1.349761  0.037428  -0.368062  -0.681012  0.023226  2.395275  0.023
O  O70  1  0.08918724  0.21971077  0.69126730  1  -0.874616  -0.003505  2.014732  -0.003  -1.446263  -0.001088  -0.438021  -0.791051  -0.001793  2.287746  -0.001
O  O71  1  0.78028669  0.91082689  0.80866232  1  -0.874924  -0.003494  2.015414  -0.003  -1.446032  -0.001086  -0.438223  -0.791339  -0.001789  2.288397  -0.001
O  O72  1  0.91080223  0.78027794  0.30873330  1  -0.874536  -0.003492  2.014844  -0.003  -1.446448  -0.001088  -0.437987  -0.791021  -0.001793  2.287939  -0.001
O  O73  1  0.21971835  0.08918642  0.19134919  1  -0.87497  -0.003488  2.015729  -0.003  -1.445935  -0.001085  -0.438224  -0.791368  -0.001789  2.288604  -0.001
O  O74  1  0.12177901  0.68982642  0.59826886  1  -0.764931  0.012887  2.092628  0.015  -1.347736  0.033778  -0.362799  -0.677267  0.020639  2.373871  0.02
O  O75  1  0.31005619  0.87832761  0.90171279  1  -0.765194  0.012815  2.092331  0.015  -1.347877  0.033811  -0.362867  -0.677312  0.020661  2.373376  0.02
O  O76  1  0.87819813  0.31016443  0.40172370  1  -0.765411  0.012584  2.09276  0.015  -1.347634  0.033788  -0.362883  -0.677406  0.020645  2.373559  0.02
O  O77  1  0.68994500  0.12168142  0.09829846  1  -0.765495  0.012645  2.092468  0.015  -1.347699  0.03381  -0.362857  -0.677449  0.020658  2.373287  0.02
O  O78  1  0.85385000  0.59367388  0.60460550  1  -0.723699  0.018198  2.011477  0.023  -1.326421  0.04163  -0.368039  -0.64736  0.025382  2.292134  0.027
O  O79  1  0.40630343  0.14610989  0.89541952  1  -0.723503  0.018305  2.011417  0.023  -1.326857  0.041645  -0.368128  -0.647277  0.025378  2.292122  0.027
O  O80  1  0.14613120  0.40631589  0.39539615  1  -0.723196  0.018625  2.010764  0.023  -1.326616  0.041625  -0.368052  -0.647313  0.025386  2.291895  0.027
O  O81  1  0.59370043  0.85388951  0.10458765  1  -0.72322  0.018543  2.01117  0.023  -1.326754  0.041659  -0.368067  -0.647212  0.025388  2.292172  0.027
O  O82  1  0.98408064  0.76846206  0.72429858  1  -0.877986  -0.00352  2.012239  -0.003  -1.443492  -0.001189  -0.454481  -0.803958  -0.001927  2.294563  -0.002
O  O83  1  0.23152353  0.01606891  0.77566646  1  -0.877805  -0.003516  2.012506  -0.003  -1.443167  -0.001188  -0.454381  -0.803851  -0.001924  2.295009  -0.002
O  O84  1  0.01590583  0.23152771  0.27569874  1  -0.87802  -0.003525  2.012135  -0.003  -1.443557  -0.001188  -0.454456  -0.804052  -0.001926  2.294505  -0.002
O  O85  1  0.76848049  0.98393798  0.22434225  1  -0.877825  -0.003516  2.01228  -0.003  -1.443105  -0.001183  -0.454413  -0.803868  -0.00192  2.294855  -0.002
O  O86  1  0.90776512  0.44414510  0.76361960  1  -0.490695  0.001398  2.050077  0.002  -1.082826  0.003648  -0.358972  -0.42632  0.002245  2.243526  0.003
O  O87  1  0.55587540  0.09219252  0.73637585  1  -0.490913  0.001395  2.04984  0.002  -1.083409  0.003645  -0.358829  -0.426376  0.002243  2.243333  0.003
O  O88  1  0.09222310  0.55584895  0.23638305  1  -0.490787  0.001388  2.050198  0.002  -1.082821  0.003645  -0.35895  -0.426377  0.002243  2.24369  0.003
O  O89  1  0.44412989  0.90780261  0.26363317  1  -0.490891  0.001391  2.049864  0.002  -1.083334  0.003644  -0.358832  -0.426371  0.002243  2.243362  0.003
O  O90  1  0.38260254  0.59675592  0.50640069  1  -0.746988  -0.000752  1.802583  -0.003  -1.176013  0.006398  -0.551142  -0.692681  0.00257  1.984242  -0.002
O  O91  1  0.40330205  0.61756444  0.99360513  1  -0.746883  -0.00076  1.802427  -0.003  -1.176466  0.006397  -0.551003  -0.692695  0.002566  1.984052  -0.002
O  O92  1  0.61737010  0.40325953  0.49359186  1  -0.746662  -0.000778  1.802435  -0.003  -1.176438  0.006395  -0.55125  -0.692532  0.002567  1.984305  -0.002
O  O93  1  0.59680857  0.38236331  0.00635556  1  -0.746672  -0.000775  1.802339  -0.003  -1.17754  0.006407  -0.551011  -0.69246  0.00257  1.984223  -0.002
O  O94  1  0.80010015  0.05804207  0.65614675  1  -0.922171  -0.00035  1.839089  0.0  -1.259955  0.000285  -0.647508  -0.873829  9.8e-05  2.034038  0.0
O  O95  1  0.94191629  0.19980696  0.84361939  1  -0.92241  -0.000352  1.83981  0.0  -1.26189  0.000287  -0.647363  -0.873981  9.9e-05  2.034929  0.0
O  O96  1  0.19990202  0.94194022  0.34385662  1  -0.922339  -0.00036  1.839097  0.0  -1.259699  0.000282  -0.647446  -0.87397  9.6e-05  2.033985  0.0
O  O97  1  0.05807898  0.80018496  0.15638342  1  -0.922347  -0.000357  1.839897  0.0  -1.261673  0.000281  -0.647367  -0.873898  9.5e-05  2.035008  0.0
O  O98  1  0.03561346  0.94191348  0.90041601  1  -0.882779  0.000163  1.840683  0.0  -1.259761  0.000505  -0.614868  -0.834227  0.000212  2.038939  0.0
O  O99  1  0.05825016  0.96428120  0.59951637  1  -0.882031  0.000165  1.840791  0.0  -1.256253  0.000503  -0.614727  -0.833786  0.000211  2.038593  0.0
O  O100  1  0.96439409  0.05808913  0.09958753  1  -0.882841  0.000157  1.840515  0.0  -1.259993  0.000505  -0.614819  -0.834217  0.000212  2.038811  0.0
O  O101  1  0.94175621  0.03570750  0.40048733  1  -0.882184  0.000154  1.840718  0.0  -1.258185  0.000503  -0.614761  -0.833859  0.000211  2.038531  0.0
