# generated using pymatgen
data_CuH10(C4O5)2
_symmetry_space_group_name_H-M   'P 1'
_cell_length_a   7.63180567
_cell_length_b   7.65157756
_cell_length_c   10.22900133
_cell_angle_alpha   90.00126445
_cell_angle_beta   89.99786101
_cell_angle_gamma   88.91971875
_symmetry_Int_Tables_number   1
_chemical_formula_structural   CuH10(C4O5)2
_chemical_formula_sum   'Cu2 H20 C16 O20'
_cell_volume   597.21997457
_cell_formula_units_Z   2
loop_
 _symmetry_equiv_pos_site_id
 _symmetry_equiv_pos_as_xyz
  1  'x, y, z'
loop_
 _atom_site_type_symbol
 _atom_site_label
 _atom_site_symmetry_multiplicity
 _atom_site_fract_x
 _atom_site_fract_y
 _atom_site_fract_z
 _atom_site_occupancy
 _atom_site_pbe_cm5_charge
 _atom_site_pbe_ddec_charge
 _atom_site_pbe_ddec_spin_density
 _atom_site_pbe_ddec_sum_bond_order
 _atom_site_pbe_magmom
Cu  Cu0  1  0.75137318  0.75116944  0.73791067  1  0.727667  0.914313  0.75791  2.117231  0.607
Cu  Cu1  1  0.24862655  0.24885190  0.23789874  1  0.727657  0.914244  0.75795  2.117216  0.607
H  H2  1  0.56692077  0.53972714  0.81162829  1  0.308049  0.363617  -0.000219  0.950949  -0.001
H  H3  1  0.43308520  0.46025808  0.31161878  1  0.308063  0.363625  -0.000219  0.950902  -0.001
H  H4  1  0.10553805  0.71659780  0.07268834  1  0.29946  0.352381  1.1e-05  0.979094  0.0
H  H5  1  0.89445139  0.28340507  0.57268803  1  0.299395  0.352192  1.1e-05  0.979124  0.0
H  H6  1  0.06165198  0.74348281  0.60927726  1  0.326865  0.388097  0.000826  0.895034  0.002
H  H7  1  0.93833064  0.25653826  0.10924506  1  0.326702  0.387912  0.00083  0.895127  0.002
H  H8  1  0.42392040  0.91031122  0.36467399  1  0.302459  0.364414  -8e-05  0.974263  0.0
H  H9  1  0.57608945  0.08967398  0.86467337  1  0.302503  0.364512  -8.1e-05  0.974193  0.0
H  H10  1  0.61179831  0.49787505  0.02183953  1  0.123368  0.100517  0.000826  0.982433  0.001
H  H11  1  0.38818724  0.50213442  0.52183874  1  0.123324  0.100448  0.000827  0.982518  0.001
H  H12  1  0.60974216  0.76882221  0.17328879  1  0.111857  0.148582  0.000546  1.0129  0.001
H  H13  1  0.39023597  0.23120204  0.67329491  1  0.111884  0.148694  0.000546  1.012856  0.001
H  H14  1  0.52719679  0.89147559  0.03789853  1  0.108864  0.143603  0.000111  0.999927  0.0
H  H15  1  0.47278123  0.10852280  0.53789725  1  0.108847  0.143557  0.000111  0.99985  0.0
H  H16  1  0.89037572  0.64134329  0.44761548  1  0.122017  0.086844  -0.000213  0.943096  0.0
H  H17  1  0.10962622  0.35865617  0.94759167  1  0.12208  0.087  -0.000213  0.943045  0.0
H  H18  1  0.95862693  0.86318942  0.28493685  1  0.118751  0.16241  0.0006  0.969291  0.001
H  H19  1  0.04138803  0.13678039  0.78493550  1  0.118702  0.162271  0.0006  0.969421  0.001
H  H20  1  0.96245564  0.03163045  0.40280709  1  0.112863  0.1559  -8.7e-05  0.996103  0.0
H  H21  1  0.03756008  0.96835036  0.90280285  1  0.112939  0.155892  -8.7e-05  0.995776  0.0
C  C22  1  0.82895437  0.66323299  0.99115249  1  0.212504  0.553489  -0.000826  4.14342  -0.001
C  C23  1  0.17103350  0.33676158  0.49115113  1  0.212427  0.553461  -0.000821  4.143317  -0.001
C  C24  1  0.63054207  0.63381316  0.99043355  1  -3.5e-05  0.099075  0.000739  3.820412  -0.001
C  C25  1  0.36946435  0.36619253  0.49042517  1  1.3e-05  0.099091  0.000739  3.82025  -0.001
C  C26  1  0.53488501  0.76121133  0.08191722  1  -0.167493  -0.364342  0.000925  3.866235  0.001
C  C27  1  0.46512228  0.23878857  0.58193115  1  -0.167545  -0.364519  0.000925  3.866295  0.001
C  C28  1  0.35467651  0.69756239  0.11487549  1  0.241475  0.683351  -0.000377  4.027591  0.0
C  C29  1  0.64530419  0.30243667  0.61487667  1  0.241319  0.683145  -0.000376  4.028316  0.0
C  C30  1  0.68416214  0.82774616  0.48054699  1  0.221813  0.565441  -0.002043  4.133593  -0.003
C  C31  1  0.31583310  0.17226748  0.98053560  1  0.22189  0.565785  -0.002046  4.134456  -0.003
C  C32  1  0.87885953  0.77996697  0.47762272  1  0.001458  0.102338  0.00203  3.870223  0.002
C  C33  1  0.12116696  0.22002203  0.97756878  1  0.001424  0.102098  0.002034  3.870057  0.002
C  C34  1  0.98970575  0.89153147  0.38772285  1  -0.163674  -0.379007  0.001682  3.885391  0.001
C  C35  1  0.01031776  0.10848135  0.88770623  1  -0.163512  -0.378475  0.001677  3.885212  0.001
C  C36  1  0.18160693  0.85233662  0.41200213  1  0.238427  0.665917  0.000432  4.022647  0.0
C  C37  1  0.81840594  0.14766022  0.91200549  1  0.23839  0.665579  0.000434  4.022742  0.0
O  O38  1  0.90334974  0.69360203  0.88044394  1  -0.333168  -0.544403  0.058153  2.359732  0.084
O  O39  1  0.09667106  0.30637932  0.38044512  1  -0.333163  -0.544364  0.058134  2.360075  0.084
O  O40  1  0.91268622  0.65568596  0.09672865  1  -0.296672  -0.49992  0.015749  2.15765  0.021
O  O41  1  0.08731117  0.34431599  0.59674040  1  -0.296607  -0.499872  0.015745  2.15755  0.021
O  O42  1  0.56185560  0.65494570  0.85877962  1  -0.38394  -0.464959  0.053041  2.346297  0.074
O  O43  1  0.43815204  0.34504727  0.35877480  1  -0.383929  -0.464884  0.053037  2.34644  0.074
O  O44  1  0.33049387  0.58097376  0.19747036  1  -0.305364  -0.588737  -0.001568  2.259064  0.0
O  O45  1  0.66947576  0.41900176  0.69748854  1  -0.305223  -0.588504  -0.001567  2.259143  0.0
O  O46  1  0.22504894  0.77086372  0.04864178  1  -0.317451  -0.462857  0.000294  2.306054  0.0
O  O47  1  0.77492827  0.22911669  0.54864388  1  -0.317376  -0.462593  0.000294  2.305977  0.0
O  O48  1  0.60551981  0.81671839  0.59110229  1  -0.32089  -0.524903  0.054786  2.335234  0.079
O  O49  1  0.39449363  0.18328548  0.09106848  1  -0.320929  -0.524906  0.054795  2.335201  0.079
O  O50  1  0.61048487  0.87064362  0.37499362  1  -0.286671  -0.480902  0.008295  2.225946  0.011
O  O51  1  0.38953265  0.12936383  0.87499407  1  -0.286622  -0.481005  0.008298  2.226224  0.011
O  O52  1  0.94077110  0.79557217  0.61108370  1  -0.392836  -0.503722  0.043531  2.464376  0.063
O  O53  1  0.05923507  0.20445208  0.11109001  1  -0.392884  -0.503815  0.043534  2.463092  0.063
O  O54  1  0.23235744  0.74185718  0.49308950  1  -0.284381  -0.505422  0.00446  2.161971  0.006
O  O55  1  0.76763334  0.25816349  0.99308059  1  -0.284336  -0.505317  0.004462  2.16208  0.006
O  O56  1  0.29168352  0.94598508  0.34211873  1  -0.325371  -0.531221  0.000445  2.394998  0.002
O  O57  1  0.70833397  0.05399665  0.84212452  1  -0.325383  -0.531148  0.000446  2.394926  0.002
