# generated using pymatgen
data_ZnH10C12(IN2)2
_symmetry_space_group_name_H-M   'P 1'
_cell_length_a   8.33683364
_cell_length_b   11.72277428
_cell_length_c   15.04985902
_cell_angle_alpha   90.00056157
_cell_angle_beta   90.00085174
_cell_angle_gamma   90.00030450
_symmetry_Int_Tables_number   1
_chemical_formula_structural   ZnH10C12(IN2)2
_chemical_formula_sum   'Zn4 H40 C48 I8 N16'
_cell_volume   1470.83504848
_cell_formula_units_Z   4
loop_
 _symmetry_equiv_pos_site_id
 _symmetry_equiv_pos_as_xyz
  1  'x, y, z'
loop_
 _atom_site_type_symbol
 _atom_site_label
 _atom_site_symmetry_multiplicity
 _atom_site_fract_x
 _atom_site_fract_y
 _atom_site_fract_z
 _atom_site_occupancy
 _atom_site_hle17_bader_spin_density
 _atom_site_hle17_ddec_charge
 _atom_site_hle17_ddec_spin_density
 _atom_site_hle17_ddec_sum_bond_order
 _atom_site_hle17_magmom
 _atom_site_hse06_10hf_bader_spin_density
 _atom_site_hse06_10hf_ddec_charge
 _atom_site_hse06_10hf_ddec_spin_density
 _atom_site_hse06_10hf_ddec_sum_bond_order
 _atom_site_hse06_10hf_magmom
 _atom_site_hse06_bader_spin_density
 _atom_site_hse06_ddec_charge
 _atom_site_hse06_ddec_spin_density
 _atom_site_hse06_ddec_sum_bond_order
 _atom_site_hse06_magmom
 _atom_site_pbe_bader_spin_density
 _atom_site_pbe_cm5_charge
 _atom_site_pbe_ddec_charge
 _atom_site_pbe_ddec_spin_density
 _atom_site_pbe_ddec_sum_bond_order
 _atom_site_pbe_magmom
Zn  Zn0  1  0.72474946  0.99342589  0.75000474  1  0  0.677978  0  2.188763  0  0  0.515821  0  2.649522  0  0  0.558911  0  2.609178  0  0  0.457923  0.486599  0  2.676541  0
Zn  Zn1  1  0.77526122  0.49342363  0.24999691  1  0  0.67802  0  2.188753  0  0  0.515857  0  2.649603  0  0  0.558932  0  2.609257  0  0  0.457922  0.486632  0  2.676622  0
Zn  Zn2  1  0.22476877  0.50659056  0.75000070  1  0  0.678032  0  2.188692  0  0  0.51595  0  2.649343  0  0  0.55905  0  2.609006  0  0  0.457936  0.486735  0  2.67639  0
Zn  Zn3  1  0.27524695  0.00657466  0.25000284  1  0  0.677947  0  2.188708  0  0  0.515845  0  2.649383  0  0  0.558942  0  2.609045  0  0  0.45791  0.486626  0  2.676405  0
H  H4  1  0.40642215  0.05968604  0.82624488  1  0  0.076758  0  0.962622  0  0  0.08319  0  1.035636  0  0  0.085691  0  1.03329  0  0  0.105011  0.081309  0  1.037381  0
H  H5  1  0.09358079  0.55968185  0.17375378  1  0  0.07676  0  0.962662  0  0  0.083171  0  1.035694  0  0  0.085674  0  1.033346  0  0  0.105009  0.081291  0  1.037434  0
H  H6  1  0.90644597  0.44031779  0.67376267  1  0  0.076924  0  0.962673  0  0  0.083327  0  1.035706  0  0  0.08583  0  1.033362  0  0  0.105002  0.081445  0  1.037452  0
H  H7  1  0.59355230  0.94030858  0.32624785  1  0  0.076764  0  0.962704  0  0  0.08319  0  1.035732  0  0  0.085696  0  1.033387  0  0  0.10495  0.081311  0  1.037469  0
H  H8  1  0.59355026  0.94030427  0.17376071  1  0  0.076751  0  0.962706  0  0  0.083229  0  1.035673  0  0  0.085735  0  1.033326  0  0  0.104957  0.081349  0  1.037412  0
H  H9  1  0.90644680  0.44030589  0.82623586  1  0  0.076868  0  0.962599  0  0  0.083286  0  1.035618  0  0  0.085791  0  1.033272  0  0  0.105001  0.081407  0  1.037362  0
H  H10  1  0.09356003  0.55968873  0.32624026  1  0  0.07676  0  0.962648  0  0  0.083198  0  1.03566  0  0  0.085703  0  1.033312  0  0  0.104945  0.081317  0  1.037398  0
H  H11  1  0.40645130  0.05969367  0.67375707  1  0  0.07679  0  0.962753  0  0  0.083238  0  1.035743  0  0  0.085741  0  1.0334  0  0  0.104933  0.08136  0  1.037484  0
H  H12  1  0.30225047  0.83181671  0.04407546  1  0  0.098184  0  0.967328  0  0  0.104615  0  1.038448  0  0  0.107972  0  1.034895  0  0  0.100701  0.102095  0  1.041089  0
H  H13  1  0.19773780  0.33180973  0.95592008  1  0  0.098273  0  0.967318  0  0  0.104664  0  1.038535  0  0  0.108012  0  1.034993  0  0  0.100762  0.102184  0  1.041097  0
H  H14  1  0.80224371  0.66817619  0.45592724  1  0  0.098059  0  0.96704  0  0  0.104468  0  1.038242  0  0  0.107821  0  1.034687  0  0  0.10061  0.101919  0  1.040905  0
H  H15  1  0.69775244  0.16818908  0.54407179  1  0  0.098177  0  0.967496  0  0  0.104652  0  1.038578  0  0  0.10801  0  1.035029  0  0  0.100743  0.102154  0  1.041194  0
H  H16  1  0.69773634  0.16816934  0.95592947  1  0  0.098024  0  0.967131  0  0  0.104479  0  1.038277  0  0  0.107831  0  1.03472  0  0  0.100633  0.101948  0  1.040936  0
H  H17  1  0.80224062  0.66816778  0.04406823  1  0  0.098039  0  0.967207  0  0  0.10448  0  1.038315  0  0  0.107835  0  1.034762  0  0  0.100618  0.101928  0  1.040989  0
H  H18  1  0.19775269  0.33182776  0.54407437  1  0  0.098167  0  0.967254  0  0  0.104607  0  1.038374  0  0  0.107959  0  1.034823  0  0  0.100651  0.102068  0  1.041033  0
H  H19  1  0.30225117  0.83183194  0.45592317  1  0  0.098121  0  0.967232  0  0  0.104569  0  1.038331  0  0  0.107922  0  1.034778  0  0  0.100641  0.102023  0  1.040993  0
H  H20  1  0.56309452  0.73431022  0.01355360  1  0  0.108089  0  0.981289  0  0  0.110129  0  1.054413  0  0  0.114216  0  1.052334  0  0  0.10374  0.107249  0  1.055964  0
H  H21  1  0.93689495  0.23430617  0.98644729  1  0  0.108048  0  0.981391  0  0  0.110056  0  1.054556  0  0  0.114144  0  1.052475  0  0  0.103704  0.107174  0  1.056112  0
H  H22  1  0.06308378  0.76568864  0.48644512  1  0  0.108092  0  0.9814  0  0  0.110114  0  1.054529  0  0  0.114199  0  1.052455  0  0  0.103752  0.107234  0  1.056076  0
H  H23  1  0.43691957  0.26570118  0.51354789  1  0  0.108015  0  0.981376  0  0  0.11003  0  1.054525  0  0  0.114114  0  1.052453  0  0  0.103726  0.107154  0  1.056072  0
H  H24  1  0.43690549  0.26568350  0.98644867  1  0  0.107958  0  0.981479  0  0  0.110091  0  1.054505  0  0  0.114177  0  1.052428  0  0  0.103758  0.107207  0  1.056062  0
H  H25  1  0.06307986  0.76568158  0.01355764  1  0  0.107962  0  0.981481  0  0  0.110115  0  1.05448  0  0  0.114198  0  1.052407  0  0  0.103763  0.107231  0  1.056033  0
H  H26  1  0.93691383  0.23431617  0.51355515  1  0  0.107931  0  0.98145  0  0  0.110043  0  1.054498  0  0  0.114128  0  1.052423  0  0  0.103733  0.107162  0  1.056055  0
H  H27  1  0.56309003  0.73431728  0.48644175  1  0  0.10792  0  0.981481  0  0  0.110072  0  1.054492  0  0  0.114157  0  1.052415  0  0  0.103753  0.107192  0  1.056042  0
H  H28  1  0.73660520  0.80780514  0.88822726  1  0  0.070321  0  0.974485  0  0  0.07525  0  1.046945  0  0  0.077804  0  1.04509  0  0  0.100595  0.073412  0  1.048271  0
H  H29  1  0.76339444  0.30780120  0.11177555  1  0  0.070355  0  0.974502  0  0  0.075248  0  1.046979  0  0  0.077805  0  1.04512  0  0  0.100609  0.073415  0  1.048301  0
H  H30  1  0.23660188  0.69220965  0.61177097  1  0  0.070286  0  0.974618  0  0  0.075201  0  1.047091  0  0  0.077757  0  1.045231  0  0  0.100584  0.073363  0  1.048419  0
H  H31  1  0.26339969  0.19220898  0.38822677  1  0  0.070227  0  0.974598  0  0  0.075185  0  1.047034  0  0  0.07774  0  1.045176  0  0  0.10058  0.073349  0  1.048362  0
H  H32  1  0.26338881  0.19220052  0.11177168  1  0  0.070393  0  0.974378  0  0  0.075217  0  1.04693  0  0  0.077775  0  1.045069  0  0  0.100596  0.073382  0  1.048254  0
H  H33  1  0.23660317  0.69220276  0.88823668  1  0  0.070269  0  0.974561  0  0  0.075234  0  1.046981  0  0  0.07779  0  1.045125  0  0  0.100589  0.073396  0  1.048308  0
H  H34  1  0.76340172  0.30779686  0.38822731  1  0  0.070356  0  0.974577  0  0  0.075285  0  1.047011  0  0  0.077843  0  1.04515  0  0  0.100633  0.07345  0  1.048335  0
H  H35  1  0.73660991  0.80779924  0.61177085  1  0  0.070348  0  0.974453  0  0  0.075243  0  1.046942  0  0  0.077799  0  1.045085  0  0  0.100616  0.073408  0  1.048264  0
H  H36  1  0.14428167  0.07546808  0.89701661  1  0  0.078186  0  0.936177  0  0  0.085171  0  1.007684  0  0  0.089  0  1.003005  0  0  0.108151  0.082395  0  1.011  0
H  H37  1  0.35571540  0.57546316  0.10297885  1  0  0.078159  0  0.936181  0  0  0.085145  0  1.007692  0  0  0.088977  0  1.003011  0  0  0.108152  0.082368  0  1.011008  0
H  H38  1  0.64429028  0.42452456  0.60299807  1  0  0.078091  0  0.936087  0  0  0.085104  0  1.007595  0  0  0.08894  0  1.002912  0  0  0.108077  0.082328  0  1.010915  0
H  H39  1  0.85570067  0.92452482  0.39701233  1  0  0.078138  0  0.935926  0  0  0.085107  0  1.007458  0  0  0.088941  0  1.002775  0  0  0.10811  0.082331  0  1.010771  0
H  H40  1  0.85569075  0.92451028  0.10299695  1  0  0.078023  0  0.93609  0  0  0.084982  0  1.00767  0  0  0.088815  0  1.002991  0  0  0.108031  0.082207  0  1.010981  0
H  H41  1  0.64430020  0.42451094  0.89699352  1  0  0.077998  0  0.93612  0  0  0.085028  0  1.007654  0  0  0.088863  0  1.002972  0  0  0.108038  0.082253  0  1.010971  0
H  H42  1  0.35569893  0.57548196  0.39700486  1  0  0.078102  0  0.93603  0  0  0.085114  0  1.007559  0  0  0.088946  0  1.002879  0  0  0.108079  0.08234  0  1.010875  0
H  H43  1  0.14430653  0.07548085  0.60299326  1  0  0.078088  0  0.93609  0  0  0.085074  0  1.007611  0  0  0.088905  0  1.002931  0  0  0.108079  0.082297  0  1.010928  0
C  C44  1  0.43497431  0.98568472  0.86751159  1  0  0.09556  0  3.651024  0  0  0.056805  0  3.894066  0  0  0.063071  0  3.91403  0  0  0.052343  0.052893  0  3.880508  0
C  C45  1  0.06502475  0.48567945  0.13248719  1  0  0.095494  0  3.650834  0  0  0.056823  0  3.893866  0  0  0.063091  0  3.913824  0  0  0.052353  0.052913  0  3.88031  0
C  C46  1  0.93499251  0.51432226  0.63249559  1  0  0.095197  0  3.651102  0  0  0.056507  0  3.894087  0  0  0.062765  0  3.914059  0  0  0.052223  0.052613  0  3.880553  0
C  C47  1  0.56501084  0.01431978  0.36751481  1  0  0.095469  0  3.651024  0  0  0.056773  0  3.894032  0  0  0.063034  0  3.913998  0  0  0.052358  0.052874  0  3.880482  0
C  C48  1  0.56499810  0.01431241  0.13249201  1  0  0.095376  0  3.650994  0  0  0.056632  0  3.893963  0  0  0.062886  0  3.913934  0  0  0.052249  0.052732  0  3.880403  0
C  C49  1  0.93499805  0.51431171  0.86750444  1  0  0.095362  0  3.651013  0  0  0.056691  0  3.894004  0  0  0.062943  0  3.913978  0  0  0.052291  0.052797  0  3.880466  0
C  C50  1  0.06500629  0.48568170  0.36750867  1  0  0.095453  0  3.651041  0  0  0.056757  0  3.893989  0  0  0.063014  0  3.913955  0  0  0.052344  0.052867  0  3.880438  0
C  C51  1  0.43499876  0.98569015  0.63248879  1  0  0.095247  0  3.651221  0  0  0.056528  0  3.894179  0  0  0.06277  0  3.91415  0  0  0.05223  0.052633  0  3.880631  0
C  C52  1  0.32810473  0.94859642  0.93326178  1  0  -0.002181  0  3.795407  0  0  0.023753  0  4.022187  0  0  0.017004  0  4.046939  0  0  -0.004542  0.027941  0  4.005597  0
C  C53  1  0.17188804  0.44858991  0.06673072  1  0  -0.00194  0  3.794866  0  0  0.023954  0  4.021695  0  0  0.017208  0  4.046448  0  0  -0.004499  0.028131  0  4.005114  0
C  C54  1  0.82811187  0.55140334  0.56674518  1  0  -0.002225  0  3.794929  0  0  0.023715  0  4.021736  0  0  0.016976  0  4.046488  0  0  -0.004541  0.027898  0  4.005136  0
C  C55  1  0.67188097  0.05140970  0.43326153  1  0  -0.002087  0  3.795311  0  0  0.023853  0  4.022091  0  0  0.017109  0  4.046846  0  0  -0.004477  0.028037  0  4.005505  0
C  C56  1  0.67187728  0.05139730  0.06674780  1  0  -0.002195  0  3.795011  0  0  0.023725  0  4.021819  0  0  0.016993  0  4.046564  0  0  -0.004466  0.027907  0  4.005232  0
C  C57  1  0.82811437  0.55139698  0.93324829  1  0  -0.002239  0  3.795067  0  0  0.02372  0  4.021876  0  0  0.016992  0  4.04663  0  0  -0.004491  0.027899  0  4.005286  0
C  C58  1  0.17188573  0.44860061  0.43325708  1  0  -0.002229  0  3.79506  0  0  0.023736  0  4.021875  0  0  0.016998  0  4.046628  0  0  -0.004508  0.02792  0  4.005279  0
C  C59  1  0.32812023  0.94860705  0.56674406  1  0  -0.002159  0  3.795363  0  0  0.023767  0  4.022155  0  0  0.017031  0  4.046911  0  0  -0.004444  0.027953  0  4.005553  0
C  C60  1  0.37779305  0.85869833  0.98872592  1  0  -0.020177  0  3.653021  0  0  -0.043559  0  3.889157  0  0  -0.039161  0  3.906967  0  0  -0.05654  -0.046084  0  3.876961  0
C  C61  1  0.12219062  0.35869098  0.01126984  1  0  -0.020493  0  3.653474  0  0  -0.043822  0  3.889499  0  0  -0.039429  0  3.907324  0  0  -0.056615  -0.046351  0  3.877301  0
C  C62  1  0.87779701  0.64130077  0.51127746  1  0  -0.020028  0  3.652854  0  0  -0.043418  0  3.889011  0  0  -0.039016  0  3.906813  0  0  -0.056477  -0.045908  0  3.876817  0
C  C63  1  0.62221332  0.14130846  0.48872733  1  0  -0.02032  0  3.652997  0  0  -0.043799  0  3.889187  0  0  -0.03941  0  3.90701  0  0  -0.056619  -0.04633  0  3.876979  0
C  C64  1  0.62219975  0.14129198  0.01127767  1  0  -0.020034  0  3.652751  0  0  -0.043463  0  3.888967  0  0  -0.039063  0  3.906768  0  0  -0.056489  -0.045984  0  3.876797  0
C  C65  1  0.87778299  0.64128994  0.98872180  1  0  -0.020147  0  3.652676  0  0  -0.043551  0  3.88893  0  0  -0.039125  0  3.906654  0  0  -0.056567  -0.046042  0  3.876751  0
C  C66  1  0.12220539  0.35870404  0.48872680  1  0  -0.020274  0  3.653036  0  0  -0.043724  0  3.889304  0  0  -0.039316  0  3.907086  0  0  -0.056587  -0.046224  0  3.877112  0
C  C67  1  0.37779868  0.85870829  0.51127162  1  0  -0.020196  0  3.652962  0  0  -0.043602  0  3.889171  0  0  -0.039187  0  3.906936  0  0  -0.056526  -0.046098  0  3.87698  0
C  C68  1  0.52454380  0.80650608  0.97317933  1  0  -0.116094  0  3.721121  0  0  -0.126042  0  3.971028  0  0  -0.134925  0  3.992356  0  0  -0.083469  -0.120388  0  3.956709  0
C  C69  1  0.97544863  0.30650019  0.02681749  1  0  -0.115984  0  3.721354  0  0  -0.1259  0  3.97124  0  0  -0.134778  0  3.992563  0  0  -0.083453  -0.120247  0  3.956932  0
C  C70  1  0.02454182  0.69349515  0.52681914  1  0  -0.116088  0  3.721263  0  0  -0.126008  0  3.971153  0  0  -0.134887  0  3.992478  0  0  -0.083482  -0.120352  0  3.956815  0
C  C71  1  0.47545256  0.19350649  0.47317595  1  0  -0.115944  0  3.720762  0  0  -0.12584  0  3.970689  0  0  -0.13472  0  3.992014  0  0  -0.083408  -0.120191  0  3.956377  0
C  C72  1  0.47544900  0.19349020  0.02682493  1  0  -0.115922  0  3.721282  0  0  -0.12595  0  3.971146  0  0  -0.134829  0  3.992473  0  0  -0.083484  -0.120292  0  3.956824  0
C  C73  1  0.02453459  0.69349097  0.97318013  1  0  -0.115963  0  3.720902  0  0  -0.126023  0  3.970801  0  0  -0.134898  0  3.992134  0  0  -0.083478  -0.120356  0  3.956457  0
C  C74  1  0.97545698  0.30651051  0.47318047  1  0  -0.11586  0  3.721158  0  0  -0.12586  0  3.971042  0  0  -0.134738  0  3.99237  0  0  -0.083429  -0.120203  0  3.956715  0
C  C75  1  0.52454744  0.80651196  0.52681635  1  0  -0.115829  0  3.721155  0  0  -0.125875  0  3.971024  0  0  -0.134753  0  3.992357  0  0  -0.083477  -0.120219  0  3.956692  0
C  C76  1  0.62073063  0.84605279  0.90396529  1  0  0.141223  0  3.672199  0  0  0.107579  0  3.920483  0  0  0.116582  0  3.937262  0  0  0.045484  0.101661  0  3.909264  0
C  C77  1  0.87926091  0.34604909  0.09603517  1  0  0.141163  0  3.672024  0  0  0.107576  0  3.920357  0  0  0.116582  0  3.937128  0  0  0.045446  0.101658  0  3.909138  0
C  C78  1  0.12073739  0.65395731  0.59603730  1  0  0.141268  0  3.672075  0  0  0.10762  0  3.920414  0  0  0.116628  0  3.937186  0  0  0.045471  0.101719  0  3.90921  0
C  C79  1  0.37926989  0.15395810  0.40396677  1  0  0.14129  0  3.67232  0  0  0.107622  0  3.920681  0  0  0.116624  0  3.937457  0  0  0.045452  0.101717  0  3.909474  0
C  C80  1  0.37925618  0.15395116  0.09603499  1  0  0.141116  0  3.672053  0  0  0.107563  0  3.92043  0  0  0.116564  0  3.937204  0  0  0.04543  0.101655  0  3.909215  0
C  C81  1  0.12073310  0.65394975  0.90396842  1  0  0.141263  0  3.672177  0  0  0.107621  0  3.920542  0  0  0.116621  0  3.937322  0  0  0.045508  0.101725  0  3.909325  0
C  C82  1  0.87926142  0.34604750  0.40396563  1  0  0.141149  0  3.672191  0  0  0.107529  0  3.920518  0  0  0.116531  0  3.937285  0  0  0.045408  0.101625  0  3.909312  0
C  C83  1  0.62074211  0.84605268  0.59603284  1  0  0.141099  0  3.672211  0  0  0.107493  0  3.920574  0  0  0.116486  0  3.937342  0  0  0.045407  0.10159  0  3.909363  0
C  C84  1  0.17295595  0.00444341  0.94199959  1  0  0.096256  0  3.686636  0  0  0.060511  0  3.947879  0  0  0.068614  0  3.961079  0  0  0.070665  0.05502  0  3.939129  0
C  C85  1  0.32704177  0.50443528  0.05799463  1  0  0.096358  0  3.686702  0  0  0.060621  0  3.947916  0  0  0.068721  0  3.961116  0  0  0.070696  0.055141  0  3.939162  0
C  C86  1  0.67295311  0.49555616  0.55800404  1  0  0.096444  0  3.686913  0  0  0.060661  0  3.948171  0  0  0.068755  0  3.961375  0  0  0.070794  0.055181  0  3.939417  0
C  C87  1  0.82704199  0.99556197  0.44200561  1  0  0.096244  0  3.686846  0  0  0.060533  0  3.948055  0  0  0.068626  0  3.961256  0  0  0.070679  0.055054  0  3.939295  0
C  C88  1  0.82703926  0.99554690  0.05799935  1  0  0.096389  0  3.687643  0  0  0.060676  0  3.948826  0  0  0.068766  0  3.962036  0  0  0.070769  0.055197  0  3.940062  0
C  C89  1  0.67295584  0.49554393  0.94199102  1  0  0.096589  0  3.687147  0  0  0.060713  0  3.948477  0  0  0.068801  0  3.961688  0  0  0.070822  0.055233  0  3.939722  0
C  C90  1  0.32704569  0.50444950  0.44200022  1  0  0.096466  0  3.686808  0  0  0.060643  0  3.948108  0  0  0.068736  0  3.961315  0  0  0.070789  0.055164  0  3.939356  0
C  C91  1  0.17296522  0.00445478  0.55800131  1  0  0.096392  0  3.687009  0  0  0.060643  0  3.948254  0  0  0.068735  0  3.961462  0  0  0.070737  0.055164  0  3.939497  0
I  I92  1  0.71248517  0.21217906  0.75000352  1  0  -0.485151  0  1.063769  0  0  -0.434538  0  1.400224  0  0  -0.452091  0  1.372305  0  0  -0.244103  -0.422014  0  1.419233  0
I  I93  1  0.78754251  0.71217733  0.25000316  1  0  -0.485147  0  1.063716  0  0  -0.434524  0  1.400183  0  0  -0.452076  0  1.372278  0  0  -0.244101  -0.421997  0  1.419173  0
I  I94  1  0.21248508  0.28783430  0.74999578  1  0  -0.485171  0  1.063755  0  0  -0.434627  0  1.400271  0  0  -0.452141  0  1.372297  0  0  -0.244102  -0.4221  0  1.419281  0
I  I95  1  0.28755562  0.78782234  0.25000539  1  0  -0.485114  0  1.063713  0  0  -0.434537  0  1.400184  0  0  -0.452078  0  1.372259  0  0  -0.244069  -0.422011  0  1.419191  0
I  I96  1  0.98529877  0.87824799  0.75001067  1  0  -0.436221  0  1.087756  0  0  -0.387391  0  1.417342  0  0  -0.408964  0  1.39923  0  0  -0.212955  -0.371149  0  1.429177  0
I  I97  1  0.51470022  0.37825844  0.25000002  1  0  -0.436241  0  1.087775  0  0  -0.387379  0  1.417317  0  0  -0.408939  0  1.399196  0  0  -0.212952  -0.371136  0  1.429152  0
I  I98  1  0.48532858  0.62176173  0.74999759  1  0  -0.436181  0  1.087759  0  0  -0.387382  0  1.417361  0  0  -0.408956  0  1.399248  0  0  -0.21293  -0.371133  0  1.429198  0
I  I99  1  0.01469044  0.12174231  0.25000090  1  0  -0.436207  0  1.08775  0  0  -0.387358  0  1.417275  0  0  -0.408926  0  1.399158  0  0  -0.212957  -0.371115  0  1.429106  0
N  N100  1  0.57789150  0.93588951  0.85348062  1  0  -0.294466  0  3.326737  0  0  -0.208021  0  3.592518  0  0  -0.227909  0  3.610072  0  0  -0.330973  -0.194915  0  3.580643  0
N  N101  1  0.92211033  0.43588400  0.14651791  1  0  -0.294478  0  3.326805  0  0  -0.208132  0  3.592649  0  0  -0.228025  0  3.610208  0  0  -0.330995  -0.195027  0  3.580769  0
N  N102  1  0.07790490  0.56412129  0.64652361  1  0  -0.294421  0  3.326885  0  0  -0.208004  0  3.59263  0  0  -0.227903  0  3.6102  0  0  -0.330874  -0.194954  0  3.580817  0
N  N103  1  0.42209447  0.06412335  0.35348439  1  0  -0.294409  0  3.326681  0  0  -0.208076  0  3.59257  0  0  -0.227968  0  3.610133  0  0  -0.330991  -0.195011  0  3.580739  0
N  N104  1  0.42208931  0.06411359  0.14652232  1  0  -0.294376  0  3.32674  0  0  -0.207973  0  3.592484  0  0  -0.22787  0  3.610052  0  0  -0.330887  -0.19489  0  3.580632  0
N  N105  1  0.07790647  0.56411569  0.85347970  1  0  -0.294345  0  3.326862  0  0  -0.208029  0  3.592746  0  0  -0.227925  0  3.610316  0  0  -0.330935  -0.194979  0  3.580929  0
N  N106  1  0.92209750  0.43588267  0.35348198  1  0  -0.294449  0  3.326902  0  0  -0.208086  0  3.592717  0  0  -0.227972  0  3.610268  0  0  -0.33096  -0.195031  0  3.580892  0
N  N107  1  0.57791273  0.93588829  0.64651655  1  0  -0.294194  0  3.326797  0  0  -0.207801  0  3.592548  0  0  -0.227661  0  3.610079  0  0  -0.330823  -0.194745  0  3.580723  0
N  N108  1  0.07105834  0.96956585  0.00105804  1  0  -0.209886  0  3.069614  0  0  -0.176247  0  3.359048  0  0  -0.186821  0  3.3774  0  0  -0.21155  -0.169229  0  3.34665  0
N  N109  1  0.42893100  0.46956278  0.99893861  1  0  -0.209984  0  3.070082  0  0  -0.176342  0  3.359507  0  0  -0.186916  0  3.377858  0  0  -0.211549  -0.169336  0  3.34712  0
N  N110  1  0.57107085  0.53042877  0.49895337  1  0  -0.210002  0  3.070428  0  0  -0.176351  0  3.359854  0  0  -0.186923  0  3.378205  0  0  -0.211632  -0.169337  0  3.347457  0
N  N111  1  0.92892902  0.03042919  0.50104919  1  0  -0.209796  0  3.070358  0  0  -0.176147  0  3.359757  0  0  -0.186717  0  3.378109  0  0  -0.211545  -0.16914  0  3.347369  0
N  N112  1  0.92891528  0.03041337  0.99896017  1  0  -0.209912  0  3.071004  0  0  -0.176249  0  3.360373  0  0  -0.186821  0  3.378729  0  0  -0.211589  -0.169242  0  3.347979  0
N  N113  1  0.57107380  0.53041047  0.00103575  1  0  -0.210021  0  3.070841  0  0  -0.176304  0  3.360244  0  0  -0.18688  0  3.378603  0  0  -0.211646  -0.169291  0  3.347846  0
N  N114  1  0.42892915  0.46958286  0.50104890  1  0  -0.209866  0  3.070436  0  0  -0.176171  0  3.359834  0  0  -0.186745  0  3.378189  0  0  -0.211524  -0.169162  0  3.347443  0
N  N115  1  0.07107218  0.96958330  0.49895307  1  0  -0.209969  0  3.07031  0  0  -0.176307  0  3.359707  0  0  -0.186882  0  3.378059  0  0  -0.211541  -0.169294  0  3.347311  0
