# generated using pymatgen
data_MgH18(C7O3)2
_symmetry_space_group_name_H-M   'P 1'
_cell_length_a   7.93176332
_cell_length_b   8.13824685
_cell_length_c   12.11646762
_cell_angle_alpha   90.00011224
_cell_angle_beta   89.99928373
_cell_angle_gamma   106.52220211
_symmetry_Int_Tables_number   1
_chemical_formula_structural   MgH18(C7O3)2
_chemical_formula_sum   'Mg2 H36 C28 O12'
_cell_volume   749.83155145
_cell_formula_units_Z   2
loop_
 _symmetry_equiv_pos_site_id
 _symmetry_equiv_pos_as_xyz
  1  'x, y, z'
loop_
 _atom_site_type_symbol
 _atom_site_label
 _atom_site_symmetry_multiplicity
 _atom_site_fract_x
 _atom_site_fract_y
 _atom_site_fract_z
 _atom_site_occupancy
 _atom_site_hle17_bader_spin_density
 _atom_site_hle17_ddec_charge
 _atom_site_hle17_ddec_spin_density
 _atom_site_hle17_ddec_sum_bond_order
 _atom_site_hle17_magmom
 _atom_site_hse06_10hf_bader_spin_density
 _atom_site_hse06_10hf_ddec_charge
 _atom_site_hse06_10hf_ddec_spin_density
 _atom_site_hse06_10hf_ddec_sum_bond_order
 _atom_site_hse06_10hf_magmom
 _atom_site_hse06_bader_spin_density
 _atom_site_hse06_ddec_charge
 _atom_site_hse06_ddec_spin_density
 _atom_site_hse06_ddec_sum_bond_order
 _atom_site_hse06_magmom
 _atom_site_pbe_bader_spin_density
 _atom_site_pbe_cm5_charge
 _atom_site_pbe_ddec_charge
 _atom_site_pbe_ddec_spin_density
 _atom_site_pbe_ddec_sum_bond_order
 _atom_site_pbe_magmom
Mg  Mg0  1  0.99999779  0.49999841  0.50000001  1  0  1.464693  0  1.196719  0  0  1.349798  0  1.463171  0  0  1.377423  0  1.421836  0  0  0.836393  1.330465  0  1.492017  0
Mg  Mg1  1  0.99999792  0.99999549  0.99999836  1  0  1.464775  0  1.196609  0  0  1.349805  0  1.463115  0  0  1.37742  0  1.421779  0  0  0.836371  1.330491  0  1.491961  0
H  H2  1  0.41470526  0.15377324  0.36516174  1  0  0.118321  0  0.975978  0  0  0.138549  0  1.036218  0  0  0.139888  0  1.036808  0  0  0.091348  0.137515  0  1.035908  0
H  H3  1  0.58530338  0.34622550  0.86516745  1  0  0.118263  0  0.976155  0  0  0.138528  0  1.036364  0  0  0.139869  0  1.036947  0  0  0.091301  0.137493  0  1.036058  0
H  H4  1  0.58529493  0.84622994  0.63483662  1  0  0.118312  0  0.975953  0  0  0.138533  0  1.036206  0  0  0.139872  0  1.036794  0  0  0.091361  0.137501  0  1.035901  0
H  H5  1  0.41471003  0.65378406  0.13483751  1  0  0.118238  0  0.976084  0  0  0.138472  0  1.036328  0  0  0.13981  0  1.036917  0  0  0.091326  0.13744  0  1.036013  0
H  H6  1  0.51638887  0.36122325  0.42360011  1  0  0.147829  0  0.934144  0  0  0.164055  0  0.998036  0  0  0.167386  0  0.995757  0  0  0.103693  0.161676  0  0.99968  0
H  H7  1  0.48360412  0.13878179  0.92360474  1  0  0.147821  0  0.934203  0  0  0.164088  0  0.998046  0  0  0.167417  0  0.995768  0  0  0.103723  0.161709  0  0.999696  0
H  H8  1  0.48360161  0.63878124  0.57639908  1  0  0.147834  0  0.934207  0  0  0.164086  0  0.998065  0  0  0.167414  0  0.995783  0  0  0.103737  0.161709  0  0.999709  0
H  H9  1  0.51640361  0.86123420  0.07639941  1  0  0.147826  0  0.9342  0  0  0.164044  0  0.99811  0  0  0.167375  0  0.995827  0  0  0.103695  0.161666  0  0.999755  0
H  H10  1  0.40173724  0.19118606  0.50879032  1  0  0.135508  0  0.943265  0  0  0.158028  0  1.001071  0  0  0.159855  0  1.000812  0  0  0.102866  0.156674  0  1.001325  0
H  H11  1  0.59827387  0.30881101  0.00878990  1  0  0.135503  0  0.943296  0  0  0.158021  0  1.001111  0  0  0.159848  0  1.000851  0  0  0.102875  0.156676  0  1.001354  0
H  H12  1  0.59826685  0.80881326  0.49120887  1  0  0.135457  0  0.943216  0  0  0.157971  0  1.001054  0  0  0.1598  0  1.000792  0  0  0.102842  0.156624  0  1.001295  0
H  H13  1  0.40174080  0.69119855  0.99121094  1  0  0.135438  0  0.943212  0  0  0.157985  0  1.000998  0  0  0.159809  0  1.000743  0  0  0.102849  0.156632  0  1.001255  0
H  H14  1  0.81075385  0.92434513  0.30209767  1  0  0.141335  0  0.931827  0  0  0.162728  0  0.985177  0  0  0.165144  0  0.98445  0  0  0.102105  0.160986  0  0.985719  0
H  H15  1  0.18924090  0.57564924  0.80209970  1  0  0.141232  0  0.931853  0  0  0.162655  0  0.985182  0  0  0.16507  0  0.984456  0  0  0.102061  0.160921  0  0.985725  0
H  H16  1  0.18924683  0.07565549  0.69789821  1  0  0.141216  0  0.93192  0  0  0.162644  0  0.98524  0  0  0.16506  0  0.984511  0  0  0.102087  0.160893  0  0.985795  0
H  H17  1  0.81075879  0.42434368  0.19790197  1  0  0.141289  0  0.931836  0  0  0.162681  0  0.985196  0  0  0.165094  0  0.984469  0  0  0.102095  0.16094  0  0.985736  0
H  H18  1  0.75362989  0.08260249  0.22501467  1  0  0.148012  0  0.934614  0  0  0.164597  0  0.99884  0  0  0.167863  0  0.996354  0  0  0.106377  0.162284  0  1.000598  0
H  H19  1  0.24637054  0.41739791  0.72501584  1  0  0.147994  0  0.934627  0  0  0.164586  0  0.99885  0  0  0.167851  0  0.996365  0  0  0.106366  0.162275  0  1.000612  0
H  H20  1  0.24636538  0.91739686  0.77497875  1  0  0.148071  0  0.934514  0  0  0.164658  0  0.998747  0  0  0.167928  0  0.996258  0  0  0.106412  0.162346  0  1.000509  0
H  H21  1  0.75363191  0.58260014  0.27498335  1  0  0.148009  0  0.934673  0  0  0.164609  0  0.99887  0  0  0.167876  0  0.996383  0  0  0.106375  0.162297  0  1.000628  0
H  H22  1  0.65404569  0.02562226  0.35815698  1  0  0.113908  0  0.971241  0  0  0.133392  0  1.03498  0  0  0.134995  0  1.034511  0  0  0.090779  0.132158  0  1.035427  0
H  H23  1  0.34594847  0.47437397  0.85815740  1  0  0.113925  0  0.971295  0  0  0.133409  0  1.035031  0  0  0.135014  0  1.034561  0  0  0.090784  0.132181  0  1.035472  0
H  H24  1  0.34595046  0.97437580  0.64183808  1  0  0.113896  0  0.971218  0  0  0.133391  0  1.034963  0  0  0.134994  0  1.034495  0  0  0.090769  0.132162  0  1.035406  0
H  H25  1  0.65405084  0.52561767  0.14184344  1  0  0.113928  0  0.971253  0  0  0.133422  0  1.034983  0  0  0.135025  0  1.034514  0  0  0.090781  0.132187  0  1.035432  0
H  H26  1  0.41093921  0.35960977  0.23406015  1  0  0.114874  0  0.981996  0  0  0.136271  0  1.041997  0  0  0.137409  0  1.0426  0  0  0.091086  0.135392  0  1.041648  0
H  H27  1  0.58905512  0.14039190  0.73406226  1  0  0.114854  0  0.982044  0  0  0.136247  0  1.042063  0  0  0.137383  0  1.042665  0  0  0.091086  0.135366  0  1.041716  0
H  H28  1  0.58905379  0.64039471  0.76594234  1  0  0.114838  0  0.981984  0  0  0.136222  0  1.042017  0  0  0.137358  0  1.042617  0  0  0.091097  0.135341  0  1.041673  0
H  H29  1  0.41094582  0.85960102  0.26594271  1  0  0.11494  0  0.981999  0  0  0.136311  0  1.042021  0  0  0.13745  0  1.04262  0  0  0.091114  0.135429  0  1.041674  0
H  H30  1  0.40008716  0.16016862  0.16905762  1  0  0.131765  0  0.933506  0  0  0.154901  0  0.989364  0  0  0.156748  0  0.988991  0  0  0.101958  0.153558  0  0.98968  0
H  H31  1  0.59991789  0.33983960  0.66905990  1  0  0.131744  0  0.933531  0  0  0.154874  0  0.989415  0  0  0.156721  0  0.989043  0  0  0.101943  0.153534  0  0.989731  0
H  H32  1  0.59991276  0.83984225  0.83094322  1  0  0.131753  0  0.933608  0  0  0.154867  0  0.989495  0  0  0.156714  0  0.989123  0  0  0.101956  0.153528  0  0.989812  0
H  H33  1  0.40008167  0.66015717  0.33094176  1  0  0.131771  0  0.933601  0  0  0.154885  0  0.989472  0  0  0.156731  0  0.989101  0  0  0.101958  0.153545  0  0.989782  0
H  H34  1  0.31169373  0.30785815  0.10079479  1  0  0.145958  0  0.950748  0  0  0.162968  0  1.013816  0  0  0.166565  0  1.011388  0  0  0.105347  0.160372  0  1.015596  0
H  H35  1  0.68830700  0.19214384  0.60079615  1  0  0.145922  0  0.950833  0  0  0.162932  0  1.013911  0  0  0.166529  0  1.011483  0  0  0.105327  0.160337  0  1.015685  0
H  H36  1  0.68830506  0.69214888  0.89920770  1  0  0.145972  0  0.950801  0  0  0.162966  0  1.013877  0  0  0.166564  0  1.011448  0  0  0.105339  0.160371  0  1.015644  0
H  H37  1  0.31168979  0.80784781  0.39920469  1  0  0.145966  0  0.950854  0  0  0.16296  0  1.013916  0  0  0.166557  0  1.011488  0  0  0.105333  0.160361  0  1.015693  0
C  C38  1  0.40129409  0.24758874  0.42644210  1  0  -0.421935  0  3.661123  0  0  -0.502279  0  3.89546  0  0  -0.50817  0  3.899463  0  0  -0.245159  -0.49801  0  3.892606  0
C  C39  1  0.59870099  0.25241500  0.92644510  1  0  -0.421796  0  3.661323  0  0  -0.50222  0  3.895624  0  0  -0.508103  0  3.899628  0  0  -0.245148  -0.497959  0  3.892769  0
C  C40  1  0.59870207  0.75240932  0.57355874  1  0  -0.421821  0  3.661225  0  0  -0.502163  0  3.895547  0  0  -0.508038  0  3.899553  0  0  -0.245162  -0.497902  0  3.892687  0
C  C41  1  0.40130888  0.74759970  0.07356070  1  0  -0.421806  0  3.66105  0  0  -0.502182  0  3.895337  0  0  -0.508065  0  3.89934  0  0  -0.24522  -0.497918  0  3.892481  0
C  C42  1  0.23176107  0.29681015  0.41852138  1  0  0.529012  0  3.706852  0  0  0.513194  0  3.973856  0  0  0.539479  0  3.977892  0  0  0.150035  0.495558  0  3.970551  0
C  C43  1  0.76823493  0.20318336  0.91851549  1  0  0.528799  0  3.707028  0  0  0.512997  0  3.974005  0  0  0.539257  0  3.978091  0  0  0.149903  0.495375  0  3.970674  0
C  C44  1  0.76822841  0.70318665  0.58148524  1  0  0.528901  0  3.706934  0  0  0.513047  0  3.973977  0  0  0.539302  0  3.978072  0  0  0.149918  0.495416  0  3.970662  0
C  C45  1  0.23176550  0.79682496  0.08148205  1  0  0.528987  0  3.706959  0  0  0.51324  0  3.97386  0  0  0.539509  0  3.977928  0  0  0.150126  0.495613  0  3.970542  0
C  C46  1  0.09968579  0.21651457  0.33701049  1  0  -0.422435  0  3.66714  0  0  -0.415697  0  3.924135  0  0  -0.44483  0  3.948001  0  0  -0.073003  -0.396224  0  3.907596  0
C  C47  1  0.90031358  0.28347657  0.83701434  1  0  -0.422364  0  3.667292  0  0  -0.415595  0  3.924251  0  0  -0.444721  0  3.948121  0  0  -0.072931  -0.396116  0  3.907727  0
C  C48  1  0.90031377  0.78348220  0.66298705  1  0  -0.422486  0  3.667393  0  0  -0.415719  0  3.92439  0  0  -0.444849  0  3.948261  0  0  -0.072933  -0.39625  0  3.907853  0
C  C49  1  0.09968988  0.71651635  0.16298980  1  0  -0.422757  0  3.667366  0  0  -0.415978  0  3.924285  0  0  -0.445115  0  3.948143  0  0  -0.07305  -0.396494  0  3.907749  0
C  C50  1  0.91533915  0.18305244  0.36599162  1  0  0.556384  0  3.671364  0  0  0.537693  0  3.939173  0  0  0.565168  0  3.94109  0  0  0.156839  0.51918  0  3.93737  0
C  C51  1  0.08465133  0.31694891  0.86598657  1  0  0.556431  0  3.671222  0  0  0.537712  0  3.939063  0  0  0.565186  0  3.940981  0  0  0.156875  0.519199  0  3.93726  0
C  C52  1  0.08465171  0.81695333  0.63400839  1  0  0.556665  0  3.671203  0  0  0.537953  0  3.939034  0  0  0.56545  0  3.940909  0  0  0.156955  0.519439  0  3.937234  0
C  C53  1  0.91534898  0.68305043  0.13400767  1  0  0.55653  0  3.671264  0  0  0.537808  0  3.939112  0  0  0.565304  0  3.94099  0  0  0.156849  0.519296  0  3.93731  0
C  C54  1  0.77476200  0.04428623  0.30982310  1  0  -0.415114  0  3.665609  0  0  -0.49522  0  3.901191  0  0  -0.500794  0  3.903644  0  0  -0.244384  -0.491123  0  3.899371  0
C  C55  1  0.22523891  0.45571267  0.80982285  1  0  -0.414996  0  3.665646  0  0  -0.495118  0  3.901219  0  0  -0.50069  0  3.903671  0  0  -0.244333  -0.491032  0  3.899404  0
C  C56  1  0.22523365  0.95571439  0.69017031  1  0  -0.415081  0  3.665602  0  0  -0.495229  0  3.901178  0  0  -0.500812  0  3.903624  0  0  -0.244402  -0.49112  0  3.899372  0
C  C57  1  0.77476531  0.54428281  0.19017799  1  0  -0.415118  0  3.665599  0  0  -0.495211  0  3.901171  0  0  -0.500785  0  3.903612  0  0  -0.244379  -0.491123  0  3.899355  0
C  C58  1  0.14818813  0.17348658  0.22838207  1  0  0.534013  0  3.709629  0  0  0.517202  0  3.976505  0  0  0.542934  0  3.982324  0  0  0.146897  0.499932  0  3.972056  0
C  C59  1  0.85182130  0.32651892  0.72838473  1  0  0.534257  0  3.70936  0  0  0.517417  0  3.976271  0  0  0.543152  0  3.982083  0  0  0.147055  0.5001  0  3.971892  0
C  C60  1  0.85181130  0.82651404  0.77161217  1  0  0.534185  0  3.709485  0  0  0.517315  0  3.976371  0  0  0.543035  0  3.982194  0  0  0.146941  0.500058  0  3.971911  0
C  C61  1  0.14818367  0.67347912  0.27162189  1  0  0.534325  0  3.709525  0  0  0.517545  0  3.976354  0  0  0.543282  0  3.982163  0  0  0.147061  0.500241  0  3.971947  0
C  C62  1  0.32988368  0.25712839  0.18260070  1  0  -0.433677  0  3.675437  0  0  -0.515465  0  3.912723  0  0  -0.520833  0  3.916343  0  0  -0.246976  -0.511544  0  3.910152  0
C  C63  1  0.67011203  0.24287469  0.68260228  1  0  -0.433664  0  3.675394  0  0  -0.515462  0  3.912691  0  0  -0.520827  0  3.916309  0  0  -0.246996  -0.511523  0  3.910129  0
C  C64  1  0.67011549  0.74287993  0.81739931  1  0  -0.433638  0  3.675538  0  0  -0.515408  0  3.912843  0  0  -0.520775  0  3.916468  0  0  -0.246976  -0.511483  0  3.910261  0
C  C65  1  0.32988753  0.75712208  0.31739939  1  0  -0.433848  0  3.67551  0  0  -0.515558  0  3.912727  0  0  -0.520924  0  3.916342  0  0  -0.247026  -0.511627  0  3.910161  0
O  O66  1  0.20819410  0.39592765  0.49344602  1  0  -0.609517  0  2.002505  0  0  -0.558591  0  2.23148  0  0  -0.579611  0  2.223392  0  0  -0.319509  -0.544335  0  2.236754  0
O  O67  1  0.79179339  0.10405030  0.99343980  1  0  -0.609463  0  2.002438  0  0  -0.558543  0  2.231396  0  0  -0.57956  0  2.223332  0  0  -0.319431  -0.544284  0  2.236654  0
O  O68  1  0.79179338  0.60405376  0.50655812  1  0  -0.609483  0  2.002349  0  0  -0.558543  0  2.231296  0  0  -0.579555  0  2.223231  0  0  -0.319423  -0.544277  0  2.23655  0
O  O69  1  0.20821045  0.89594390  0.00656021  1  0  -0.609404  0  2.002574  0  0  -0.558559  0  2.231565  0  0  -0.579576  0  2.223491  0  0  -0.319496  -0.544308  0  2.236836  0
O  O70  1  0.86299426  0.26445677  0.44114251  1  0  -0.619926  0  2.008911  0  0  -0.562762  0  2.233348  0  0  -0.585481  0  2.22544  0  0  -0.322996  -0.547094  0  2.238384  0
O  O71  1  0.13700054  0.23553412  0.94114435  1  0  -0.620037  0  2.008669  0  0  -0.562883  0  2.23318  0  0  -0.585607  0  2.225278  0  0  -0.323031  -0.547199  0  2.238203  0
O  O72  1  0.13699761  0.73554387  0.55884761  1  0  -0.620077  0  2.008637  0  0  -0.562925  0  2.233117  0  0  -0.585654  0  2.225197  0  0  -0.323081  -0.547252  0  2.238153  0
O  O73  1  0.86300141  0.76445367  0.05885237  1  0  -0.620018  0  2.008776  0  0  -0.562848  0  2.233257  0  0  -0.585578  0  2.225341  0  0  -0.323045  -0.54718  0  2.23829  0
O  O74  1  0.03854010  0.08024378  0.16282705  1  0  -0.626688  0  2.080398  0  0  -0.568433  0  2.314822  0  0  -0.592389  0  2.31113  0  0  -0.315517  -0.552191  0  2.317047  0
O  O75  1  0.96145563  0.41975807  0.66282975  1  0  -0.626802  0  2.080551  0  0  -0.568555  0  2.315011  0  0  -0.592527  0  2.311331  0  0  -0.315585  -0.552274  0  2.317248  0
O  O76  1  0.96146210  0.91976197  0.83717049  1  0  -0.626946  0  2.080438  0  0  -0.568579  0  2.314836  0  0  -0.592507  0  2.31113  0  0  -0.315581  -0.552342  0  2.317058  0
O  O77  1  0.03854707  0.58024510  0.33716614  1  0  -0.626585  0  2.080476  0  0  -0.568538  0  2.315087  0  0  -0.592512  0  2.311409  0  0  -0.3156  -0.552259  0  2.317306  0
