# generated using pymatgen
data_CuH9C12SN3Cl2
_symmetry_space_group_name_H-M   'P 1'
_cell_length_a   7.00316590
_cell_length_b   8.61216442
_cell_length_c   11.93185560
_cell_angle_alpha   104.76067089
_cell_angle_beta   99.52806842
_cell_angle_gamma   111.03125249
_symmetry_Int_Tables_number   1
_chemical_formula_structural   CuH9C12SN3Cl2
_chemical_formula_sum   'Cu2 H18 C24 S2 N6 Cl4'
_cell_volume   622.65294378
_cell_formula_units_Z   2
loop_
 _symmetry_equiv_pos_site_id
 _symmetry_equiv_pos_as_xyz
  1  'x, y, z'
loop_
 _atom_site_type_symbol
 _atom_site_label
 _atom_site_symmetry_multiplicity
 _atom_site_fract_x
 _atom_site_fract_y
 _atom_site_fract_z
 _atom_site_occupancy
 _atom_site_hle17_ddec_charge
 _atom_site_hle17_ddec_spin_density
 _atom_site_hle17_ddec_sum_bond_order
 _atom_site_hle17_magmom
 _atom_site_hse06_10hf_ddec_charge
 _atom_site_hse06_10hf_ddec_spin_density
 _atom_site_hse06_10hf_ddec_sum_bond_order
 _atom_site_hse06_10hf_magmom
 _atom_site_hse06_ddec_charge
 _atom_site_hse06_ddec_spin_density
 _atom_site_hse06_ddec_sum_bond_order
 _atom_site_hse06_magmom
 _atom_site_pbe_cm5_charge
 _atom_site_pbe_ddec_charge
 _atom_site_pbe_ddec_spin_density
 _atom_site_pbe_ddec_sum_bond_order
 _atom_site_pbe_magmom
Cu  Cu0  1  0.35653479  0.83493385  0.83645228  1  0.637484  -0.530194  2.07496  -0.376  0.625354  -0.706617  2.499041  -0.537  0.726869  -0.818342  2.416467  -0.646  0.562225  0.56889  -0.609247  2.551456  -0.456
Cu  Cu1  1  0.01978805  0.99891725  0.16356394  1  0.635622  0.527921  2.075236  0.373  0.622906  0.704905  2.499499  0.535  0.724672  0.817478  2.416914  0.645  0.560962  0.566482  0.606991  2.552014  0.453
H  H2  1  0.10406130  0.52064035  0.59383468  1  0.083486  1.4e-05  0.943681  -0.001  0.091627  -0.000214  1.007497  -0.001  0.094801  -0.000182  1.004278  -0.001  0.111422  0.089025  -0.000212  1.010276  -0.001
H  H3  1  0.01144887  0.92715892  0.40612599  1  0.083291  -4.4e-05  0.944053  0.001  0.092022  0.000172  1.007298  0.001  0.095198  0.000152  1.004108  0.001  0.111301  0.08946  0.00017  1.009978  0.001
H  H4  1  0.90961941  0.19153777  0.53714409  1  0.104483  0.000127  0.973356  0.0  0.114984  0.000147  1.034146  0.0  0.118631  0.000113  1.03236  0.0  0.10117  0.112232  0.00015  1.035867  0.0
H  H5  1  0.87068044  0.65474925  0.46251929  1  0.104174  -0.000103  0.972774  0.0  0.115252  -0.000146  1.032746  0.0  0.118832  -0.000119  1.031173  0.0  0.101883  0.112583  -0.000144  1.034238  0.0
H  H6  1  0.91703890  0.05881441  0.70328984  1  0.095346  -0.000101  0.949285  0.0  0.10502  -0.000117  1.011349  0.0  0.108463  -8e-05  1.00799  0.0  0.102118  0.102464  -0.000131  1.01379  0.0
H  H7  1  0.71332360  0.35601751  0.29668119  1  0.094506  0.000114  0.949876  0.0  0.10444  0.000121  1.011581  0.0  0.107874  7.9e-05  1.008209  0.0  0.102379  0.101867  0.000141  1.014075  0.0
H  H8  1  0.12374149  0.25389222  0.91275314  1  0.11052  -0.000719  0.992934  -0.001  0.119103  -0.000835  1.057396  -0.001  0.123741  -0.000701  1.053688  -0.001  0.095387  0.115694  -0.00087  1.06026  -0.001
H  H9  1  0.71184202  0.34164400  0.08740365  1  0.110526  0.000705  0.991467  0.001  0.118787  0.000802  1.056449  0.001  0.123417  0.000674  1.052813  0.001  0.095239  0.115427  0.000837  1.059242  0.001
H  H10  1  0.30717897  0.43897503  0.07253779  1  0.29535  0.000148  0.931816  -0.001  0.278446  0.000366  0.996055  -0.001  0.286574  0.000309  0.989524  -0.001  0.287644  0.273364  0.000351  0.99971  -0.001
H  H11  1  0.73540575  0.36728159  0.92772044  1  0.296872  -0.000182  0.930128  0.001  0.279955  -0.000385  0.994556  0.001  0.288066  -0.000324  0.988066  0.001  0.287862  0.274862  -0.000371  0.998279  0.001
H  H12  1  0.26435934  0.47415264  0.26670492  1  0.114597  -0.000325  0.990704  0.0  0.118864  -0.000236  1.060197  0.0  0.122499  -0.000194  1.057997  0.0  0.089383  0.117003  -0.000239  1.061004  0.0
H  H13  1  0.49874355  0.20790005  0.73344519  1  0.114834  0.000332  0.99006  0.0  0.119036  0.000236  1.059655  0.0  0.122701  0.000193  1.057365  0.0  0.089587  0.117172  0.00024  1.060485  0.0
H  H14  1  0.33352818  0.67900138  0.47390999  1  0.092047  3.7e-05  0.962132  0.0  0.100508  8.2e-05  1.02853  0.0  0.103035  8.3e-05  1.027469  0.0  0.096177  0.099175  6.9e-05  1.028491  0.0
H  H15  1  0.36060099  0.20502229  0.52585275  1  0.091564  -0.00015  0.963487  0.0  0.099407  -0.000163  1.030313  0.0  0.101949  -0.000132  1.029282  0.0  0.095625  0.098062  -0.000181  1.030299  0.0
H  H16  1  0.50830151  0.00226060  0.52284932  1  0.095685  -0.000118  0.968819  0.0  0.104922  -9.4e-05  1.033444  0.0  0.10725  -6.5e-05  1.033427  0.0  0.096577  0.103654  -0.000105  1.03283  0.0
H  H17  1  0.48573973  0.47910640  0.47662897  1  0.096289  4.6e-05  0.968861  0.0  0.105567  7e-05  1.033249  0.0  0.107877  5.2e-05  1.033175  0.0  0.096634  0.104267  6.5e-05  1.032692  0.0
H  H18  1  0.61356717  0.12706190  0.36309841  1  0.096934  1e-05  0.958108  0.0  0.108185  1.6e-05  1.019598  0.0  0.110973  3.1e-05  1.018005  0.0  0.09931  0.106549  4e-06  1.02047  0.0
H  H19  1  0.74991302  0.76411366  0.63647423  1  0.09702  -6e-06  0.955266  0.0  0.107715  -2.9e-05  1.01781  0.0  0.110489  -4e-05  1.016239  0.0  0.098181  0.106056  -2.2e-05  1.018698  0.0
C  C20  1  0.10647126  0.45561456  0.66103969  1  0.150599  0.001577  3.682225  0.002  0.124578  0.000308  3.931228  0.001  0.134411  0.000968  3.947636  0.002  0.05652  0.118224  -0.000305  3.921579  0.0
C  C21  1  0.94625024  0.79494047  0.33893221  1  0.148633  -0.001486  3.683323  -0.002  0.122327  -0.00019  3.931864  -0.001  0.132105  -0.000859  3.948431  -0.001  0.056254  0.11606  0.000444  3.922075  0.0
C  C22  1  0.99643874  0.27288021  0.63104103  1  -0.099569  0.000208  3.690227  0.0  -0.109746  -0.000739  3.928766  -0.001  -0.114265  -0.000975  3.944785  -0.002  -0.072909  -0.107354  -0.000369  3.918873  -0.001
C  C23  1  0.86499128  0.64224774  0.36880472  1  -0.098451  -0.000457  3.689629  0.0  -0.10925  0.000647  3.928563  0.001  -0.113886  0.000906  3.944799  0.002  -0.073114  -0.106753  0.000261  3.91844  0.001
C  C24  1  0.00296722  0.20004594  0.72220073  1  0.020736  0.000773  3.682403  0.001  0.005229  0.00047  3.926901  0.001  0.010644  0.000702  3.938855  0.001  -0.059976  0.001431  0.000316  3.919399  0.0
C  C25  1  0.78086114  0.47831262  0.27780133  1  0.02236  -0.000863  3.681958  -0.001  0.006255  -0.00051  3.926941  -0.001  0.011697  -0.000704  3.938945  -0.001  -0.059981  0.00241  -0.000349  3.91945  0.0
C  C26  1  0.12020736  0.31041621  0.84076189  1  -0.105099  0.000365  3.656251  0.001  -0.128138  -0.000868  3.899222  -0.001  -0.130395  -0.000937  3.913413  -0.001  -0.078387  -0.12671  -0.000547  3.89047  0.0
C  C27  1  0.78030945  0.47016205  0.15936271  1  -0.104511  -0.000687  3.654177  -0.001  -0.127184  0.00058  3.896794  0.0  -0.129551  0.000744  3.911207  0.0  -0.077605  -0.125748  0.000198  3.887932  0.0
C  C28  1  0.22655849  0.49141170  0.86354562  1  0.124887  -0.000312  3.753541  0.0  0.128109  -0.001097  4.00245  -0.001  0.131715  -0.000868  4.022545  -0.001  0.110216  0.124721  -0.001146  3.990741  -0.001
C  C29  1  0.86386874  0.62837621  0.13658924  1  0.125289  5e-05  3.751753  0.0  0.128353  0.001073  3.999946  0.001  0.131768  0.0009  4.020322  0.001  0.109489  0.125191  0.001051  3.988013  0.001
C  C30  1  0.34946921  0.62376599  0.98489012  1  0.387088  0.006058  3.759969  0.006  0.343897  0.002961  4.03976  0.003  0.370402  0.003252  4.047934  0.004  0.241782  0.326894  0.002484  4.033266  0.002
C  C31  1  0.86502458  0.63955408  0.01519612  1  0.384989  -0.005717  3.762309  -0.005  0.342799  -0.002732  4.040565  -0.003  0.369413  -0.003119  4.048952  -0.004  0.242638  0.325733  -0.002166  4.033934  -0.002
C  C32  1  0.40854994  0.68698685  0.20086406  1  0.222603  0.00088  3.772226  0.001  0.2064  0.00076  4.024864  0.001  0.211125  -3e-05  4.049098  0.0  0.092971  0.204398  0.001075  4.006413  0.001
C  C33  1  0.70781546  0.48669308  0.79924482  1  0.221977  -0.000201  3.775274  0.0  0.20515  -0.000356  4.029157  0.0  0.209829  0.000222  4.053575  0.0  0.091245  0.20304  -0.00055  4.010699  0.0
C  C34  1  0.34460206  0.61724427  0.28900619  1  -0.159001  0.000136  3.708475  0.0  -0.177391  0.000462  3.964125  0.0  -0.182543  0.000687  3.987123  0.001  -0.098502  -0.173512  0.000238  3.946466  0.0
C  C35  1  0.55603902  0.32865488  0.71101878  1  -0.160871  -0.00051  3.707883  0.0  -0.178771  -0.000548  3.963512  0.0  -0.183863  -0.000685  3.986652  -0.001  -0.098657  -0.17499  -0.000421  3.945927  0.0
C  C36  1  0.38411663  0.73197523  0.40482783  1  -0.043565  0.000483  3.767622  0.0  -0.064792  0.000242  4.027144  0.0  -0.067193  -0.000259  4.0516  0.0  -0.091724  -0.061275  0.000604  4.007443  0.001
C  C37  1  0.47976255  0.32731199  0.59501154  1  -0.041108  -3.5e-05  3.766175  0.0  -0.061925  -8.6e-05  4.025595  0.0  -0.06447  0.000328  4.049963  0.0  -0.091164  -0.058518  -0.000403  4.006151  0.0
C  C38  1  0.48160936  0.91486462  0.43236950  1  -0.08299  0.001643  3.762387  0.002  -0.101932  0.000818  4.024799  0.001  -0.105976  0.000674  4.049939  0.001  -0.099161  -0.09807  0.000885  4.005033  0.001
C  C39  1  0.54933545  0.48259112  0.56737217  1  -0.083469  -0.000882  3.762289  -0.001  -0.102544  -0.000685  4.024905  -0.001  -0.106513  -0.000647  4.049901  -0.001  -0.098813  -0.098773  -0.000585  4.005331  -0.001
C  C40  1  0.53954382  0.98461487  0.34324345  1  -0.080286  -0.001726  3.764824  -0.002  -0.11006  -0.001202  4.031597  -0.001  -0.113087  -0.001279  4.054598  -0.001  -0.092784  -0.107332  -0.001071  4.014938  -0.001
C  C41  1  0.69590133  0.64167254  0.65660025  1  -0.080923  0.000863  3.761032  0.001  -0.11063  0.000904  4.02836  0.001  -0.113662  0.001072  4.051465  0.001  -0.091517  -0.107761  0.000672  4.011369  0.0
C  C42  1  0.50818418  0.87099639  0.22815232  1  -0.083195  0.001294  3.764291  0.001  -0.066151  -0.00086  4.033518  -0.001  -0.068587  -0.001092  4.060472  -0.001  -0.0208  -0.064992  -0.000419  4.014143  -0.001
C  C43  1  0.77982796  0.64339890  0.77186664  1  -0.081783  0.000511  3.765012  0.001  -0.064473  0.001462  4.034236  0.002  -0.067147  0.001332  4.061533  0.002  -0.02086  -0.063035  0.001409  4.014513  0.002
S  S44  1  0.60385357  0.95734063  0.11923334  1  0.252787  0.01385  2.761289  0.018  0.192179  0.006946  3.172866  0.012  0.177306  0.002543  3.178764  0.007  0.165297  0.208013  0.008082  3.168929  0.013
S  S45  1  0.98473477  0.83860341  0.88082351  1  0.252624  -0.01259  2.759363  -0.017  0.190862  -0.006142  3.170381  -0.012  0.17593  -0.002248  3.176562  -0.007  0.165131  0.206622  -0.006951  3.166156  -0.012
N  N46  1  0.21880078  0.56206413  0.77426799  1  -0.325179  -0.034875  3.348338  -0.043  -0.273929  -0.040437  3.63339  -0.052  -0.301619  -0.037587  3.655961  -0.051  -0.341106  -0.26049  -0.038276  3.623114  -0.048
N  N47  1  0.94565042  0.78821615  0.22577426  1  -0.324287  0.034791  3.348763  0.043  -0.27276  0.040551  3.633362  0.052  -0.300237  0.037639  3.655761  0.051  -0.341491  -0.259568  0.038551  3.62315  0.048
N  N48  1  0.43362657  0.78991332  0.99023873  1  -0.44797  -0.06074  3.220896  -0.075  -0.401737  -0.057302  3.559602  -0.074  -0.438287  -0.051508  3.576136  -0.069  -0.374383  -0.381342  -0.055666  3.550399  -0.07
N  N49  1  0.94357652  0.80031933  0.00983056  1  -0.446602  0.060168  3.221406  0.074  -0.399726  0.057534  3.558342  0.074  -0.436679  0.051793  3.575314  0.069  -0.373205  -0.379196  0.05567  3.54894  0.07
N  N50  1  0.36403997  0.57191931  0.08300219  1  -0.397855  0.00316  3.354234  0.004  -0.34232  0.003103  3.587926  0.004  -0.363976  0.002542  3.598257  0.003  -0.389853  -0.325783  0.002842  3.577963  0.003
N  N51  1  0.78164541  0.48967581  0.91718402  1  -0.396797  -0.001686  3.355542  -0.002  -0.342077  -0.002388  3.589715  -0.003  -0.363645  -0.002251  3.599785  -0.003  -0.388861  -0.325549  -0.001806  3.579746  -0.002
Cl  Cl52  1  0.21615614  0.87319827  0.66853625  1  -0.523171  -0.098041  0.99962  -0.11  -0.484097  -0.078294  1.280124  -0.091  -0.517005  -0.063351  1.258553  -0.076  -0.295203  -0.46972  -0.079389  1.297081  -0.09
Cl  Cl53  1  0.04822039  0.20469025  0.33184921  1  -0.522175  0.097444  1.000223  0.109  -0.483238  0.077953  1.281282  0.09  -0.516073  0.063294  1.259507  0.076  -0.293586  -0.468544  0.078669  1.298369  0.089
Cl  Cl54  1  0.66448300  0.08876872  0.90109844  1  -0.538067  -0.077145  1.077755  -0.088  -0.507734  -0.066519  1.379976  -0.08  -0.535976  -0.056433  1.355905  -0.071  -0.294369  -0.496046  -0.064636  1.398516  -0.075
Cl  Cl55  1  0.26413139  0.18793432  0.09942784  1  -0.538277  0.076186  1.077828  0.087  -0.507632  0.066102  1.380022  0.079  -0.535618  0.056248  1.356046  0.07  -0.294601  -0.495961  0.064111  1.398482  0.074
