# generated using pymatgen
data_NdP2H8C3NO7
_symmetry_space_group_name_H-M   'P 1'
_cell_length_a   8.17016653
_cell_length_b   10.03251478
_cell_length_c   10.41016423
_cell_angle_alpha   89.99990226
_cell_angle_beta   89.99988801
_cell_angle_gamma   95.99526814
_symmetry_Int_Tables_number   1
_chemical_formula_structural   NdP2H8C3NO7
_chemical_formula_sum   'Nd4 P8 H32 C12 N4 O28'
_cell_volume   848.62615992
_cell_formula_units_Z   4
loop_
 _symmetry_equiv_pos_site_id
 _symmetry_equiv_pos_as_xyz
  1  'x, y, z'
loop_
 _atom_site_type_symbol
 _atom_site_label
 _atom_site_symmetry_multiplicity
 _atom_site_fract_x
 _atom_site_fract_y
 _atom_site_fract_z
 _atom_site_occupancy
 _atom_site_pbe_bader_spin_density
 _atom_site_pbe_cm5_charge
 _atom_site_pbe_ddec_charge
 _atom_site_pbe_ddec_spin_density
 _atom_site_pbe_ddec_sum_bond_order
 _atom_site_pbe_magmom
Nd  Nd0  1  0.77250382  0.88944688  0.87019054  1  0  1.547353  2.182  0  2.150743  0
Nd  Nd1  1  0.22749550  0.61055342  0.37018946  1  0  1.547396  2.181947  0  2.150753  0
Nd  Nd2  1  0.22749589  0.11055119  0.12980461  1  0  1.547345  2.181975  0  2.150781  0
Nd  Nd3  1  0.77250176  0.38944463  0.62981050  1  0  1.547386  2.181923  0  2.150722  0
P  P4  1  0.93648742  0.21971467  0.89904834  1  0  0.333193  1.280761  0  5.50211  0
P  P5  1  0.06350986  0.28029464  0.39905299  1  0  0.333187  1.280824  0  5.502  0
P  P6  1  0.06351129  0.78028540  0.10095065  1  0  0.333176  1.280748  0  5.502143  0
P  P7  1  0.93648739  0.71970342  0.60094889  1  0  0.333148  1.280831  0  5.502038  0
P  P8  1  0.55752682  0.18378809  0.88650226  1  0  0.336849  1.260464  0  5.456163  0
P  P9  1  0.44247570  0.31621327  0.38650724  1  0  0.336739  1.260263  0  5.456545  0
P  P10  1  0.44247312  0.81621199  0.11349770  1  0  0.336854  1.260527  0  5.456171  0
P  P11  1  0.55752279  0.68378479  0.61349175  1  0  0.336736  1.260269  0  5.456442  0
H  H12  1  0.63673019  0.04125877  0.09214021  1  0  0.306069  0.345651  0  0.993476  0
H  H13  1  0.36326925  0.45874115  0.59214083  1  0  0.306063  0.34564  0  0.993475  0
H  H14  1  0.36326730  0.95874129  0.90785879  1  0  0.30606  0.345636  0  0.993499  0
H  H15  1  0.63673069  0.54125892  0.40786009  1  0  0.306059  0.345624  0  0.993493  0
H  H16  1  0.68686015  0.64351425  0.10397907  1  0  0.316746  0.319246  0  0.934072  0
H  H17  1  0.31314348  0.85648562  0.60397705  1  0  0.316744  0.319236  0  0.934061  0
H  H18  1  0.31314236  0.35648685  0.89602088  1  0  0.316744  0.319227  0  0.934092  0
H  H19  1  0.68685879  0.14351348  0.39602098  1  0  0.316761  0.319238  0  0.934095  0
H  H20  1  0.83502524  0.57508421  0.18570491  1  0  0.324546  0.329827  0  0.900235  0
H  H21  1  0.16497670  0.92491348  0.68570204  1  0  0.324555  0.329851  0  0.900212  0
H  H22  1  0.16497581  0.42491488  0.81429600  1  0  0.324553  0.329849  0  0.900195  0
H  H23  1  0.83502534  0.07508361  0.31429791  1  0  0.324542  0.329816  0  0.900258  0
H  H24  1  0.63163210  0.51992345  0.20967687  1  0  0.319503  0.314726  0  0.912873  0
H  H25  1  0.36836866  0.98007518  0.70967553  1  0  0.319515  0.31472  0  0.9129  0
H  H26  1  0.36836784  0.48007663  0.79032308  1  0  0.319498  0.314699  0  0.912891  0
H  H27  1  0.63163338  0.01992191  0.29032443  1  0  0.31951  0.314734  0  0.91284  0
H  H28  1  0.62877285  0.28818286  0.15370869  1  0  0.103744  0.114698  0  1.028342  0
H  H29  1  0.37122519  0.21181693  0.65370586  1  0  0.103751  0.114692  0  1.028373  0
H  H30  1  0.37122610  0.71181921  0.84629223  1  0  0.103745  0.114691  0  1.02836  0
H  H31  1  0.62878087  0.78818320  0.34629122  1  0  0.1038  0.114747  0  1.028382  0
H  H32  1  0.84852157  0.31276899  0.15313983  1  0  0.110165  0.127649  0  0.984915  0
H  H33  1  0.15147747  0.18722880  0.65313737  1  0  0.110174  0.127681  0  0.984923  0
H  H34  1  0.15147726  0.68723208  0.84686205  1  0  0.110171  0.127668  0  0.984881  0
H  H35  1  0.84852859  0.81277133  0.34686643  1  0  0.110173  0.127698  0  0.984877  0
H  H36  1  0.83970477  0.48693198  0.97991147  1  0  0.125419  0.103116  0  0.983618  0
H  H37  1  0.16029701  0.01306518  0.47990969  1  0  0.125422  0.103095  0  0.983613  0
H  H38  1  0.16029627  0.51306710  0.02008848  1  0  0.125411  0.103108  0  0.983528  0
H  H39  1  0.83970537  0.98693492  0.52009123  1  0  0.12541  0.103077  0  0.983649  0
H  H40  1  0.62243607  0.45709934  0.97577148  1  0  0.11701  0.079382  0  0.994039  0
H  H41  1  0.37756485  0.04290083  0.47577124  1  0  0.117004  0.079371  0  0.99404  0
H  H42  1  0.37756532  0.54290275  0.02422752  1  0  0.117026  0.07938  0  0.994045  0
H  H43  1  0.62243754  0.95709927  0.52422968  1  0  0.117009  0.079351  0  0.994059  0
C  C44  1  0.74162227  0.20210396  0.99215462  1  0  0.054807  -0.189987  0  3.872455  0
C  C45  1  0.25837738  0.29789616  0.49215414  1  0  0.054854  -0.189905  0  3.872453  0
C  C46  1  0.25837778  0.79789712  0.00784534  1  0  0.054791  -0.190003  0  3.87249  0
C  C47  1  0.74162133  0.70210390  0.50784581  1  0  0.054848  -0.189937  0  3.872524  0
C  C48  1  0.73778900  0.31329129  0.09307266  1  0  -0.160591  -0.208005  0  3.892157  0
C  C49  1  0.26221044  0.18670863  0.59307195  1  0  -0.160602  -0.208032  0  3.892136  0
C  C50  1  0.26221117  0.68671079  0.90692730  1  0  -0.160612  -0.208043  0  3.892157  0
C  C51  1  0.73779195  0.81329147  0.40692897  1  0  -0.160641  -0.208132  0  3.89227  0
C  C52  1  0.73082263  0.45311013  0.03725210  1  0  -0.047677  0.025207  0  3.781121  0
C  C53  1  0.26917797  0.04688791  0.53725065  1  0  -0.047698  0.025213  0  3.781077  0
C  C54  1  0.26917854  0.54688996  0.96274689  1  0  -0.047644  0.025285  0  3.780992  0
C  C55  1  0.73082431  0.95311118  0.46275027  1  0  -0.047687  0.02527  0  3.78115  0
N  N56  1  0.72010306  0.55333832  0.14217833  1  0  -0.600201  -0.422119  0  3.339187  0
N  N57  1  0.27989812  0.94666245  0.64217717  1  0  -0.600215  -0.422104  0  3.339213  0
N  N58  1  0.27989932  0.44666177  0.85782163  1  0  -0.60022  -0.422118  0  3.339192  0
N  N59  1  0.72010415  0.05333665  0.35782183  1  0  -0.600209  -0.422069  0  3.339166  0
O  O60  1  0.93353225  0.08778015  0.82411784  1  0  -0.481531  -0.870469  0  2.269611  0
O  O61  1  0.06646543  0.41222030  0.32412322  1  0  -0.481503  -0.87044  0  2.269713  0
O  O62  1  0.06646635  0.91221892  0.17588308  1  0  -0.481528  -0.870475  0  2.269586  0
O  O63  1  0.93352984  0.58778174  0.67588154  1  0  -0.481458  -0.870427  0  2.269783  0
O  O64  1  0.07207087  0.23768637  0.00120242  1  0  -0.488619  -0.848091  0  2.258164  0
O  O65  1  0.92793105  0.26231175  0.50120349  1  0  -0.488595  -0.848073  0  2.258199  0
O  O66  1  0.92792919  0.76231471  0.99879753  1  0  -0.488609  -0.848102  0  2.258223  0
O  O67  1  0.07206877  0.73768732  0.49879839  1  0  -0.488585  -0.84808  0  2.258215  0
O  O68  1  0.94360254  0.34217383  0.80979796  1  0  -0.453173  -0.840053  0  2.25056  0
O  O69  1  0.05640007  0.15782669  0.30979129  1  0  -0.453217  -0.840132  0  2.2503  0
O  O70  1  0.05639605  0.65782524  0.19020103  1  0  -0.453174  -0.840017  0  2.250477  0
O  O71  1  0.94360120  0.84217440  0.69020770  1  0  -0.453226  -0.840133  0  2.250225  0
O  O72  1  0.74837889  0.07272300  0.05544808  1  0  -0.39757  -0.555159  0  2.401842  0
O  O73  1  0.25161955  0.42727799  0.55544795  1  0  -0.397575  -0.55521  0  2.401845  0
O  O74  1  0.25161994  0.92727807  0.94455188  1  0  -0.397574  -0.55519  0  2.401905  0
O  O75  1  0.74837916  0.57272207  0.44455200  1  0  -0.397569  -0.555158  0  2.401836  0
O  O76  1  0.53714564  0.03422177  0.84387003  1  0  -0.42285  -0.846419  0  2.271725  0
O  O77  1  0.46285251  0.46577263  0.34386801  1  0  -0.422852  -0.846385  0  2.271846  0
O  O78  1  0.46285418  0.96577730  0.15613089  1  0  -0.422858  -0.846445  0  2.271734  0
O  O79  1  0.53714732  0.53422645  0.65613195  1  0  -0.422835  -0.846387  0  2.271844  0
O  O80  1  0.40964153  0.21776760  0.96681136  1  0  -0.455065  -0.841269  0  2.267479  0
O  O81  1  0.59036076  0.28223360  0.46680657  1  0  -0.454983  -0.841135  0  2.267666  0
O  O82  1  0.59035719  0.78223246  0.03318764  1  0  -0.455056  -0.84129  0  2.267461  0
O  O83  1  0.40963649  0.71776446  0.53319243  1  0  -0.455022  -0.841177  0  2.267653  0
O  O84  1  0.58695658  0.27940026  0.77288916  1  0  -0.48814  -0.861085  0  2.335123  0
O  O85  1  0.41303629  0.22058924  0.27288954  1  0  -0.488136  -0.861131  0  2.334998  0
O  O86  1  0.41303968  0.72059979  0.22710984  1  0  -0.488131  -0.861138  0  2.335167  0
O  O87  1  0.58696230  0.77940983  0.72710850  1  0  -0.488132  -0.861107  0  2.33494  0
