# generated using pymatgen
data_AlH3C27(Cl2O)6
_symmetry_space_group_name_H-M   'P 1'
_cell_length_a   4.24914253
_cell_length_b   16.29673762
_cell_length_c   16.29705457
_cell_angle_alpha   120.68894570
_cell_angle_beta   89.38558646
_cell_angle_gamma   89.38549901
_symmetry_Int_Tables_number   1
_chemical_formula_structural   AlH3C27(Cl2O)6
_chemical_formula_sum   'Al1 H3 C27 Cl12 O6'
_cell_volume   970.24774349
_cell_formula_units_Z   1
loop_
 _symmetry_equiv_pos_site_id
 _symmetry_equiv_pos_as_xyz
  1  'x, y, z'
loop_
 _atom_site_type_symbol
 _atom_site_label
 _atom_site_symmetry_multiplicity
 _atom_site_fract_x
 _atom_site_fract_y
 _atom_site_fract_z
 _atom_site_occupancy
 _atom_site_pbe_bader_charge
 _atom_site_pbe_bader_spin_density
 _atom_site_pbe_cm5_charge
 _atom_site_pbe_ddec_charge
 _atom_site_pbe_ddec_spin_density
 _atom_site_pbe_ddec_sum_bond_order
 _atom_site_pbe_magmom
Al  Al0  1  0.00005452  0.50063789  0.49926506  1  2.523385  0  0.447839  1.671149  0  2.466763  0
H  H1  1  0.50003068  0.91947821  0.08039096  1  0.078984  0  0.077164  0.08265  0  1.112246  0
H  H2  1  0.42428585  0.65747495  0.08019616  1  0.075291  0  0.080537  0.090165  0  1.080046  0
H  H3  1  0.57543773  0.91966542  0.34238820  1  0.077362  0  0.080473  0.089816  0  1.079794  0
C  C4  1  0.49203762  0.57311907  0.64425863  1  1.608016  0  0.273469  0.686594  0  4.080072  0
C  C5  1  0.50003343  0.57251931  0.42742254  1  1.586874  0  0.27576  0.694324  0  4.02837  0
C  C6  1  0.50812774  0.35564099  0.42678031  1  1.610417  0  0.273565  0.686694  0  4.079378  0
C  C7  1  0.47692033  0.78122484  0.06616813  1  0.015123  0  -0.01653  0.089294  0  3.925047  0
C  C8  1  0.49994082  0.88129800  0.11857235  1  -0.023179  0  -0.09561  -0.160231  0  3.929722  0
C  C9  1  0.52289798  0.93370634  0.21864441  1  0.014354  0  -0.016745  0.088914  0  3.925208  0
C  C10  1  0.53595257  0.88182469  0.26619452  1  0.05237  0  -0.092592  -0.157038  0  3.926155  0
C  C11  1  0.49977395  0.78208917  0.21779929  1  -0.034474  0  -0.018416  0.082376  0  3.931445  0
C  C12  1  0.46372613  0.73367561  0.11805251  1  0.053008  0  -0.093217  -0.158135  0  3.92567  0
C  C13  1  0.66285267  0.19503143  0.28470585  1  0.102523  0  0.006463  0.063961  0  4.05344  0
C  C14  1  0.68219530  0.09472948  0.23762035  1  0.108342  0  0.003312  0.030921  0  4.013367  0
C  C15  1  0.52564644  0.04137367  0.27218354  1  0.07352  0  -0.011302  -0.026886  0  3.916201  0
C  C16  1  0.36080160  0.09797193  0.36047576  1  0.093621  0  0.00376  0.032484  0  4.018678  0
C  C17  1  0.36890915  0.19838533  0.41224714  1  0.119141  0  0.006322  0.062941  0  4.055226  0
C  C18  1  0.51337002  0.24777821  0.37365929  1  0.153497  0  -0.019989  -0.129874  0  3.976397  0
C  C19  1  0.31792837  0.76227607  0.90514909  1  0.10967  0  0.00331  0.030946  0  4.013785  0
C  C20  1  0.33737162  0.71519786  0.80485560  1  0.100128  0  0.006631  0.063935  0  4.054429  0
C  C21  1  0.48682170  0.62623246  0.75211438  1  0.158176  0  -0.020023  -0.129699  0  3.976341  0
C  C22  1  0.63119172  0.58764638  0.80152670  1  0.115737  0  0.00576  0.062061  0  4.055607  0
C  C23  1  0.63920346  0.63941192  0.90193097  1  0.096324  0  0.00372  0.033042  0  4.018483  0
C  C24  1  0.47436560  0.72770878  0.95851855  1  0.069593  0  -0.011307  -0.027228  0  3.917061  0
C  C25  1  0.66623403  0.64138965  0.23804356  1  0.096836  0  0.003099  0.027676  0  4.018955  0
C  C26  1  0.65277257  0.58849580  0.28465054  1  0.077052  0  0.012583  0.076167  0  4.022589  0
C  C27  1  0.49997339  0.62579140  0.37416282  1  0.16644  0  -0.02116  -0.145462  0  3.91614  0
C  C28  1  0.34711064  0.71530031  0.41145936  1  0.075638  0  0.012396  0.075671  0  4.023071  0
C  C29  1  0.33345785  0.76188587  0.35854762  1  0.098292  0  0.003219  0.027766  0  4.018832  0
C  C30  1  0.49981418  0.72883379  0.27109138  1  0.089736  0  -0.008958  -0.01952  0  3.931767  0
Cl  Cl31  1  0.19959277  0.26306524  0.52431161  1  -0.164023  0  0.019466  -0.019183  0  1.655154  0
Cl  Cl32  1  0.82372479  0.25568062  0.23425003  1  -0.158154  0  0.018744  -0.021327  0  1.655837  0
Cl  Cl33  1  0.13185233  0.04825933  0.41022432  1  -0.184825  0  0.022575  -0.029031  0  1.865867  0
Cl  Cl34  1  0.91647053  0.04116030  0.13673654  1  -0.183878  0  0.025199  -0.024292  0  1.889611  0
Cl  Cl35  1  0.17644289  0.76562263  0.74418809  1  -0.158934  0  0.018467  -0.021527  0  1.656237  0
Cl  Cl36  1  0.08361027  0.86315044  0.95870552  1  -0.182447  0  0.025426  -0.024113  0  1.889711  0
Cl  Cl37  1  0.80047611  0.47556697  0.73686036  1  -0.164396  0  0.019816  -0.018812  0  1.654752  0
Cl  Cl38  1  0.86810860  0.58967277  0.95167267  1  -0.185361  0  0.022624  -0.029201  0  1.865247  0
Cl  Cl39  1  0.90268232  0.59489026  0.13802782  1  -0.178219  0  0.02549  -0.024545  0  1.892234  0
Cl  Cl40  1  0.82008419  0.47593153  0.22696306  1  -0.153632  0  0.012812  -0.025636  0  1.682761  0
Cl  Cl41  1  0.09698863  0.86189856  0.40505119  1  -0.17942  0  0.025422  -0.024545  0  1.89201  0
Cl  Cl42  1  0.17982077  0.77297899  0.52402876  1  -0.15352  0  0.012826  -0.025474  0  1.682612  0
O  O43  1  0.27116053  0.39524132  0.41367535  1  -1.247814  0  -0.232572  -0.596037  0  2.390478  0
O  O44  1  0.25911794  0.52048361  0.60360533  1  -1.25011  0  -0.232547  -0.600962  0  2.412585  0
O  O45  1  0.26078914  0.58362979  0.47964893  1  -1.249869  0  -0.236122  -0.606743  0  2.449957  0
O  O46  1  0.74105782  0.39629530  0.47942041  1  -1.249447  0  -0.232464  -0.601243  0  2.413089  0
O  O47  1  0.73927365  0.52026408  0.41626860  1  -1.250308  0  -0.236433  -0.606921  0  2.449016  0
O  O48  1  0.72901715  0.58622806  0.60465167  1  -1.247445  0  -0.232261  -0.595881  0  2.390718  0
