# generated using pymatgen
data_CuH4C4IN2
_symmetry_space_group_name_H-M   'P 1'
_cell_length_a   4.13767861
_cell_length_b   6.87177959
_cell_length_c   11.00499584
_cell_angle_alpha   89.99940243
_cell_angle_beta   99.72983617
_cell_angle_gamma   89.99996444
_symmetry_Int_Tables_number   1
_chemical_formula_structural   CuH4C4IN2
_chemical_formula_sum   'Cu2 H8 C8 I2 N4'
_cell_volume   308.40643113
_cell_formula_units_Z   2
loop_
 _symmetry_equiv_pos_site_id
 _symmetry_equiv_pos_as_xyz
  1  'x, y, z'
loop_
 _atom_site_type_symbol
 _atom_site_label
 _atom_site_symmetry_multiplicity
 _atom_site_fract_x
 _atom_site_fract_y
 _atom_site_fract_z
 _atom_site_occupancy
 _atom_site_hle17_bader_spin_density
 _atom_site_hle17_ddec_charge
 _atom_site_hle17_ddec_spin_density
 _atom_site_hle17_ddec_sum_bond_order
 _atom_site_hle17_magmom
 _atom_site_hse06_10hf_bader_spin_density
 _atom_site_hse06_10hf_ddec_charge
 _atom_site_hse06_10hf_ddec_spin_density
 _atom_site_hse06_10hf_ddec_sum_bond_order
 _atom_site_hse06_10hf_magmom
 _atom_site_hse06_bader_spin_density
 _atom_site_hse06_ddec_charge
 _atom_site_hse06_ddec_spin_density
 _atom_site_hse06_ddec_sum_bond_order
 _atom_site_hse06_magmom
 _atom_site_pbe_bader_spin_density
 _atom_site_pbe_cm5_charge
 _atom_site_pbe_ddec_charge
 _atom_site_pbe_ddec_spin_density
 _atom_site_pbe_ddec_sum_bond_order
 _atom_site_pbe_magmom
Cu  Cu0  1  0.50000642  0.20758013  0.25000149  1  0  0.347425  0  2.125795  0  0  0.246346  0  2.619182  0  0  0.240996  0  2.578802  0  0  0.376884  0.254569  0  2.642802  0
Cu  Cu1  1  0.49999648  0.79243167  0.74999660  1  0  0.347398  0  2.125792  0  0  0.246343  0  2.619192  0  0  0.241058  0  2.578822  0  0  0.376876  0.254576  0  2.642724  0
H  H2  1  0.76021820  0.60167966  0.32876958  1  0  0.083694  0  0.969769  0  0  0.090384  0  1.038163  0  0  0.093573  0  1.036546  0  0  0.101044  0.088005  0  1.040049  0
H  H3  1  0.23979551  0.60168399  0.17123274  1  0  0.083682  0  0.969774  0  0  0.090393  0  1.038114  0  0  0.09358  0  1.036502  0  0  0.101043  0.088012  0  1.040003  0
H  H4  1  0.23979480  0.39831322  0.67123729  1  0  0.083774  0  0.969496  0  0  0.09046  0  1.037865  0  0  0.093649  0  1.036249  0  0  0.101069  0.088076  0  1.039749  0
H  H5  1  0.76019256  0.39831471  0.82876085  1  0  0.083764  0  0.969557  0  0  0.090478  0  1.037883  0  0  0.093663  0  1.036272  0  0  0.101084  0.088109  0  1.039724  0
H  H6  1  0.25602936  0.17696303  0.49367923  1  0  0.087173  0  0.964353  0  0  0.090864  0  1.03642  0  0  0.095185  0  1.032805  0  0  0.101644  0.087338  0  1.039851  0
H  H7  1  0.74397133  0.17696127  0.00632233  1  0  0.087161  0  0.964277  0  0  0.090869  0  1.036362  0  0  0.095192  0  1.032734  0  0  0.101639  0.087346  0  1.039794  0
H  H8  1  0.74398342  0.82302548  0.50632127  1  0  0.08727  0  0.964559  0  0  0.090915  0  1.036674  0  0  0.095231  0  1.033068  0  0  0.10168  0.087391  0  1.040103  0
H  H9  1  0.25601438  0.82302870  0.99367385  1  0  0.087271  0  0.96453  0  0  0.09093  0  1.036616  0  0  0.095242  0  1.033007  0  0  0.101715  0.087407  0  1.040045  0
C  C10  1  0.64258164  0.55442344  0.40522490  1  0  0.063196  0  3.676312  0  0  0.035416  0  3.927247  0  0  0.038208  0  3.940533  0  0  0.03306  0.032458  0  3.919995  0
C  C11  1  0.35742972  0.55442612  0.09477485  1  0  0.063128  0  3.676249  0  0  0.035357  0  3.927168  0  0  0.038146  0  3.940455  0  0  0.033079  0.032403  0  3.91992  0
C  C12  1  0.35744309  0.44556798  0.59476721  1  0  0.062898  0  3.676534  0  0  0.03513  0  3.927546  0  0  0.037916  0  3.940835  0  0  0.032961  0.032182  0  3.920264  0
C  C13  1  0.64255149  0.44556967  0.90523287  1  0  0.062902  0  3.676566  0  0  0.035086  0  3.927603  0  0  0.037877  0  3.940897  0  0  0.032949  0.032151  0  3.920328  0
C  C14  1  0.36729860  0.32120365  0.49629100  1  0  0.07512  0  3.675897  0  0  0.048345  0  3.924588  0  0  0.052336  0  3.936056  0  0  0.037151  0.045654  0  3.917977  0
C  C15  1  0.63269667  0.32120778  0.00371204  1  0  0.075109  0  3.675873  0  0  0.04833  0  3.924507  0  0  0.052315  0  3.935985  0  0  0.037201  0.045633  0  3.91791  0
C  C16  1  0.63272656  0.67881397  0.50371386  1  0  0.074977  0  3.675614  0  0  0.048209  0  3.924377  0  0  0.052214  0  3.935803  0  0  0.037136  0.045511  0  3.91778  0
C  C17  1  0.36727436  0.67881420  0.99628418  1  0  0.074967  0  3.675522  0  0  0.048173  0  3.924318  0  0  0.052196  0  3.935731  0  0  0.037025  0.045477  0  3.917726  0
I  I18  1  0.00001115  0.97477012  0.25000767  1  0  -0.48787  0  1.526273  0  0  -0.433485  0  1.976668  0  0  -0.454755  0  1.944148  0  0  -0.215447  -0.417469  0  1.999309  0
I  I19  1  0.99999446  0.02524022  0.74999786  1  0  -0.487828  0  1.526293  0  0  -0.433442  0  1.976685  0  0  -0.454742  0  1.944178  0  0  -0.215456  -0.417484  0  1.999338  0
N  N20  1  0.50957628  0.37407576  0.39946300  1  0  -0.238909  0  3.347629  0  0  -0.17138  0  3.64071  0  0  -0.172371  0  3.642497  0  0  -0.3536  -0.171936  0  3.639663  0
N  N21  1  0.49042851  0.37407684  0.10053844  1  0  -0.238827  0  3.347601  0  0  -0.171312  0  3.64067  0  0  -0.172295  0  3.642449  0  0  -0.353622  -0.171877  0  3.639635  0
N  N22  1  0.49042929  0.62591566  0.60054162  1  0  -0.238771  0  3.34749  0  0  -0.171256  0  3.640556  0  0  -0.172251  0  3.642358  0  0  -0.353593  -0.171811  0  3.63947  0
N  N23  1  0.50956449  0.62591895  0.89945634  1  0  -0.238702  0  3.347332  0  0  -0.171154  0  3.64037  0  0  -0.172162  0  3.642186  0  0  -0.35352  -0.171722  0  3.639296  0
