# generated using pymatgen
data_Zn2H11C11S3NO6
_symmetry_space_group_name_H-M   'P 1'
_cell_length_a   6.74837225
_cell_length_b   11.58585768
_cell_length_c   19.96857074
_cell_angle_alpha   90.00006437
_cell_angle_beta   89.99994400
_cell_angle_gamma   89.85183136
_symmetry_Int_Tables_number   1
_chemical_formula_structural   Zn2H11C11S3NO6
_chemical_formula_sum   'Zn8 H44 C44 S12 N4 O24'
_cell_volume   1561.25107056
_cell_formula_units_Z   4
loop_
 _symmetry_equiv_pos_site_id
 _symmetry_equiv_pos_as_xyz
  1  'x, y, z'
loop_
 _atom_site_type_symbol
 _atom_site_label
 _atom_site_symmetry_multiplicity
 _atom_site_fract_x
 _atom_site_fract_y
 _atom_site_fract_z
 _atom_site_occupancy
 _atom_site_hle17_bader_spin_density
 _atom_site_hle17_ddec_charge
 _atom_site_hle17_ddec_spin_density
 _atom_site_hle17_ddec_sum_bond_order
 _atom_site_hle17_magmom
 _atom_site_hse06_10hf_bader_spin_density
 _atom_site_hse06_10hf_ddec_charge
 _atom_site_hse06_10hf_ddec_spin_density
 _atom_site_hse06_10hf_ddec_sum_bond_order
 _atom_site_hse06_10hf_magmom
 _atom_site_hse06_bader_spin_density
 _atom_site_hse06_ddec_charge
 _atom_site_hse06_ddec_spin_density
 _atom_site_hse06_ddec_sum_bond_order
 _atom_site_hse06_magmom
 _atom_site_pbe_bader_spin_density
 _atom_site_pbe_cm5_charge
 _atom_site_pbe_ddec_charge
 _atom_site_pbe_ddec_spin_density
 _atom_site_pbe_ddec_sum_bond_order
 _atom_site_pbe_magmom
Zn  Zn0  1  0.74502826  0.05142911  0.37810006  1  0  0.806305  0  2.047749  0  0  0.644049  0  2.495679  0  0  0.684951  0  2.455711  0  0  0.55659  0.615802  0  2.522825  0
Zn  Zn1  1  0.75497192  0.94857250  0.87810109  1  0  0.806254  0  2.04776  0  0  0.643984  0  2.495687  0  0  0.684892  0  2.45572  0  0  0.556562  0.615738  0  2.52283  0
Zn  Zn2  1  0.25497145  0.94857237  0.62190006  1  0  0.806271  0  2.047769  0  0  0.643987  0  2.4957  0  0  0.684894  0  2.455732  0  0  0.556561  0.615739  0  2.52284  0
Zn  Zn3  1  0.24502779  0.05142898  0.12190004  1  0  0.806295  0  2.047756  0  0  0.64404  0  2.495694  0  0  0.684941  0  2.455724  0  0  0.556576  0.61579  0  2.522837  0
Zn  Zn4  1  0.73957827  0.06613592  0.62313063  1  0  0.824635  0  1.998375  0  0  0.658818  0  2.469738  0  0  0.701847  0  2.423229  0  0  0.523647  0.628918  0  2.501667  0
Zn  Zn5  1  0.76042115  0.93386433  0.12313017  1  0  0.82469  0  1.998365  0  0  0.658862  0  2.469725  0  0  0.701896  0  2.423215  0  0  0.523666  0.628962  0  2.501657  0
Zn  Zn6  1  0.26042142  0.93386383  0.37687050  1  0  0.824653  0  1.998332  0  0  0.658848  0  2.469688  0  0  0.701885  0  2.423182  0  0  0.523658  0.628949  0  2.501621  0
Zn  Zn7  1  0.23957854  0.06613542  0.87686995  1  0  0.824647  0  1.998353  0  0  0.658842  0  2.46971  0  0  0.701873  0  2.423201  0  0  0.523652  0.628942  0  2.50164  0
H  H8  1  0.60141260  0.48569517  0.45315668  1  0  0.399624  0  0.894584  0  0  0.367219  0  0.975569  0  0  0.379955  0  0.958933  0  0  0.304316  0.358323  0  0.984807  0
H  H9  1  0.89859324  0.51430223  0.95315687  1  0  0.399621  0  0.894543  0  0  0.367235  0  0.975506  0  0  0.37997  0  0.958896  0  0  0.304341  0.35834  0  0.984743  0
H  H10  1  0.39859595  0.51430108  0.54684094  1  0  0.399585  0  0.894626  0  0  0.367196  0  0.975589  0  0  0.379932  0  0.95896  0  0  0.304315  0.3583  0  0.984827  0
H  H11  1  0.10140494  0.48569494  0.04684275  1  0  0.399558  0  0.894697  0  0  0.367184  0  0.975642  0  0  0.37992  0  0.958992  0  0  0.304279  0.358288  0  0.984881  0
H  H12  1  0.96478819  0.74587570  0.30742068  1  0  0.108558  0  0.969276  0  0  0.117872  0  1.040928  0  0  0.119876  0  1.040655  0  0  0.093356  0.116444  0  1.041168  0
H  H13  1  0.53521070  0.25412491  0.80742083  1  0  0.108596  0  0.969265  0  0  0.117909  0  1.040913  0  0  0.119914  0  1.040642  0  0  0.09337  0.116479  0  1.041154  0
H  H14  1  0.03520856  0.25412580  0.69258044  1  0  0.108595  0  0.969309  0  0  0.117914  0  1.040947  0  0  0.119916  0  1.040675  0  0  0.09337  0.116485  0  1.041189  0
H  H15  1  0.46478900  0.74587657  0.19257980  1  0  0.108559  0  0.969281  0  0  0.117868  0  1.040941  0  0  0.119872  0  1.040668  0  0  0.093355  0.11644  0  1.041181  0
H  H16  1  0.71721982  0.76426451  0.33688904  1  0  0.137051  0  0.911682  0  0  0.154546  0  0.965308  0  0  0.157407  0  0.963344  0  0  0.107249  0.152544  0  0.966736  0
H  H17  1  0.78277751  0.23573703  0.83689009  1  0  0.137039  0  0.911724  0  0  0.154536  0  0.965346  0  0  0.157398  0  0.963384  0  0  0.107248  0.152532  0  0.966775  0
H  H18  1  0.28277694  0.23573785  0.66311159  1  0  0.137068  0  0.911704  0  0  0.154569  0  0.965325  0  0  0.157429  0  0.963361  0  0  0.107249  0.152565  0  0.966753  0
H  H19  1  0.21722072  0.76426532  0.16311104  1  0  0.137047  0  0.911706  0  0  0.15454  0  0.965334  0  0  0.157401  0  0.96337  0  0  0.107245  0.152537  0  0.966762  0
H  H20  1  0.41211348  0.27004359  0.45153759  1  0  0.11517  0  0.923467  0  0  0.132525  0  0.978832  0  0  0.134544  0  0.978481  0  0  0.098719  0.131124  0  0.979149  0
H  H21  1  0.08788182  0.72995583  0.95153703  1  0  0.115157  0  0.923503  0  0  0.132494  0  0.978889  0  0  0.134512  0  0.978537  0  0  0.098703  0.131094  0  0.979205  0
H  H22  1  0.58788472  0.72995531  0.54846353  1  0  0.115174  0  0.92346  0  0  0.132517  0  0.978834  0  0  0.134535  0  0.978483  0  0  0.098712  0.131117  0  0.979151  0
H  H23  1  0.91211491  0.27004394  0.04846309  1  0  0.115177  0  0.923459  0  0  0.132515  0  0.97884  0  0  0.134533  0  0.978488  0  0  0.098704  0.131114  0  0.979157  0
H  H24  1  0.25870242  0.15802468  0.48165842  1  0  0.12245  0  0.958968  0  0  0.134662  0  1.02483  0  0  0.136676  0  1.024484  0  0  0.096494  0.133158  0  1.025275  0
H  H25  1  0.24129573  0.84197220  0.98165838  1  0  0.122481  0  0.95897  0  0  0.134682  0  1.024847  0  0  0.136694  0  1.024494  0  0  0.096503  0.133178  0  1.025294  0
H  H26  1  0.74129873  0.84197248  0.51834271  1  0  0.122473  0  0.958986  0  0  0.134676  0  1.024854  0  0  0.136688  0  1.024501  0  0  0.096502  0.133174  0  1.0253  0
H  H27  1  0.75870245  0.15802498  0.01834225  1  0  0.122477  0  0.958953  0  0  0.134687  0  1.024812  0  0  0.136702  0  1.024465  0  0  0.09651  0.133184  0  1.025258  0
H  H28  1  0.88234883  0.26354449  0.45369741  1  0  0.08704  0  0.947783  0  0  0.093183  0  1.014898  0  0  0.095972  0  1.012156  0  0  0.114857  0.091108  0  1.016923  0
H  H29  1  0.61764819  0.73645900  0.95369784  1  0  0.087054  0  0.947785  0  0  0.093213  0  1.014863  0  0  0.095995  0  1.012144  0  0  0.114869  0.091137  0  1.016891  0
H  H30  1  0.11764942  0.73645872  0.54630322  1  0  0.08706  0  0.947774  0  0  0.093228  0  1.01485  0  0  0.096013  0  1.01212  0  0  0.114892  0.091154  0  1.016877  0
H  H31  1  0.38234859  0.26354595  0.04630178  1  0  0.087036  0  0.947735  0  0  0.093215  0  1.014823  0  0  0.095986  0  1.012099  0  0  0.114859  0.091136  0  1.016858  0
H  H32  1  0.04138174  0.44856828  0.42858615  1  0  0.112992  0  0.972821  0  0  0.122942  0  1.032363  0  0  0.126454  0  1.031062  0  0  0.105826  0.12041  0  1.033505  0
H  H33  1  0.45861367  0.55143541  0.92858634  1  0  0.112961  0  0.972852  0  0  0.122994  0  1.032297  0  0  0.12651  0  1.030986  0  0  0.105849  0.120461  0  1.033444  0
H  H34  1  0.95861650  0.55143494  0.57141398  1  0  0.112972  0  0.972851  0  0  0.123003  0  1.032298  0  0  0.126518  0  1.030988  0  0  0.105858  0.12047  0  1.033445  0
H  H35  1  0.54138163  0.44856954  0.07141428  1  0  0.113021  0  0.972882  0  0  0.12299  0  1.032397  0  0  0.126503  0  1.031094  0  0  0.105849  0.120458  0  1.033539  0
H  H36  1  0.10007892  0.33250700  0.22251677  1  0  0.11762  0  0.942976  0  0  0.127638  0  1.001362  0  0  0.130992  0  1.000763  0  0  0.105998  0.125258  0  1.001948  0
H  H37  1  0.39992446  0.66749280  0.72251706  1  0  0.117727  0  0.94287  0  0  0.127714  0  1.001279  0  0  0.131069  0  1.000679  0  0  0.106027  0.125333  0  1.001865  0
H  H38  1  0.89992373  0.66749274  0.77748285  1  0  0.117709  0  0.942891  0  0  0.127691  0  1.001302  0  0  0.131046  0  1.000703  0  0  0.106016  0.12531  0  1.001889  0
H  H39  1  0.60007821  0.33250780  0.27748206  1  0  0.117621  0  0.943019  0  0  0.12765  0  1.001395  0  0  0.131004  0  1.000795  0  0  0.106  0.125271  0  1.001983  0
H  H40  1  0.93739807  0.15098218  0.25738737  1  0  0.092828  0  0.97519  0  0  0.099518  0  1.042381  0  0  0.102065  0  1.040048  0  0  0.11025  0.09759  0  1.044198  0
H  H41  1  0.56260688  0.84901744  0.75738689  1  0  0.092827  0  0.97517  0  0  0.099514  0  1.042364  0  0  0.102061  0  1.040032  0  0  0.110268  0.097585  0  1.044179  0
H  H42  1  0.06260754  0.84901754  0.74261426  1  0  0.092799  0  0.975199  0  0  0.099487  0  1.042397  0  0  0.102034  0  1.040068  0  0  0.110245  0.097558  0  1.044213  0
H  H43  1  0.43739728  0.15098401  0.24261173  1  0  0.092851  0  0.975222  0  0  0.099547  0  1.042394  0  0  0.102094  0  1.040066  0  0  0.110267  0.097619  0  1.044212  0
H  H44  1  0.31422393  0.69289386  0.35394889  1  0  0.173167  0  0.938765  0  0  0.182933  0  0.998077  0  0  0.187083  0  0.994934  0  0  0.122087  0.179889  0  1.000482  0
H  H45  1  0.18577903  0.30710274  0.85394601  1  0  0.173136  0  0.938764  0  0  0.182896  0  0.998105  0  0  0.187045  0  0.994958  0  0  0.122073  0.179853  0  1.00051  0
H  H46  1  0.68577870  0.30710415  0.64605173  1  0  0.17313  0  0.938807  0  0  0.182869  0  0.998175  0  0  0.187019  0  0.99503  0  0  0.122076  0.179826  0  1.000579  0
H  H47  1  0.81422065  0.69289615  0.14605010  1  0  0.173149  0  0.938798  0  0  0.182906  0  0.998119  0  0  0.187058  0  0.994974  0  0  0.122074  0.179861  0  1.000524  0
H  H48  1  0.09377861  0.63934808  0.39125604  1  0  0.138868  0  0.927153  0  0  0.149462  0  0.985399  0  0  0.151783  0  0.984449  0  0  0.109952  0.147818  0  0.986127  0
H  H49  1  0.40622575  0.36065031  0.89125462  1  0  0.138877  0  0.927132  0  0  0.149466  0  0.98538  0  0  0.151785  0  0.984432  0  0  0.109961  0.147822  0  0.98611  0
H  H50  1  0.90622847  0.36064990  0.60874509  1  0  0.138849  0  0.927175  0  0  0.149444  0  0.985434  0  0  0.151766  0  0.984484  0  0  0.109941  0.1478  0  0.986165  0
H  H51  1  0.59377542  0.63934944  0.10874300  1  0  0.138865  0  0.927176  0  0  0.149453  0  0.985428  0  0  0.151776  0  0.984476  0  0  0.109942  0.147809  0  0.986155  0
C  C52  1  0.80696262  0.88925008  0.26548335  1  0  0.714354  0  3.819202  0  0  0.661627  0  4.116937  0  0  0.695713  0  4.11104  0  0  0.2108  0.638483  0  4.120141  0
C  C53  1  0.69303788  0.11075131  0.76548435  1  0  0.714315  0  3.81918  0  0  0.661612  0  4.116879  0  0  0.695698  0  4.110983  0  0  0.210783  0.638468  0  4.12008  0
C  C54  1  0.19303710  0.11075226  0.73451677  1  0  0.714364  0  3.819159  0  0  0.661625  0  4.116921  0  0  0.695709  0  4.111023  0  0  0.210788  0.63848  0  4.120123  0
C  C55  1  0.30696331  0.88925016  0.23451677  1  0  0.714344  0  3.819174  0  0  0.661618  0  4.116907  0  0  0.695706  0  4.111008  0  0  0.210812  0.638473  0  4.120112  0
C  C56  1  0.85515930  0.80969084  0.32384003  1  0  -0.265443  0  3.667852  0  0  -0.304688  0  3.92624  0  0  -0.308143  0  3.932483  0  0  -0.165428  -0.302404  0  3.921933  0
C  C57  1  0.64484103  0.19031065  0.82384109  1  0  -0.265503  0  3.667881  0  0  -0.304746  0  3.926235  0  0  -0.308208  0  3.932486  0  0  -0.165442  -0.302458  0  3.921926  0
C  C58  1  0.14483893  0.19031151  0.67615960  1  0  -0.265545  0  3.667936  0  0  -0.304791  0  3.926323  0  0  -0.30824  0  3.932556  0  0  -0.165446  -0.302505  0  3.922015  0
C  C59  1  0.35515868  0.80969083  0.17616003  1  0  -0.265434  0  3.667834  0  0  -0.30468  0  3.926232  0  0  -0.308135  0  3.932474  0  0  -0.165418  -0.302399  0  3.921927  0
C  C60  1  0.56497871  0.13670888  0.50444316  1  0  0.694695  0  3.833265  0  0  0.644058  0  4.129913  0  0  0.677841  0  4.124511  0  0  0.202638  0.621154  0  4.132744  0
C  C61  1  0.93502103  0.86328942  0.00444361  1  0  0.694742  0  3.833088  0  0  0.644065  0  4.129783  0  0  0.67785  0  4.124376  0  0  0.20266  0.621166  0  4.132614  0
C  C62  1  0.43502243  0.86328827  0.49555646  1  0  0.694745  0  3.833064  0  0  0.644114  0  4.129704  0  0  0.6779  0  4.1243  0  0  0.202695  0.621214  0  4.132534  0
C  C63  1  0.06498013  0.13670947  0.99555702  1  0  0.694784  0  3.833317  0  0  0.64415  0  4.129956  0  0  0.677933  0  4.124551  0  0  0.202683  0.621246  0  4.132787  0
C  C64  1  0.40097152  0.17579362  0.45719846  1  0  -0.251611  0  3.662577  0  0  -0.287504  0  3.915712  0  0  -0.291247  0  3.923698  0  0  -0.163503  -0.285063  0  3.910317  0
C  C65  1  0.09902672  0.82420493  0.95719846  1  0  -0.251632  0  3.662625  0  0  -0.287483  0  3.915704  0  0  -0.291216  0  3.92369  0  0  -0.163503  -0.285052  0  3.910317  0
C  C66  1  0.59902816  0.82420527  0.54280216  1  0  -0.251661  0  3.662592  0  0  -0.287509  0  3.915661  0  0  -0.291244  0  3.92365  0  0  -0.163519  -0.285078  0  3.910275  0
C  C67  1  0.90097296  0.17579396  0.04280217  1  0  -0.251626  0  3.662535  0  0  -0.287506  0  3.915665  0  0  -0.291248  0  3.92365  0  0  -0.163492  -0.285065  0  3.910269  0
C  C68  1  0.93369572  0.28182118  0.40306935  1  0  0.14698  0  3.688387  0  0  0.115155  0  3.940455  0  0  0.124562  0  3.956124  0  0  0.044328  0.109054  0  3.929851  0
C  C69  1  0.56630142  0.71818048  0.90306928  1  0  0.146883  0  3.688426  0  0  0.115061  0  3.940494  0  0  0.124464  0  3.956164  0  0  0.044294  0.108956  0  3.929893  0
C  C70  1  0.06630400  0.71818116  0.59693128  1  0  0.14697  0  3.688318  0  0  0.115124  0  3.940388  0  0  0.124528  0  3.956058  0  0  0.044313  0.109017  0  3.929792  0
C  C71  1  0.43369386  0.28182274  0.09693034  1  0  0.147113  0  3.688383  0  0  0.115263  0  3.940439  0  0  0.124686  0  3.956113  0  0  0.044387  0.10916  0  3.929832  0
C  C72  1  0.02559141  0.38581998  0.38851516  1  0  -0.175627  0  3.717124  0  0  -0.191441  0  3.961996  0  0  -0.200193  0  3.981876  0  0  -0.098773  -0.185867  0  3.948769  0
C  C73  1  0.47440411  0.61418277  0.88851589  1  0  -0.175579  0  3.71713  0  0  -0.191479  0  3.962002  0  0  -0.200231  0  3.981879  0  0  -0.098807  -0.18592  0  3.948795  0
C  C74  1  0.97440534  0.61418238  0.61148446  1  0  -0.175564  0  3.717032  0  0  -0.191455  0  3.96189  0  0  -0.200207  0  3.981768  0  0  -0.09878  -0.185892  0  3.948676  0
C  C75  1  0.52559119  0.38582218  0.11148423  1  0  -0.175692  0  3.717181  0  0  -0.191517  0  3.962047  0  0  -0.200269  0  3.981921  0  0  -0.098796  -0.185947  0  3.948819  0
C  C76  1  0.09256787  0.40644247  0.32295813  1  0  0.075706  0  3.808054  0  0  0.088729  0  4.068289  0  0  0.096871  0  4.088561  0  0  0.005364  0.083317  0  4.054523  0
C  C77  1  0.40743226  0.59355840  0.82295838  1  0  0.075723  0  3.80797  0  0  0.088729  0  4.068237  0  0  0.096871  0  4.088509  0  0  0.005369  0.083329  0  4.054448  0
C  C78  1  0.90743183  0.59355901  0.67704199  1  0  0.075707  0  3.808041  0  0  0.088726  0  4.068279  0  0  0.096868  0  4.088552  0  0  0.005368  0.083326  0  4.054493  0
C  C79  1  0.59256746  0.40644394  0.17704125  1  0  0.075756  0  3.807985  0  0  0.088756  0  4.068251  0  0  0.096897  0  4.088524  0  0  0.00541  0.083352  0  4.054472  0
C  C80  1  0.05703878  0.32064814  0.27461164  1  0  -0.171248  0  3.739452  0  0  -0.189757  0  3.996327  0  0  -0.19875  0  4.016856  0  0  -0.092442  -0.184062  0  3.982764  0
C  C81  1  0.44296151  0.67935437  0.77461242  1  0  -0.171411  0  3.739368  0  0  -0.189911  0  3.996301  0  0  -0.198905  0  4.016828  0  0  -0.092498  -0.184219  0  3.982731  0
C  C82  1  0.94296093  0.67935420  0.72538799  1  0  -0.171385  0  3.739409  0  0  -0.189878  0  3.996329  0  0  -0.198872  0  4.016857  0  0  -0.092488  -0.184187  0  3.982759  0
C  C83  1  0.55703970  0.32064883  0.22538770  1  0  -0.171253  0  3.739414  0  0  -0.189768  0  3.996298  0  0  -0.19876  0  4.016826  0  0  -0.092457  -0.184077  0  3.982736  0
C  C84  1  0.96532304  0.21919468  0.29357676  1  0  0.139545  0  3.696688  0  0  0.103884  0  3.956383  0  0  0.112822  0  3.972606  0  0  0.043154  0.098099  0  3.945429  0
C  C85  1  0.53467737  0.78080590  0.79357724  1  0  0.139639  0  3.696594  0  0  0.10399  0  3.956229  0  0  0.112928  0  3.972452  0  0  0.043199  0.098205  0  3.94527  0
C  C86  1  0.03467667  0.78080680  0.70642337  1  0  0.139611  0  3.696604  0  0  0.10395  0  3.956239  0  0  0.112886  0  3.972466  0  0  0.043174  0.098166  0  3.945281  0
C  C87  1  0.46532678  0.21919470  0.20642238  1  0  0.139434  0  3.696787  0  0  0.103777  0  3.956474  0  0  0.112709  0  3.972707  0  0  0.043068  0.097991  0  3.945522  0
C  C88  1  0.23940431  0.61419315  0.37161163  1  0  -0.347419  0  3.653593  0  0  -0.377278  0  3.904602  0  0  -0.383826  0  3.910897  0  0  -0.151542  -0.372779  0  3.900247  0
C  C89  1  0.26059712  0.38580349  0.87161129  1  0  -0.34742  0  3.653733  0  0  -0.377216  0  3.904705  0  0  -0.383759  0  3.910997  0  0  -0.151497  -0.372718  0  3.900354  0
C  C90  1  0.76060128  0.38580398  0.62838799  1  0  -0.347369  0  3.653705  0  0  -0.377178  0  3.90472  0  0  -0.383729  0  3.911014  0  0  -0.15147  -0.372681  0  3.900368  0
C  C91  1  0.73940108  0.61419541  0.12838783  1  0  -0.347437  0  3.653682  0  0  -0.377237  0  3.904623  0  0  -0.383787  0  3.910916  0  0  -0.151525  -0.372736  0  3.900268  0
C  C92  1  0.35994515  0.56357280  0.42782644  1  0  0.738562  0  3.750137  0  0  0.686013  0  4.060842  0  0  0.71974  0  4.051562  0  0  0.244788  0.66304  0  4.066626  0
C  C93  1  0.14005456  0.43641706  0.92782366  1  0  0.738704  0  3.749965  0  0  0.686027  0  4.060891  0  0  0.719756  0  4.051609  0  0  0.244732  0.663055  0  4.066676  0
C  C94  1  0.64006483  0.43641913  0.57217218  1  0  0.738726  0  3.75018  0  0  0.686064  0  4.061097  0  0  0.719797  0  4.051808  0  0  0.244727  0.663092  0  4.066885  0
C  C95  1  0.85993765  0.56357669  0.07217196  1  0  0.738467  0  3.750285  0  0  0.685851  0  4.061111  0  0  0.71958  0  4.051829  0  0  0.244664  0.662878  0  4.066897  0
S  S96  1  0.93566322  0.88327159  0.39948341  1  0  -0.352976  0  2.31591  0  0  -0.290913  0  2.734238  0  0  -0.308081  0  2.714067  0  0  -0.183982  -0.279149  0  2.748142  0
S  S97  1  0.56433541  0.11673006  0.89948445  1  0  -0.352938  0  2.315878  0  0  -0.290874  0  2.734195  0  0  -0.308039  0  2.714034  0  0  -0.183976  -0.279114  0  2.748098  0
S  S98  1  0.06433500  0.11672903  0.60051672  1  0  -0.352913  0  2.315887  0  0  -0.29085  0  2.734227  0  0  -0.308018  0  2.71406  0  0  -0.183969  -0.279092  0  2.748133  0
S  S99  1  0.43566430  0.88327228  0.10051667  1  0  -0.352966  0  2.315895  0  0  -0.290902  0  2.734225  0  0  -0.308064  0  2.714048  0  0  -0.183982  -0.279139  0  2.748127  0
S  S100  1  0.40798073  0.11392051  0.37345033  1  0  -0.372168  0  2.315523  0  0  -0.312027  0  2.735898  0  0  -0.330703  0  2.720775  0  0  -0.192161  -0.299044  0  2.746215  0
S  S101  1  0.09201924  0.88607959  0.87345087  1  0  -0.372152  0  2.315516  0  0  -0.312018  0  2.735895  0  0  -0.330694  0  2.720764  0  0  -0.192179  -0.299034  0  2.74621  0
S  S102  1  0.59202045  0.88608010  0.62654979  1  0  -0.372173  0  2.315562  0  0  -0.312028  0  2.735916  0  0  -0.330704  0  2.720787  0  0  -0.192173  -0.299043  0  2.74623  0
S  S103  1  0.90798045  0.11392016  0.12655026  1  0  -0.372205  0  2.315548  0  0  -0.31206  0  2.735913  0  0  -0.330734  0  2.720787  0  0  -0.192188  -0.299078  0  2.746229  0
S  S104  1  0.21899086  0.52911248  0.29657269  1  0  0.084896  0  2.43493  0  0  0.074835  0  2.771722  0  0  0.070854  0  2.772515  0  0  0.050111  0.077906  0  2.771025  0
S  S105  1  0.28100492  0.47088923  0.79657339  1  0  0.084945  0  2.434862  0  0  0.074889  0  2.771642  0  0  0.070907  0  2.772436  0  0  0.05014  0.077955  0  2.77094  0
S  S106  1  0.78100589  0.47088901  0.70342643  1  0  0.084902  0  2.434934  0  0  0.074848  0  2.771721  0  0  0.070869  0  2.772514  0  0  0.050109  0.077914  0  2.771017  0
S  S107  1  0.71898889  0.52911487  0.20342723  1  0  0.084908  0  2.434932  0  0  0.074842  0  2.771715  0  0  0.070862  0  2.772507  0  0  0.050105  0.077909  0  2.771018  0
N  N108  1  0.90382138  0.19904894  0.35686271  1  0  -0.330028  0  3.324574  0  0  -0.246988  0  3.595912  0  0  -0.266793  0  3.612084  0  0  -0.341028  -0.233815  0  3.584838  0
N  N109  1  0.59617739  0.80095436  0.85686319  1  0  -0.330028  0  3.324534  0  0  -0.246965  0  3.59582  0  0  -0.266769  0  3.611994  0  0  -0.34104  -0.233792  0  3.584744  0
N  N110  1  0.09617834  0.80095341  0.64313741  1  0  -0.33006  0  3.324555  0  0  -0.246982  0  3.595842  0  0  -0.266786  0  3.612015  0  0  -0.341052  -0.23381  0  3.584767  0
N  N111  1  0.40382086  0.19904972  0.14313643  1  0  -0.330069  0  3.324728  0  0  -0.247038  0  3.596087  0  0  -0.266841  0  3.612252  0  0  -0.341044  -0.233863  0  3.585009  0
O  O112  1  0.82900486  0.84442254  0.20724682  1  0  -0.613903  0  2.066244  0  0  -0.529273  0  2.321944  0  0  -0.559016  0  2.310988  0  0  -0.318432  -0.508647  0  2.328817  0
O  O113  1  0.67099431  0.15557701  0.70724735  1  0  -0.613872  0  2.066215  0  0  -0.529233  0  2.321884  0  0  -0.558965  0  2.31092  0  0  -0.318424  -0.508611  0  2.328758  0
O  O114  1  0.17099483  0.15557721  0.79275381  1  0  -0.613881  0  2.066302  0  0  -0.52927  0  2.322044  0  0  -0.559006  0  2.311077  0  0  -0.318428  -0.508648  0  2.32892  0
O  O115  1  0.32900540  0.84442447  0.29275277  1  0  -0.613879  0  2.066276  0  0  -0.529244  0  2.321965  0  0  -0.558993  0  2.311012  0  0  -0.31841  -0.508616  0  2.328838  0
O  O116  1  0.74417984  0.99051212  0.27553720  1  0  -0.605636  0  2.045145  0  0  -0.532692  0  2.296213  0  0  -0.560591  0  2.287228  0  0  -0.304497  -0.513248  0  2.301722  0
O  O117  1  0.75582211  0.00948928  0.77553811  1  0  -0.60558  0  2.04514  0  0  -0.532663  0  2.296215  0  0  -0.560563  0  2.287231  0  0  -0.304484  -0.513218  0  2.301722  0
O  O118  1  0.25582135  0.00948935  0.72446293  1  0  -0.605649  0  2.045142  0  0  -0.532685  0  2.296202  0  0  -0.560585  0  2.287218  0  0  -0.304495  -0.51324  0  2.301708  0
O  O119  1  0.24418056  0.99051305  0.22446252  1  0  -0.605648  0  2.045094  0  0  -0.53271  0  2.296165  0  0  -0.560609  0  2.287178  0  0  -0.304537  -0.513264  0  2.301674  0
O  O120  1  0.71256530  0.07941872  0.48314065  1  0  -0.617082  0  2.071715  0  0  -0.539057  0  2.321411  0  0  -0.567764  0  2.31241  0  0  -0.31182  -0.519088  0  2.326942  0
O  O121  1  0.78743604  0.92058135  0.98314114  1  0  -0.617106  0  2.071624  0  0  -0.539071  0  2.321304  0  0  -0.567776  0  2.312305  0  0  -0.311822  -0.519103  0  2.326832  0
O  O122  1  0.28743587  0.92058102  0.51685948  1  0  -0.61712  0  2.071594  0  0  -0.53909  0  2.321264  0  0  -0.567798  0  2.312266  0  0  -0.311826  -0.51912  0  2.326791  0
O  O123  1  0.21256363  0.07941667  0.01685898  1  0  -0.617108  0  2.071689  0  0  -0.539086  0  2.321383  0  0  -0.567791  0  2.312378  0  0  -0.311816  -0.519116  0  2.326912  0
O  O124  1  0.54479969  0.16446259  0.56601994  1  0  -0.611916  0  2.031896  0  0  -0.541133  0  2.293157  0  0  -0.569823  0  2.283006  0  0  -0.321151  -0.521162  0  2.299457  0
O  O125  1  0.95519840  0.83553670  0.06602086  1  0  -0.611962  0  2.031879  0  0  -0.54113  0  2.293139  0  0  -0.56982  0  2.282979  0  0  -0.321163  -0.521151  0  2.29941  0
O  O126  1  0.45519850  0.83553631  0.43397968  1  0  -0.611891  0  2.031863  0  0  -0.541139  0  2.293166  0  0  -0.569817  0  2.282981  0  0  -0.32117  -0.521165  0  2.299452  0
O  O127  1  0.04479980  0.16446220  0.93398076  1  0  -0.611984  0  2.032033  0  0  -0.541193  0  2.293286  0  0  -0.569888  0  2.283145  0  0  -0.321191  -0.52122  0  2.299582  0
O  O128  1  0.53193706  0.51898151  0.41103401  1  0  -0.53417  0  2.067581  0  0  -0.486611  0  2.280758  0  0  -0.508809  0  2.264487  0  0  -0.322312  -0.471276  0  2.28978  0
O  O129  1  0.96806590  0.48101238  0.91103666  1  0  -0.534163  0  2.067659  0  0  -0.486606  0  2.280922  0  0  -0.508801  0  2.26467  0  0  -0.322294  -0.471268  0  2.28994  0
O  O130  1  0.46807295  0.48101388  0.58896261  1  0  -0.534173  0  2.067636  0  0  -0.486606  0  2.280884  0  0  -0.508804  0  2.264613  0  0  -0.322259  -0.471268  0  2.289904  0
O  O131  1  0.03193373  0.51898134  0.08896447  1  0  -0.534078  0  2.067636  0  0  -0.486535  0  2.28082  0  0  -0.508734  0  2.264539  0  0  -0.322248  -0.471201  0  2.289844  0
O  O132  1  0.29431949  0.56690665  0.48628131  1  0  -0.581825  0  1.98573  0  0  -0.530329  0  2.205269  0  0  -0.554312  0  2.195518  0  0  -0.283448  -0.513846  0  2.21111  0
O  O133  1  0.20568752  0.43308846  0.98628552  1  0  -0.581946  0  1.985226  0  0  -0.530412  0  2.204846  0  0  -0.554393  0  2.195077  0  0  -0.283465  -0.513931  0  2.210695  0
O  O134  1  0.70568906  0.43309047  0.51371481  1  0  -0.581979  0  1.985713  0  0  -0.530422  0  2.205325  0  0  -0.554402  0  2.195558  0  0  -0.283486  -0.513942  0  2.211172  0
O  O135  1  0.79431961  0.56691384  0.01371961  1  0  -0.581804  0  1.985825  0  0  -0.530256  0  2.205375  0  0  -0.554238  0  2.195631  0  0  -0.28338  -0.513773  0  2.211216  0
