# generated using pymatgen
data_KH3C2(N3O)2
_symmetry_space_group_name_H-M   'P 1'
_cell_length_a   3.68953730
_cell_length_b   8.72290845
_cell_length_c   19.88716144
_cell_angle_alpha   90.00014621
_cell_angle_beta   95.56579560
_cell_angle_gamma   89.99976549
_symmetry_Int_Tables_number   1
_chemical_formula_structural   KH3C2(N3O)2
_chemical_formula_sum   'K4 H12 C8 N24 O8'
_cell_volume   637.02090759
_cell_formula_units_Z   4
loop_
 _symmetry_equiv_pos_site_id
 _symmetry_equiv_pos_as_xyz
  1  'x, y, z'
loop_
 _atom_site_type_symbol
 _atom_site_label
 _atom_site_symmetry_multiplicity
 _atom_site_fract_x
 _atom_site_fract_y
 _atom_site_fract_z
 _atom_site_occupancy
 _atom_site_hle17_bader_spin_density
 _atom_site_hle17_ddec_charge
 _atom_site_hle17_ddec_spin_density
 _atom_site_hle17_ddec_sum_bond_order
 _atom_site_hle17_magmom
 _atom_site_hse06_10hf_bader_spin_density
 _atom_site_hse06_10hf_ddec_charge
 _atom_site_hse06_10hf_ddec_spin_density
 _atom_site_hse06_10hf_ddec_sum_bond_order
 _atom_site_hse06_10hf_magmom
 _atom_site_hse06_bader_spin_density
 _atom_site_hse06_ddec_charge
 _atom_site_hse06_ddec_spin_density
 _atom_site_hse06_ddec_sum_bond_order
 _atom_site_hse06_magmom
 _atom_site_pbe_bader_spin_density
 _atom_site_pbe_cm5_charge
 _atom_site_pbe_ddec_charge
 _atom_site_pbe_ddec_spin_density
 _atom_site_pbe_ddec_sum_bond_order
 _atom_site_pbe_magmom
K  K0  1  0.10494939  0.16247404  0.27477071  1  0  0.883237  0  0.517143  0  0  0.807411  0  0.734536  0  0  0.824033  0  0.711745  0  0  0.879121  0.7953  0  0.750525  0
K  K1  1  0.89504671  0.66247846  0.22522833  1  0  0.883216  0  0.51717  0  0  0.807387  0  0.734567  0  0  0.824011  0  0.711777  0  0  0.879123  0.795299  0  0.750512  0
K  K2  1  0.89504784  0.83752360  0.72522881  1  0  0.883238  0  0.517162  0  0  0.807403  0  0.734557  0  0  0.824028  0  0.711769  0  0  0.879139  0.795306  0  0.750516  0
K  K3  1  0.10494235  0.33752491  0.77477105  1  0  0.883227  0  0.517174  0  0  0.807391  0  0.734578  0  0  0.824016  0  0.711788  0  0  0.879123  0.795298  0  0.750534  0
H  H4  1  0.04819018  0.85639473  0.51924303  1  0  0.11761  0  0.95801  0  0  0.126452  0  1.040774  0  0  0.128212  0  1.038757  0  0  0.114513  0.125173  0  1.043102  0
H  H5  1  0.95181346  0.35639464  0.98075707  1  0  0.117599  0  0.958076  0  0  0.126422  0  1.040822  0  0  0.128181  0  1.038807  0  0  0.114497  0.125144  0  1.043146  0
H  H6  1  0.95180436  0.14360521  0.48075745  1  0  0.117607  0  0.95805  0  0  0.126453  0  1.04079  0  0  0.128211  0  1.038774  0  0  0.114507  0.125174  0  1.04311  0
H  H7  1  0.04819465  0.64360530  0.01924213  1  0  0.1176  0  0.958063  0  0  0.126437  0  1.04081  0  0  0.128196  0  1.038795  0  0  0.114515  0.125159  0  1.043129  0
H  H8  1  0.66788476  0.74958815  0.54304371  1  0  0.122012  0  0.955731  0  0  0.138424  0  1.023497  0  0  0.139089  0  1.023507  0  0  0.114207  0.137927  0  1.02442  0
H  H9  1  0.33211444  0.24958898  0.95695670  1  0  0.122088  0  0.95574  0  0  0.138428  0  1.023543  0  0  0.139094  0  1.023554  0  0  0.114219  0.137934  0  1.02446  0
H  H10  1  0.33211253  0.25041179  0.45695732  1  0  0.121985  0  0.955549  0  0  0.138371  0  1.023364  0  0  0.139037  0  1.023372  0  0  0.114177  0.137876  0  1.024278  0
H  H11  1  0.66788825  0.75041096  0.04304291  1  0  0.122025  0  0.955628  0  0  0.138412  0  1.023421  0  0  0.139076  0  1.023432  0  0  0.1142  0.137918  0  1.024331  0
H  H12  1  0.01895592  0.65314943  0.50405400  1  0  0.1224  0  0.949603  0  0  0.135214  0  1.024047  0  0  0.137575  0  1.021267  0  0  0.112189  0.133484  0  1.027005  0
H  H13  1  0.98104690  0.15315052  0.99594687  1  0  0.122376  0  0.949589  0  0  0.135148  0  1.02404  0  0  0.137529  0  1.021234  0  0  0.112171  0.13342  0  1.026998  0
H  H14  1  0.98104138  0.34684936  0.49594753  1  0  0.122386  0  0.94957  0  0  0.13521  0  1.023999  0  0  0.137569  0  1.021217  0  0  0.112191  0.13348  0  1.026952  0
H  H15  1  0.01895850  0.84684942  0.00405279  1  0  0.122409  0  0.949579  0  0  0.135197  0  1.02405  0  0  0.137572  0  1.021252  0  0  0.112191  0.133468  0  1.027004  0
C  C16  1  0.57362494  0.68633365  0.38873887  1  0  0.401888  0  3.824291  0  0  0.359627  0  4.119507  0  0  0.37808  0  4.13032  0  0  0.327862  0.338137  0  4.112636  0
C  C17  1  0.42637914  0.18633574  0.11126134  1  0  0.401906  0  3.824304  0  0  0.359583  0  4.119603  0  0  0.378044  0  4.130406  0  0  0.327842  0.338103  0  4.112719  0
C  C18  1  0.42636419  0.31366514  0.61126252  1  0  0.401949  0  3.824215  0  0  0.359549  0  4.119538  0  0  0.378009  0  4.130344  0  0  0.327865  0.338119  0  4.112641  0
C  C19  1  0.57363171  0.81366649  0.88873841  1  0  0.40191  0  3.824233  0  0  0.359517  0  4.119569  0  0  0.377977  0  4.130373  0  0  0.327835  0.338085  0  4.112673  0
C  C20  1  0.86566783  0.76011876  0.50552842  1  0  -0.18966  0  3.605177  0  0  -0.29928  0  3.862737  0  0  -0.294782  0  3.867973  0  0  -0.129506  -0.311773  0  3.854567  0
C  C21  1  0.13433670  0.26012359  0.99447159  1  0  -0.189708  0  3.605244  0  0  -0.299163  0  3.862758  0  0  -0.294681  0  3.867966  0  0  -0.12946  -0.311664  0  3.854612  0
C  C22  1  0.13432403  0.23988003  0.49447302  1  0  -0.189632  0  3.605031  0  0  -0.299256  0  3.862554  0  0  -0.294753  0  3.867785  0  0  -0.129462  -0.311715  0  3.854432  0
C  C23  1  0.86567141  0.73987864  0.00552761  1  0  -0.189664  0  3.60513  0  0  -0.299261  0  3.862658  0  0  -0.294772  0  3.867876  0  0  -0.129468  -0.311722  0  3.854537  0
N  N24  1  0.56027943  0.43704055  0.35175580  1  0  0.619168  0  4.066415  0  0  0.674125  0  4.321453  0  0  0.698257  0  4.331345  0  0  0.073502  0.658147  0  4.313945  0
N  N25  1  0.43971685  0.93704073  0.14824305  1  0  0.619079  0  4.066501  0  0  0.674014  0  4.321572  0  0  0.698146  0  4.33147  0  0  0.073427  0.658037  0  4.314063  0
N  N26  1  0.43971239  0.56295939  0.64824463  1  0  0.619242  0  4.066252  0  0  0.674142  0  4.321364  0  0  0.698275  0  4.331258  0  0  0.07355  0.658163  0  4.313862  0
N  N27  1  0.56028309  0.06295807  0.85175601  1  0  0.619234  0  4.066329  0  0  0.674123  0  4.321466  0  0  0.698255  0  4.331356  0  0  0.073515  0.658141  0  4.313965  0
N  N28  1  0.41200743  0.91520002  0.35742761  1  0  -0.107877  0  3.054971  0  0  -0.099697  0  3.3777  0  0  -0.098559  0  3.386383  0  0  -0.152158  -0.10061  0  3.37534  0
N  N29  1  0.58800003  0.41520087  0.14257391  1  0  -0.107899  0  3.054798  0  0  -0.099715  0  3.377525  0  0  -0.098577  0  3.386209  0  0  -0.152168  -0.100628  0  3.375161  0
N  N30  1  0.58799801  0.08479992  0.64257305  1  0  -0.107908  0  3.054865  0  0  -0.099735  0  3.377602  0  0  -0.098597  0  3.386285  0  0  -0.152157  -0.100648  0  3.375229  0
N  N31  1  0.41200541  0.58480021  0.85742675  1  0  -0.107906  0  3.054899  0  0  -0.099731  0  3.377636  0  0  -0.098591  0  3.386321  0  0  -0.152148  -0.100641  0  3.375261  0
N  N32  1  0.57288414  0.92994285  0.41835418  1  0  -0.085632  0  2.885025  0  0  -0.088552  0  3.17259  0  0  -0.08622  0  3.183152  0  0  -0.066594  -0.099175  0  3.160276  0
N  N33  1  0.42712041  0.42994477  0.08164581  1  0  -0.085589  0  2.884807  0  0  -0.08851  0  3.172375  0  0  -0.08618  0  3.182938  0  0  -0.066597  -0.099134  0  3.160064  0
N  N34  1  0.42711855  0.07005594  0.58164593  1  0  -0.085593  0  2.884876  0  0  -0.088549  0  3.172396  0  0  -0.086218  0  3.182958  0  0  -0.066592  -0.099132  0  3.160108  0
N  N35  1  0.57288498  0.57005746  0.91835335  1  0  -0.085573  0  2.884916  0  0  -0.088519  0  3.172416  0  0  -0.08619  0  3.182979  0  0  -0.066566  -0.099104  0  3.16013  0
N  N36  1  0.40491336  0.76663599  0.33676344  1  0  -0.419308  0  3.012541  0  0  -0.400574  0  3.319863  0  0  -0.412798  0  3.330099  0  0  -0.321421  -0.393088  0  3.316805  0
N  N37  1  0.59509272  0.26663580  0.16323740  1  0  -0.419339  0  3.012529  0  0  -0.400576  0  3.31984  0  0  -0.412803  0  3.330074  0  0  -0.321427  -0.393086  0  3.316776  0
N  N38  1  0.59508663  0.23336395  0.66323713  1  0  -0.419293  0  3.012491  0  0  -0.400521  0  3.319836  0  0  -0.412747  0  3.330072  0  0  -0.32141  -0.393039  0  3.316759  0
N  N39  1  0.40491270  0.73336414  0.83676276  1  0  -0.419292  0  3.012483  0  0  -0.400521  0  3.319815  0  0  -0.412746  0  3.330051  0  0  -0.321418  -0.393034  0  3.316734  0
N  N40  1  0.66389931  0.53607638  0.39954400  1  0  -0.38934  0  2.84188  0  0  -0.401054  0  3.124001  0  0  -0.414176  0  3.128498  0  0  -0.22326  -0.392489  0  3.12407  0
N  N41  1  0.33610615  0.03607627  0.10045607  1  0  -0.38932  0  2.841982  0  0  -0.40099  0  3.124113  0  0  -0.414116  0  3.128613  0  0  -0.223229  -0.392428  0  3.124181  0
N  N42  1  0.33608982  0.46392356  0.60045740  1  0  -0.389409  0  2.841828  0  0  -0.40108  0  3.124012  0  0  -0.414205  0  3.128508  0  0  -0.223319  -0.392521  0  3.124064  0
N  N43  1  0.66390466  0.96392367  0.89954267  1  0  -0.389369  0  2.841892  0  0  -0.40105  0  3.12409  0  0  -0.414174  0  3.128587  0  0  -0.223259  -0.392489  0  3.124145  0
N  N44  1  0.67793783  0.78844414  0.43901831  1  0  0.008736  0  3.491417  0  0  0.100139  0  3.714897  0  0  0.085407  0  3.740516  0  0  -0.118515  0.138471  0  3.661634  0
N  N45  1  0.32207079  0.28844383  0.06098310  1  0  0.008738  0  3.491383  0  0  0.100123  0  3.714857  0  0  0.085389  0  3.740478  0  0  -0.118495  0.138454  0  3.661594  0
N  N46  1  0.32205673  0.21155694  0.56098267  1  0  0.008683  0  3.491329  0  0  0.100248  0  3.714677  0  0  0.085515  0  3.740292  0  0  -0.118534  0.138447  0  3.661546  0
N  N47  1  0.67794006  0.71155725  0.93901665  1  0  0.008666  0  3.491378  0  0  0.100227  0  3.714718  0  0  0.085494  0  3.740335  0  0  -0.118555  0.13843  0  3.661586  0
O  O48  1  0.65539606  0.29823817  0.36257533  1  0  -0.516779  0  1.768326  0  0  -0.500003  0  1.985913  0  0  -0.516091  0  1.980971  0  0  -0.286142  -0.488533  0  1.988848  0
O  O49  1  0.34459602  0.79823845  0.13742229  1  0  -0.516745  0  1.768353  0  0  -0.499955  0  1.985934  0  0  -0.516042  0  1.980993  0  0  -0.2861  -0.488491  0  1.988872  0
O  O50  1  0.34459576  0.70176062  0.63742510  1  0  -0.516792  0  1.768351  0  0  -0.49999  0  1.985963  0  0  -0.516076  0  1.981021  0  0  -0.286129  -0.488523  0  1.988898  0
O  O51  1  0.65539843  0.20176149  0.86257517  1  0  -0.516813  0  1.768329  0  0  -0.500005  0  1.985942  0  0  -0.516094  0  1.980999  0  0  -0.286139  -0.488536  0  1.988877  0
O  O52  1  0.37257783  0.47174228  0.29646567  1  0  -0.566432  0  1.812007  0  0  -0.552225  0  2.037599  0  0  -0.568025  0  2.032876  0  0  -0.323799  -0.540977  0  2.040373  0
O  O53  1  0.62741274  0.97173787  0.20353463  1  0  -0.5664  0  1.811925  0  0  -0.552196  0  2.037542  0  0  -0.56799  0  2.032804  0  0  -0.323792  -0.540942  0  2.040313  0
O  O54  1  0.62741943  0.52825766  0.70353435  1  0  -0.566463  0  1.811908  0  0  -0.552238  0  2.037523  0  0  -0.56804  0  2.032804  0  0  -0.323829  -0.540992  0  2.0403  0
O  O55  1  0.37257634  0.02825749  0.79646525  1  0  -0.566475  0  1.811946  0  0  -0.552233  0  2.037543  0  0  -0.568034  0  2.032822  0  0  -0.323831  -0.540981  0  2.040318  0
