# generated using pymatgen
data_LiH9C5BrNO2
_symmetry_space_group_name_H-M   'P 1'
_cell_length_a   5.00880760
_cell_length_b   9.64423294
_cell_length_c   15.45018261
_cell_angle_alpha   90.00020412
_cell_angle_beta   90.00084105
_cell_angle_gamma   90.00015690
_symmetry_Int_Tables_number   1
_chemical_formula_structural   LiH9C5BrNO2
_chemical_formula_sum   'Li4 H36 C20 Br4 N4 O8'
_cell_volume   746.33817706
_cell_formula_units_Z   4
loop_
 _symmetry_equiv_pos_site_id
 _symmetry_equiv_pos_as_xyz
  1  'x, y, z'
loop_
 _atom_site_type_symbol
 _atom_site_label
 _atom_site_symmetry_multiplicity
 _atom_site_fract_x
 _atom_site_fract_y
 _atom_site_fract_z
 _atom_site_occupancy
 _atom_site_hle17_bader_spin_density
 _atom_site_hle17_ddec_charge
 _atom_site_hle17_ddec_spin_density
 _atom_site_hle17_ddec_sum_bond_order
 _atom_site_hle17_magmom
 _atom_site_hse06_10hf_bader_spin_density
 _atom_site_hse06_10hf_ddec_charge
 _atom_site_hse06_10hf_ddec_spin_density
 _atom_site_hse06_10hf_ddec_sum_bond_order
 _atom_site_hse06_10hf_magmom
 _atom_site_hse06_bader_spin_density
 _atom_site_hse06_ddec_charge
 _atom_site_hse06_ddec_spin_density
 _atom_site_hse06_ddec_sum_bond_order
 _atom_site_hse06_magmom
 _atom_site_pbe_bader_spin_density
 _atom_site_pbe_cm5_charge
 _atom_site_pbe_ddec_charge
 _atom_site_pbe_ddec_spin_density
 _atom_site_pbe_ddec_sum_bond_order
 _atom_site_pbe_magmom
Li  Li0  1  0.97918136  0.24696903  0.06135785  1  0  0.848561  0  0.396341  0  0  0.798511  0  0.515906  0  0  0.809535  0  0.4974  0  0  0.433012  0.790403  0  0.529472  0
Li  Li1  1  0.47918011  0.25301331  0.93865051  1  0  0.848534  0  0.396349  0  0  0.798474  0  0.515945  0  0  0.809496  0  0.497444  0  0  0.432987  0.790356  0  0.529523  0
Li  Li2  1  0.52081781  0.75304680  0.56135463  1  0  0.848553  0  0.396324  0  0  0.798511  0  0.515881  0  0  0.809533  0  0.497378  0  0  0.433007  0.790399  0  0.529452  0
Li  Li3  1  0.02083572  0.74698866  0.43864809  1  0  0.848505  0  0.396383  0  0  0.798408  0  0.516038  0  0  0.809432  0  0.497534  0  0  0.433012  0.790284  0  0.529625  0
H  H4  1  0.65236982  0.51114590  0.23348283  1  0  0.285702  0  0.88517  0  0  0.26562  0  0.952246  0  0  0.273955  0  0.945623  0  0  0.295059  0.2596  0  0.95724  0
H  H5  1  0.15233833  0.98884719  0.76651598  1  0  0.285679  0  0.885303  0  0  0.265641  0  0.9523  0  0  0.273974  0  0.94568  0  0  0.295109  0.259626  0  0.957287  0
H  H6  1  0.84764715  0.48885644  0.73348318  1  0  0.285715  0  0.885197  0  0  0.265645  0  0.952266  0  0  0.273979  0  0.945641  0  0  0.295078  0.259626  0  0.95726  0
H  H7  1  0.34763973  0.01115376  0.26651549  1  0  0.285737  0  0.885238  0  0  0.265628  0  0.952315  0  0  0.273962  0  0.945692  0  0  0.295067  0.259609  0  0.957309  0
H  H8  1  0.13670260  0.45660403  0.17210687  1  0  0.084227  0  0.956772  0  0  0.086636  0  1.029504  0  0  0.090125  0  1.026526  0  0  0.116203  0.083871  0  1.032044  0
H  H9  1  0.63669744  0.04338105  0.82789468  1  0  0.084369  0  0.956778  0  0  0.086705  0  1.029557  0  0  0.090198  0  1.026572  0  0  0.116216  0.083941  0  1.032097  0
H  H10  1  0.36328714  0.54338910  0.67209965  1  0  0.084282  0  0.95687  0  0  0.086731  0  1.029565  0  0  0.090222  0  1.026583  0  0  0.11624  0.083967  0  1.032106  0
H  H11  1  0.86329188  0.95662184  0.32789563  1  0  0.084393  0  0.956779  0  0  0.086737  0  1.029494  0  0  0.090227  0  1.026509  0  0  0.116237  0.083973  0  1.032036  0
H  H12  1  0.35330377  0.55350693  0.27741822  1  0  0.277954  0  0.91213  0  0  0.258519  0  0.977485  0  0  0.267206  0  0.971324  0  0  0.274988  0.252417  0  0.981695  0
H  H13  1  0.85329245  0.94648223  0.72258738  1  0  0.278025  0  0.912157  0  0  0.258591  0  0.977503  0  0  0.267276  0  0.971346  0  0  0.275056  0.252492  0  0.981713  0
H  H14  1  0.14670274  0.44648994  0.77741429  1  0  0.278004  0  0.912179  0  0  0.258594  0  0.977498  0  0  0.267279  0  0.97134  0  0  0.275011  0.252494  0  0.981709  0
H  H15  1  0.64670007  0.05350967  0.22258407  1  0  0.278  0  0.912132  0  0  0.258545  0  0.977484  0  0  0.267231  0  0.971325  0  0  0.275003  0.252444  0  0.981693  0
H  H16  1  0.72406614  0.74106259  0.22734092  1  0  0.07632  0  0.932508  0  0  0.086041  0  1.003147  0  0  0.087549  0  1.00223  0  0  0.10575  0.084703  0  1.004212  0
H  H17  1  0.22404940  0.75893472  0.77265953  1  0  0.076455  0  0.93248  0  0  0.086121  0  1.003166  0  0  0.087627  0  1.002244  0  0  0.105825  0.084786  0  1.004229  0
H  H18  1  0.77594456  0.25894282  0.72734109  1  0  0.076332  0  0.932674  0  0  0.086074  0  1.003299  0  0  0.087579  0  1.002382  0  0  0.105782  0.084739  0  1.004361  0
H  H19  1  0.27594691  0.24106938  0.27265400  1  0  0.076473  0  0.932416  0  0  0.086097  0  1.003134  0  0  0.087601  0  1.002213  0  0  0.105814  0.084762  0  1.004194  0
H  H20  1  0.37126782  0.77363422  0.23232065  1  0  0.074936  0  0.940779  0  0  0.086714  0  1.008077  0  0  0.087974  0  1.007763  0  0  0.106123  0.08567  0  1.008644  0
H  H21  1  0.87127908  0.72635289  0.76767985  1  0  0.074968  0  0.940895  0  0  0.086756  0  1.008173  0  0  0.088012  0  1.007858  0  0  0.106123  0.085712  0  1.008744  0
H  H22  1  0.12872866  0.22636550  0.73232069  1  0  0.074959  0  0.940622  0  0  0.086767  0  1.007935  0  0  0.088024  0  1.00762  0  0  0.106144  0.085725  0  1.008501  0
H  H23  1  0.62872947  0.27364135  0.26767499  1  0  0.074933  0  0.940866  0  0  0.086731  0  1.008111  0  0  0.087986  0  1.007795  0  0  0.106127  0.085687  0  1.008677  0
H  H24  1  0.68813969  0.68750264  0.07098341  1  0  0.076964  0  0.947957  0  0  0.097374  0  1.003593  0  0  0.098078  0  1.004568  0  0  0.094555  0.096927  0  1.002787  0
H  H25  1  0.18816036  0.81249360  0.92901881  1  0  0.076849  0  0.947788  0  0  0.097261  0  1.003487  0  0  0.097958  0  1.004461  0  0  0.094515  0.09682  0  1.002679  0
H  H26  1  0.81182398  0.31249769  0.57098192  1  0  0.076908  0  0.947802  0  0  0.097321  0  1.003484  0  0  0.098018  0  1.004459  0  0  0.094557  0.096879  0  1.002675  0
H  H27  1  0.31183907  0.18750521  0.42901464  1  0  0.076878  0  0.947791  0  0  0.097306  0  1.00346  0  0  0.098006  0  1.004436  0  0  0.094545  0.096865  0  1.00265  0
H  H28  1  0.45827132  0.82715700  0.08246961  1  0  0.090535  0  0.950874  0  0  0.103404  0  1.01761  0  0  0.104962  0  1.01741  0  0  0.093612  0.10219  0  1.017859  0
H  H29  1  0.95826309  0.67281672  0.91753066  1  0  0.090407  0  0.950845  0  0  0.103364  0  1.017532  0  0  0.10492  0  1.017331  0  0  0.093584  0.10215  0  1.017792  0
H  H30  1  0.04172632  0.17283664  0.58247042  1  0  0.090439  0  0.950919  0  0  0.103354  0  1.017621  0  0  0.10491  0  1.017429  0  0  0.093588  0.102147  0  1.01786  0
H  H31  1  0.54173031  0.32717841  0.41752939  1  0  0.090464  0  0.950928  0  0  0.103421  0  1.017577  0  0  0.104976  0  1.017378  0  0  0.093625  0.102207  0  1.017832  0
H  H32  1  0.27273386  0.58313937  0.01668457  1  0  0.096515  0  0.957345  0  0  0.108818  0  1.022482  0  0  0.110751  0  1.022026  0  0  0.099525  0.107354  0  1.022955  0
H  H33  1  0.77274018  0.91684659  0.98331546  1  0  0.096598  0  0.957215  0  0  0.108899  0  1.022368  0  0  0.110829  0  1.021914  0  0  0.099559  0.107436  0  1.022839  0
H  H34  1  0.22723684  0.41686010  0.51668420  1  0  0.096601  0  0.957383  0  0  0.108841  0  1.022596  0  0  0.110773  0  1.022137  0  0  0.099571  0.107382  0  1.023058  0
H  H35  1  0.72726419  0.08315204  0.48330872  1  0  0.096632  0  0.957266  0  0  0.108928  0  1.022408  0  0  0.110857  0  1.021952  0  0  0.099574  0.107461  0  1.022878  0
H  H36  1  0.08399846  0.66955696  0.09834150  1  0  0.081163  0  0.947499  0  0  0.097301  0  1.007701  0  0  0.09858  0  1.007972  0  0  0.093343  0.096282  0  1.007771  0
H  H37  1  0.58399852  0.83042569  0.90166346  1  0  0.081027  0  0.947581  0  0  0.097216  0  1.007767  0  0  0.098491  0  1.008039  0  0  0.093285  0.096197  0  1.007834  0
H  H38  1  0.41599192  0.33043989  0.59833343  1  0  0.080987  0  0.947496  0  0  0.097203  0  1.007662  0  0  0.098481  0  1.007931  0  0  0.093258  0.096185  0  1.007732  0
H  H39  1  0.91600414  0.16957038  0.40165909  1  0  0.081065  0  0.947519  0  0  0.097265  0  1.007696  0  0  0.098538  0  1.007971  0  0  0.093344  0.096247  0  1.007759  0
C  C40  1  0.48490345  0.38332395  0.10384176  1  0  0.698133  0  3.87628  0  0  0.650642  0  4.180775  0  0  0.682789  0  4.172164  0  0  0.232764  0.628719  0  4.186081  0
C  C41  1  0.98487391  0.11665528  0.89616339  1  0  0.698058  0  3.876408  0  0  0.650557  0  4.180879  0  0  0.682689  0  4.172297  0  0  0.232606  0.628633  0  4.186186  0
C  C42  1  0.01511514  0.61666774  0.60383239  1  0  0.697969  0  3.876979  0  0  0.650554  0  4.181387  0  0  0.682702  0  4.172774  0  0  0.23261  0.62863  0  4.186698  0
C  C43  1  0.51512650  0.88333972  0.39616512  1  0  0.698017  0  3.876666  0  0  0.650494  0  4.181073  0  0  0.6826  0  4.172547  0  0  0.23263  0.628576  0  4.186373  0
C  C44  1  0.32468105  0.49900868  0.14711542  1  0  -0.001516  0  3.495086  0  0  -0.023022  0  3.73513  0  0  -0.024106  0  3.745452  0  0  0.009842  -0.022272  0  3.728187  0
C  C45  1  0.82467474  0.00098491  0.85288120  1  0  -0.001803  0  3.495312  0  0  -0.023124  0  3.735179  0  0  -0.024212  0  3.745507  0  0  0.009763  -0.022371  0  3.728241  0
C  C46  1  0.17529958  0.50099468  0.64711887  1  0  -0.001579  0  3.49533  0  0  -0.023156  0  3.735452  0  0  -0.024251  0  3.745779  0  0  0.009833  -0.022397  0  3.728506  0
C  C47  1  0.67534566  0.99902643  0.35288458  1  0  -0.001892  0  3.4958  0  0  -0.023125  0  3.735368  0  0  -0.024205  0  3.745701  0  0  0.009735  -0.022379  0  3.728428  0
C  C48  1  0.52868561  0.71269209  0.20080094  1  0  0.038664  0  3.509995  0  0  -0.018623  0  3.76639  0  0  -0.014697  0  3.776186  0  0  -0.063712  -0.021128  0  3.759779  0
C  C49  1  0.02868424  0.78728946  0.79919211  1  0  0.038627  0  3.509678  0  0  -0.018661  0  3.766222  0  0  -0.014718  0  3.775984  0  0  -0.063748  -0.021161  0  3.759621  0
C  C50  1  0.97130193  0.28731213  0.70080274  1  0  0.038793  0  3.509882  0  0  -0.018567  0  3.766473  0  0  -0.014627  0  3.776249  0  0  -0.063713  -0.021067  0  3.759863  0
C  C51  1  0.47131727  0.21271272  0.29919522  1  0  0.038627  0  3.509704  0  0  -0.018618  0  3.766129  0  0  -0.014671  0  3.775889  0  0  -0.063784  -0.021117  0  3.759517  0
C  C52  1  0.50340594  0.72098068  0.10292049  1  0  -0.135666  0  3.672892  0  0  -0.180428  0  3.934883  0  0  -0.182277  0  3.947861  0  0  -0.166596  -0.179034  0  3.925822  0
C  C53  1  0.00338900  0.77900396  0.89707244  1  0  -0.135468  0  3.672379  0  0  -0.180337  0  3.934562  0  0  -0.182171  0  3.947501  0  0  -0.166533  -0.178962  0  3.925523  0
C  C54  1  0.99657715  0.27901052  0.60292563  1  0  -0.135686  0  3.672517  0  0  -0.18052  0  3.934725  0  0  -0.182365  0  3.947678  0  0  -0.166645  -0.179147  0  3.925703  0
C  C55  1  0.49661097  0.22099569  0.39707504  1  0  -0.135521  0  3.672615  0  0  -0.180422  0  3.934775  0  0  -0.18226  0  3.947709  0  0  -0.166597  -0.179058  0  3.92575  0
C  C56  1  0.27605565  0.61985892  0.08380421  1  0  -0.137772  0  3.614066  0  0  -0.17737  0  3.862758  0  0  -0.17875  0  3.874629  0  0  -0.153625  -0.176322  0  3.854742  0
C  C57  1  0.77604272  0.88012082  0.91619713  1  0  -0.137575  0  3.613412  0  0  -0.177181  0  3.862079  0  0  -0.178552  0  3.873937  0  0  -0.153544  -0.176154  0  3.854127  0
C  C58  1  0.22392608  0.38013991  0.58379922  1  0  -0.137623  0  3.613446  0  0  -0.177186  0  3.862171  0  0  -0.178556  0  3.87404  0  0  -0.153621  -0.176166  0  3.854217  0
C  C59  1  0.72395660  0.11987741  0.41619693  1  0  -0.1376  0  3.613843  0  0  -0.177279  0  3.862526  0  0  -0.178645  0  3.874372  0  0  -0.153616  -0.176242  0  3.854559  0
Br  Br60  1  0.00939083  0.01258931  0.14612129  1  0  -0.669088  0  0.669342  0  0  -0.617288  0  0.884974  0  0  -0.631418  0  0.866454  0  0  -0.279894  -0.606283  0  0.898103  0
Br  Br61  1  0.50939772  0.48735831  0.85387837  1  0  -0.669145  0  0.669355  0  0  -0.617306  0  0.884926  0  0  -0.631438  0  0.866405  0  0  -0.279921  -0.606298  0  0.898056  0
Br  Br62  1  0.49061970  0.98744618  0.64611821  1  0  -0.669081  0  0.669313  0  0  -0.61728  0  0.884903  0  0  -0.631412  0  0.866389  0  0  -0.279887  -0.60627  0  0.89803  0
Br  Br63  1  0.99062473  0.51261363  0.35388286  1  0  -0.669125  0  0.669374  0  0  -0.61729  0  0.88498  0  0  -0.631424  0  0.866461  0  0  -0.279904  -0.606281  0  0.898114  0
N  N64  1  0.47379029  0.56279010  0.22172985  1  0  -0.289438  0  3.303436  0  0  -0.222559  0  3.499459  0  0  -0.236935  0  3.507708  0  0  -0.474984  -0.212572  0  3.493798  0
N  N65  1  0.97377745  0.93720127  0.77826725  1  0  -0.289532  0  3.303762  0  0  -0.222734  0  3.499881  0  0  -0.237109  0  3.508116  0  0  -0.47498  -0.212752  0  3.494233  0
N  N66  1  0.02620769  0.43720851  0.72172792  1  0  -0.289476  0  3.303551  0  0  -0.22262  0  3.499665  0  0  -0.236994  0  3.507911  0  0  -0.474992  -0.212633  0  3.494009  0
N  N67  1  0.52621560  0.06278889  0.27827246  1  0  -0.289623  0  3.303777  0  0  -0.222698  0  3.499583  0  0  -0.237083  0  3.507829  0  0  -0.474949  -0.212706  0  3.493922  0
O  O68  1  0.73200649  0.37385215  0.11908681  1  0  -0.695149  0  1.928657  0  0  -0.647432  0  2.164219  0  0  -0.669374  0  2.152057  0  0  -0.372744  -0.632406  0  2.172515  0
O  O69  1  0.23198982  0.12614962  0.88091455  1  0  -0.695018  0  1.928523  0  0  -0.647318  0  2.164103  0  0  -0.669256  0  2.151953  0  0  -0.372609  -0.632283  0  2.172404  0
O  O70  1  0.76801527  0.62616091  0.61908385  1  0  -0.6951  0  1.92873  0  0  -0.647396  0  2.164242  0  0  -0.669336  0  2.152081  0  0  -0.372657  -0.632365  0  2.172541  0
O  O71  1  0.26802340  0.87384164  0.38091940  1  0  -0.694964  0  1.928858  0  0  -0.647223  0  2.164391  0  0  -0.669149  0  2.152258  0  0  -0.37258  -0.632184  0  2.172693  0
O  O72  1  0.35071041  0.30713104  0.05245750  1  0  -0.801042  0  1.995538  0  0  -0.752872  0  2.24171  0  0  -0.773961  0  2.22607  0  0  -0.443223  -0.738126  0  2.252437  0
O  O73  1  0.85070767  0.19284909  0.94755413  1  0  -0.801083  0  1.995409  0  0  -0.75295  0  2.241642  0  0  -0.774036  0  2.226009  0  0  -0.44326  -0.738203  0  2.252371  0
O  O74  1  0.14929585  0.69286864  0.55245152  1  0  -0.800962  0  1.9957  0  0  -0.752812  0  2.24187  0  0  -0.773905  0  2.226234  0  0  -0.443179  -0.738059  0  2.252604  0
O  O75  1  0.64932902  0.80716385  0.44756216  1  0  -0.80101  0  1.995373  0  0  -0.752923  0  2.241704  0  0  -0.774001  0  2.226086  0  0  -0.443297  -0.738173  0  2.252438  0
