# generated using pymatgen
data_Ag2H8C11N7O6
_symmetry_space_group_name_H-M   'P 1'
_cell_length_a   6.77632222
_cell_length_b   10.36572657
_cell_length_c   11.51544139
_cell_angle_alpha   64.90435581
_cell_angle_beta   89.51567773
_cell_angle_gamma   73.14993468
_symmetry_Int_Tables_number   1
_chemical_formula_structural   Ag2H8C11N7O6
_chemical_formula_sum   'Ag4 H16 C22 N14 O12'
_cell_volume   694.91391681
_cell_formula_units_Z   2
loop_
 _symmetry_equiv_pos_site_id
 _symmetry_equiv_pos_as_xyz
  1  'x, y, z'
loop_
 _atom_site_type_symbol
 _atom_site_label
 _atom_site_symmetry_multiplicity
 _atom_site_fract_x
 _atom_site_fract_y
 _atom_site_fract_z
 _atom_site_occupancy
 _atom_site_hle17_bader_spin_density
 _atom_site_hle17_ddec_charge
 _atom_site_hle17_ddec_spin_density
 _atom_site_hle17_ddec_sum_bond_order
 _atom_site_hle17_magmom
 _atom_site_hse06_10hf_bader_spin_density
 _atom_site_hse06_10hf_ddec_charge
 _atom_site_hse06_10hf_ddec_spin_density
 _atom_site_hse06_10hf_ddec_sum_bond_order
 _atom_site_hse06_10hf_magmom
 _atom_site_hse06_bader_spin_density
 _atom_site_hse06_ddec_charge
 _atom_site_hse06_ddec_spin_density
 _atom_site_hse06_ddec_sum_bond_order
 _atom_site_hse06_magmom
 _atom_site_pbe_bader_spin_density
 _atom_site_pbe_cm5_charge
 _atom_site_pbe_ddec_charge
 _atom_site_pbe_ddec_spin_density
 _atom_site_pbe_ddec_sum_bond_order
 _atom_site_pbe_magmom
Ag  Ag0  1  0.88304272  0.20177636  0.55875987  1  0  0.490229  0  1.607612  0  0  0.361218  0  2.084961  0  0  0.38991  0  2.032525  0  0  0.45419  0.342728  0  2.119288  0
Ag  Ag1  1  0.11695668  0.79822148  0.44123937  1  0  0.49024  0  1.607618  0  0  0.361249  0  2.084954  0  0  0.389942  0  2.032518  0  0  0.454199  0.342756  0  2.119266  0
Ag  Ag2  1  0.75058483  0.03844650  0.43604727  1  0  0.522863  0  1.518271  0  0  0.390535  0  1.997761  0  0  0.427262  0  1.935844  0  0  0.433653  0.365812  0  2.038792  0
Ag  Ag3  1  0.24941514  0.96155357  0.56395197  1  0  0.52288  0  1.518279  0  0  0.39053  0  1.997789  0  0  0.427257  0  1.935873  0  0  0.433655  0.365809  0  2.03882  0
H  H4  1  0.74540452  0.98805731  0.02348175  1  0  0.347426  0  0.89413  0  0  0.321046  0  0.964299  0  0  0.331459  0  0.955228  0  0  0.313512  0.31398  0  0.970396  0
H  H5  1  0.25459847  0.01194273  0.97651920  1  0  0.347395  0  0.894177  0  0  0.321033  0  0.964316  0  0  0.331446  0  0.955245  0  0  0.313535  0.313971  0  0.970414  0
H  H6  1  0.72613398  0.70989042  0.85441489  1  0  0.34518  0  0.888967  0  0  0.318588  0  0.95946  0  0  0.328757  0  0.950714  0  0  0.314298  0.311806  0  0.96521  0
H  H7  1  0.27386950  0.29010850  0.14558735  1  0  0.345206  0  0.888907  0  0  0.318609  0  0.95942  0  0  0.328776  0  0.950676  0  0  0.314298  0.311825  0  0.965178  0
H  H8  1  0.74864404  0.54640433  0.09565503  1  0  0.342815  0  0.902964  0  0  0.317527  0  0.972391  0  0  0.327882  0  0.963057  0  0  0.313205  0.310732  0  0.978355  0
H  H9  1  0.25135598  0.45359574  0.90434595  1  0  0.342805  0  0.902975  0  0  0.317515  0  0.972403  0  0  0.327871  0  0.96307  0  0  0.313195  0.31072  0  0.978367  0
H  H10  1  0.76579035  0.24973271  0.94031210  1  0  0.34459  0  0.905758  0  0  0.318822  0  0.975111  0  0  0.329405  0  0.965751  0  0  0.311268  0.311669  0  0.981391  0
H  H11  1  0.23421504  0.75026507  0.05968881  1  0  0.344523  0  0.905771  0  0  0.318768  0  0.975125  0  0  0.329353  0  0.965766  0  0  0.311241  0.311615  0  0.981405  0
H  H12  1  0.09827087  0.39325079  0.32968652  1  0  0.090039  0  0.954897  0  0  0.096472  0  1.019912  0  0  0.099163  0  1.017471  0  0  0.112371  0.094625  0  1.021422  0
H  H13  1  0.90172614  0.60674931  0.67031276  1  0  0.090007  0  0.954881  0  0  0.096468  0  1.019876  0  0  0.099158  0  1.017434  0  0  0.112369  0.094622  0  1.021386  0
H  H14  1  0.35352009  0.52624494  0.30026538  1  0  0.1173  0  0.970078  0  0  0.123369  0  1.034704  0  0  0.127021  0  1.032695  0  0  0.106655  0.120779  0  1.036343  0
H  H15  1  0.64647061  0.47375970  0.69973311  1  0  0.117318  0  0.969999  0  0  0.123377  0  1.034637  0  0  0.12703  0  1.032625  0  0  0.106665  0.120785  0  1.036279  0
H  H16  1  0.44178752  0.36377857  0.71626988  1  0  0.114798  0  0.965109  0  0  0.122151  0  1.028156  0  0  0.125344  0  1.026658  0  0  0.107538  0.119942  0  1.029291  0
H  H17  1  0.55820951  0.63622154  0.28373026  1  0  0.11476  0  0.96516  0  0  0.122107  0  1.028219  0  0  0.125302  0  1.026719  0  0  0.107525  0.119897  0  1.029354  0
H  H18  1  0.18655884  0.23377064  0.72810146  1  0  0.090995  0  0.954201  0  0  0.095218  0  1.025823  0  0  0.0985  0  1.022264  0  0  0.111443  0.092781  0  1.028531  0
H  H19  1  0.81343817  0.76622946  0.27189782  1  0  0.091002  0  0.95421  0  0  0.095229  0  1.025822  0  0  0.098511  0  1.022263  0  0  0.111453  0.092787  0  1.028531  0
C  C20  1  0.17951812  0.38835102  0.41295992  1  0  0.13572  0  3.688423  0  0  0.104191  0  3.937809  0  0  0.111174  0  3.95687  0  0  0.039551  0.100086  0  3.924333  0
C  C21  1  0.82047742  0.61164910  0.58704024  1  0  0.135731  0  3.68839  0  0  0.104159  0  3.937847  0  0  0.111143  0  3.956905  0  0  0.03948  0.100048  0  3.924374  0
C  C22  1  0.32390437  0.46373199  0.39769961  1  0  -0.142462  0  3.691624  0  0  -0.163643  0  3.946342  0  0  -0.170127  0  3.965535  0  0  -0.08324  -0.15948  0  3.93296  0
C  C23  1  0.67608781  0.53627263  0.60229886  1  0  -0.142373  0  3.691568  0  0  -0.163545  0  3.946338  0  0  -0.170029  0  3.965532  0  0  -0.083164  -0.159391  0  3.93298  0
C  C24  1  0.42407623  0.45918208  0.50622461  1  0  0.070855  0  3.759945  0  0  0.087692  0  3.987806  0  0  0.091012  0  4.007486  0  0  0.002377  0.085661  0  3.974362  0
C  C25  1  0.57591642  0.54082142  0.49377429  1  0  0.070864  0  3.759949  0  0  0.087719  0  3.987791  0  0  0.091039  0  4.007474  0  0  0.002336  0.085684  0  3.974349  0
C  C26  1  0.37242680  0.37375030  0.62722457  1  0  -0.124192  0  3.693088  0  0  -0.146399  0  3.945904  0  0  -0.152344  0  3.966082  0  0  -0.082446  -0.142507  0  3.932061  0
C  C27  1  0.62756781  0.62625207  0.37277474  1  0  -0.124133  0  3.693098  0  0  -0.146351  0  3.945919  0  0  -0.152295  0  3.966091  0  0  -0.082437  -0.142449  0  3.932052  0
C  C28  1  0.22784630  0.30035649  0.63509815  1  0  0.113588  0  3.696436  0  0  0.082247  0  3.949048  0  0  0.08811  0  3.968465  0  0  0.034686  0.078524  0  3.935219  0
C  C29  1  0.77214635  0.69964701  0.36490075  1  0  0.113555  0  3.696408  0  0  0.082232  0  3.949006  0  0  0.088096  0  3.968422  0  0  0.034692  0.078509  0  3.935175  0
C  C30  1  0.76939247  0.07485743  0.82641649  1  0  0.767191  0  3.841126  0  0  0.696442  0  4.142094  0  0  0.732869  0  4.137721  0  0  0.332295  0.671889  0  4.144494  0
C  C31  1  0.23061094  0.92514148  0.17358314  1  0  0.767104  0  3.841205  0  0  0.69639  0  4.142132  0  0  0.732817  0  4.137759  0  0  0.332311  0.671834  0  4.144532  0
C  C32  1  0.72834208  0.83124554  0.95830984  1  0  0.776906  0  3.84028  0  0  0.696379  0  4.157903  0  0  0.732542  0  4.151539  0  0  0.343858  0.672345  0  4.161259  0
C  C33  1  0.27166133  0.16875338  0.04168979  1  0  0.776835  0  3.840457  0  0  0.696308  0  4.158081  0  0  0.732473  0  4.151717  0  0  0.343813  0.672276  0  4.161443  0
C  C34  1  0.73799530  0.92340740  0.72673079  1  0  0.753341  0  3.858605  0  0  0.682101  0  4.148325  0  0  0.719487  0  4.146981  0  0  0.329077  0.657047  0  4.148261  0
C  C35  1  0.26200710  0.07659041  0.27326929  1  0  0.753502  0  3.858364  0  0  0.682192  0  4.148197  0  0  0.719579  0  4.146852  0  0  0.329132  0.657135  0  4.148134  0
C  C36  1  0.75964532  0.33049342  0.23025442  1  0  0.759509  0  3.863007  0  0  0.688971  0  4.156396  0  0  0.725615  0  4.153724  0  0  0.327978  0.664426  0  4.157276  0
C  C37  1  0.24035319  0.66950667  0.76974571  1  0  0.759587  0  3.863027  0  0  0.689049  0  4.156421  0  0  0.725696  0  4.153744  0  0  0.327977  0.664503  0  4.157299  0
C  C38  1  0.75266304  0.16454065  0.13908622  1  0  0.745444  0  3.873583  0  0  0.669676  0  4.185902  0  0  0.705863  0  4.183316  0  0  0.319309  0.645366  0  4.186921  0
C  C39  1  0.24734336  0.83545824  0.86091425  1  0  0.745483  0  3.873552  0  0  0.66978  0  4.185777  0  0  0.705968  0  4.183187  0  0  0.31935  0.645471  0  4.186796  0
C  C40  1  0.75362567  0.41863835  0.99722426  1  0  0.767715  0  3.857466  0  0  0.688344  0  4.173972  0  0  0.72463  0  4.167298  0  0  0.338599  0.664195  0  4.177666  0
C  C41  1  0.24637431  0.58135836  0.00277889  1  0  0.767685  0  3.857406  0  0  0.688332  0  4.173898  0  0  0.724607  0  4.167241  0  0  0.338594  0.664188  0  4.177583  0
N  N42  1  0.13075751  0.30761663  0.52959678  1  0  -0.304431  0  3.327403  0  0  -0.214155  0  3.595958  0  0  -0.23519  0  3.61636  0  0  -0.347382  -0.199792  0  3.581072  0
N  N43  1  0.86923905  0.69238460  0.47040294  1  0  -0.304481  0  3.327332  0  0  -0.214219  0  3.595927  0  0  -0.235253  0  3.616327  0  0  -0.347403  -0.199856  0  3.58104  0
N  N44  1  0.76401399  0.05089802  0.71849661  1  0  -0.661795  0  3.216932  0  0  -0.577637  0  3.515008  0  0  -0.613256  0  3.521381  0  0  -0.392061  -0.553798  0  3.50974  0
N  N45  1  0.23598642  0.94910093  0.28150219  1  0  -0.66184  0  3.216952  0  0  -0.577682  0  3.515062  0  0  -0.613302  0  3.521437  0  0  -0.392113  -0.55384  0  3.509788  0
N  N46  1  0.74240413  0.96668034  0.94262404  1  0  -0.56401  0  3.219042  0  0  -0.499934  0  3.468149  0  0  -0.526225  0  3.467477  0  0  -0.387289  -0.482352  0  3.467829  0
N  N47  1  0.25759930  0.03331858  0.05737646  1  0  -0.563915  0  3.219092  0  0  -0.499869  0  3.468232  0  0  -0.526158  0  3.467562  0  0  -0.387312  -0.482276  0  3.46788  0
N  N48  1  0.73103106  0.81273777  0.84661179  1  0  -0.569193  0  3.238111  0  0  -0.504164  0  3.48906  0  0  -0.530858  0  3.489428  0  0  -0.391419  -0.486448  0  3.488048  0
N  N49  1  0.26897235  0.18726115  0.15338785  1  0  -0.569193  0  3.238044  0  0  -0.504155  0  3.489029  0  0  -0.53085  0  3.489398  0  0  -0.391412  -0.48644  0  3.488019  0
N  N50  1  0.75517890  0.44006981  0.10665983  1  0  -0.573314  0  3.24798  0  0  -0.51277  0  3.502546  0  0  -0.538809  0  3.501612  0  0  -0.395206  -0.495358  0  3.502288  0
N  N51  1  0.24482305  0.55992912  0.89334070  1  0  -0.573313  0  3.247914  0  0  -0.512776  0  3.502479  0  0  -0.538813  0  3.50154  0  0  -0.395184  -0.495363  0  3.502215  0
N  N52  1  0.75833028  0.27702586  0.01844731  1  0  -0.575934  0  3.227479  0  0  -0.51173  0  3.481603  0  0  -0.538231  0  3.481407  0  0  -0.393024  -0.494084  0  3.48103  0
N  N53  1  0.24167461  0.72297304  0.98155231  1  0  -0.575857  0  3.227343  0  0  -0.511696  0  3.481446  0  0  -0.538197  0  3.481256  0  0  -0.393015  -0.494048  0  3.480865  0
N  N54  1  0.75550467  0.19390980  0.24366581  1  0  -0.655132  0  3.214666  0  0  -0.563107  0  3.516909  0  0  -0.600896  0  3.523674  0  0  -0.401071  -0.53794  0  3.511395  0
N  N55  1  0.24449829  0.80609024  0.75633427  1  0  -0.655176  0  3.214674  0  0  -0.563154  0  3.516876  0  0  -0.600945  0  3.523643  0  0  -0.401071  -0.537986  0  3.511361  0
O  O56  1  0.79742505  0.19043256  0.82211927  1  0  -0.584707  0  1.94122  0  0  -0.532439  0  2.171314  0  0  -0.554331  0  2.161188  0  0  -0.289132  -0.517886  0  2.178034  0
O  O57  1  0.20257687  0.80956637  0.17788038  1  0  -0.584626  0  1.941228  0  0  -0.532391  0  2.171344  0  0  -0.554291  0  2.161223  0  0  -0.289111  -0.517844  0  2.178065  0
O  O58  1  0.71577224  0.73253393  0.06473425  1  0  -0.578213  0  1.900839  0  0  -0.522636  0  2.115852  0  0  -0.543745  0  2.106933  0  0  -0.287117  -0.508855  0  2.121735  0
O  O59  1  0.28422977  0.26746835  0.93526498  1  0  -0.578218  0  1.900958  0  0  -0.522642  0  2.115978  0  0  -0.543749  0  2.107055  0  0  -0.287084  -0.508859  0  2.121863  0
O  O60  1  0.72223379  0.89591631  0.63061310  1  0  -0.588721  0  2.103487  0  0  -0.508613  0  2.388661  0  0  -0.538998  0  2.374828  0  0  -0.313391  -0.488436  0  2.3976  0
O  O61  1  0.27776713  0.10408152  0.36938700  1  0  -0.588851  0  2.103398  0  0  -0.508693  0  2.388586  0  0  -0.539079  0  2.374754  0  0  -0.313425  -0.488519  0  2.397529  0
O  O62  1  0.76708647  0.36108805  0.32319167  1  0  -0.587256  0  2.030711  0  0  -0.522713  0  2.287552  0  0  -0.548493  0  2.278446  0  0  -0.293244  -0.505422  0  2.293078  0
O  O63  1  0.23290567  0.63891322  0.67680896  1  0  -0.58732  0  2.030751  0  0  -0.522789  0  2.287604  0  0  -0.548571  0  2.278496  0  0  -0.293256  -0.505496  0  2.293128  0
O  O64  1  0.74784274  0.51985251  0.88756298  1  0  -0.588518  0  1.900373  0  0  -0.532423  0  2.116688  0  0  -0.553884  0  2.108349  0  0  -0.29227  -0.518174  0  2.122054  0
O  O65  1  0.25215827  0.48014867  0.11243669  1  0  -0.588486  0  1.900445  0  0  -0.532379  0  2.116746  0  0  -0.553824  0  2.108399  0  0  -0.292253  -0.518139  0  2.122116  0
O  O66  1  0.74603520  0.04140742  0.14826642  1  0  -0.598651  0  1.935822  0  0  -0.548626  0  2.175589  0  0  -0.570629  0  2.166054  0  0  -0.297554  -0.533848  0  2.181429  0
O  O67  1  0.25397315  0.95859033  0.85173447  1  0  -0.598672  0  1.935778  0  0  -0.548701  0  2.175555  0  0  -0.570699  0  2.166015  0  0  -0.297603  -0.533938  0  2.181428  0
