# generated using pymatgen
data_CdH23C28N5O9
_symmetry_space_group_name_H-M   'P 1'
_cell_length_a   9.72651775
_cell_length_b   10.32458074
_cell_length_c   14.55505316
_cell_angle_alpha   79.77269890
_cell_angle_beta   72.00663174
_cell_angle_gamma   82.23613556
_symmetry_Int_Tables_number   1
_chemical_formula_structural   CdH23C28N5O9
_chemical_formula_sum   'Cd2 H46 C56 N10 O18'
_cell_volume   1363.03965044
_cell_formula_units_Z   2
loop_
 _symmetry_equiv_pos_site_id
 _symmetry_equiv_pos_as_xyz
  1  'x, y, z'
loop_
 _atom_site_type_symbol
 _atom_site_label
 _atom_site_symmetry_multiplicity
 _atom_site_fract_x
 _atom_site_fract_y
 _atom_site_fract_z
 _atom_site_occupancy
 _atom_site_hle17_bader_spin_density
 _atom_site_hle17_ddec_charge
 _atom_site_hle17_ddec_spin_density
 _atom_site_hle17_ddec_sum_bond_order
 _atom_site_hle17_magmom
 _atom_site_hse06_10hf_bader_spin_density
 _atom_site_hse06_10hf_ddec_charge
 _atom_site_hse06_10hf_ddec_spin_density
 _atom_site_hse06_10hf_ddec_sum_bond_order
 _atom_site_hse06_10hf_magmom
 _atom_site_hse06_bader_spin_density
 _atom_site_hse06_ddec_charge
 _atom_site_hse06_ddec_spin_density
 _atom_site_hse06_ddec_sum_bond_order
 _atom_site_hse06_magmom
 _atom_site_pbe_bader_spin_density
 _atom_site_pbe_cm5_charge
 _atom_site_pbe_ddec_charge
 _atom_site_pbe_ddec_spin_density
 _atom_site_pbe_ddec_sum_bond_order
 _atom_site_pbe_magmom
Cd  Cd0  1  0.94963413  0.75809572  0.52061584  1  0  1.165191  0  1.693174  0  0  0.979584  0  2.142701  0  0  1.030942  0  2.092457  0  0  0.794041  0.941519  0  2.178304  0
Cd  Cd1  1  0.05036727  0.24190598  0.47938456  1  0  1.165131  0  1.693263  0  0  0.97951  0  2.142793  0  0  1.03087  0  2.092548  0  0  0.794033  0.941443  0  2.178403  0
H  H2  1  0.84962607  0.49242822  0.59423103  1  0  0.426592  0  0.879979  0  0  0.392769  0  0.948131  0  0  0.40445  0  0.931393  0  0  0.281948  0.384408  0  0.960027  0
H  H3  1  0.15037552  0.50757151  0.40576959  1  0  0.426583  0  0.879994  0  0  0.392752  0  0.948162  0  0  0.404432  0  0.931426  0  0  0.281932  0.38439  0  0.960058  0
H  H4  1  0.72628902  0.60584624  0.63536878  1  0  0.421305  0  0.884952  0  0  0.390262  0  0.949557  0  0  0.400939  0  0.933884  0  0  0.287186  0.382652  0  0.960781  0
H  H5  1  0.27371244  0.39415545  0.36462817  1  0  0.421327  0  0.884939  0  0  0.390269  0  0.949568  0  0  0.40095  0  0.933888  0  0  0.287165  0.382665  0  0.960782  0
H  H6  1  0.30266497  0.69087008  0.47603727  1  0  0.091965  0  0.933109  0  0  0.098212  0  0.998517  0  0  0.101407  0  0.995579  0  0  0.119078  0.095885  0  1.000656  0
H  H7  1  0.69733519  0.30913359  0.52396176  1  0  0.091962  0  0.93321  0  0  0.098197  0  0.998612  0  0  0.10139  0  0.995674  0  0  0.119087  0.095868  0  1.000754  0
H  H8  1  0.38391344  0.51438096  0.90540240  1  0  0.284946  0  0.899906  0  0  0.27689  0  0.949391  0  0  0.282615  0  0.946435  0  0  0.318148  0.272772  0  0.951708  0
H  H9  1  0.61608936  0.48561777  0.09459604  1  0  0.285063  0  0.899871  0  0  0.277067  0  0.94927  0  0  0.282792  0  0.946312  0  0  0.318207  0.27295  0  0.951587  0
H  H10  1  0.48425461  0.59472195  0.56646354  1  0  0.114322  0  0.947304  0  0  0.124205  0  1.007543  0  0  0.12741  0  1.007081  0  0  0.1103  0.121223  0  1.009104  0
H  H11  1  0.51574474  0.40527876  0.43353603  1  0  0.11431  0  0.94731  0  0  0.124195  0  1.007546  0  0  0.1274  0  1.007085  0  0  0.110296  0.121213  0  1.00911  0
H  H12  1  0.41153489  0.84005347  0.22477965  1  0  0.288507  0  0.966262  0  0  0.268271  0  1.034755  0  0  0.276653  0  1.028631  0  0  0.29377  0.262205  0  1.039561  0
H  H13  1  0.58845932  0.15994429  0.77522270  1  0  0.28854  0  0.966168  0  0  0.268301  0  1.034694  0  0  0.276684  0  1.028573  0  0  0.293789  0.262232  0  1.039511  0
H  H14  1  0.95792095  0.61285565  0.72472388  1  0  0.087446  0  0.934347  0  0  0.094491  0  1.000626  0  0  0.096985  0  0.997751  0  0  0.121001  0.093013  0  1.002159  0
H  H15  1  0.04208056  0.38714506  0.27527594  1  0  0.087451  0  0.934345  0  0  0.094496  0  1.000618  0  0  0.09699  0  0.997744  0  0  0.121005  0.093016  0  1.002153  0
H  H16  1  0.12240441  0.51438517  0.82457756  1  0  0.117321  0  0.950672  0  0  0.127313  0  1.008617  0  0  0.130516  0  1.007546  0  0  0.108569  0.125007  0  1.009583  0
H  H17  1  0.87759730  0.48561356  0.17542110  1  0  0.117321  0  0.95065  0  0  0.127322  0  1.008583  0  0  0.130527  0  1.007509  0  0  0.108558  0.125013  0  1.009548  0
H  H18  1  0.38284401  0.38168146  0.79804422  1  0  0.075895  0  0.926103  0  0  0.092918  0  0.986605  0  0  0.093309  0  0.986274  0  0  0.113524  0.092638  0  0.986867  0
H  H19  1  0.61715536  0.61831925  0.20195466  1  0  0.075938  0  0.926141  0  0  0.092962  0  0.986604  0  0  0.093352  0  0.986275  0  0  0.113546  0.092683  0  0.98686  0
H  H20  1  0.53015547  0.45822920  0.71007018  1  0  0.095111  0  0.944137  0  0  0.1061  0  1.010207  0  0  0.108687  0  1.007215  0  0  0.114625  0.10375  0  1.0132  0
H  H21  1  0.46984389  0.54177150  0.28992869  1  0  0.095134  0  0.944136  0  0  0.106097  0  1.0102  0  0  0.108679  0  1.007219  0  0  0.114633  0.103751  0  1.013195  0
H  H22  1  0.73542535  0.79204729  0.80282404  1  0  0.110178  0  0.974171  0  0  0.114795  0  1.044366  0  0  0.118888  0  1.041661  0  0  0.103665  0.111946  0  1.046136  0
H  H23  1  0.26457769  0.20794849  0.19717679  1  0  0.110156  0  0.974169  0  0  0.114779  0  1.044364  0  0  0.118877  0  1.041643  0  0  0.103665  0.111928  0  1.046134  0
H  H24  1  0.75650748  0.91288681  0.93220077  1  0  0.095801  0  0.97499  0  0  0.103224  0  1.041883  0  0  0.105872  0  1.041754  0  0  0.099606  0.101376  0  1.041923  0
H  H25  1  0.24349187  0.08711391  0.06779949  1  0  0.095824  0  0.974966  0  0  0.103243  0  1.041867  0  0  0.10589  0  1.041741  0  0  0.099617  0.101393  0  1.041902  0
H  H26  1  0.35721012  0.62185191  0.00947915  1  0  0.083688  0  0.975566  0  0  0.090581  0  1.044638  0  0  0.093685  0  1.042836  0  0  0.098453  0.088243  0  1.046427  0
H  H27  1  0.64279425  0.37814187  0.99051686  1  0  0.083704  0  0.975533  0  0  0.090581  0  1.044632  0  0  0.093686  0  1.042827  0  0  0.098464  0.088244  0  1.046415  0
H  H28  1  0.38091980  0.73702749  0.13395065  1  0  0.095735  0  1.000644  0  0  0.101548  0  1.070166  0  0  0.104674  0  1.069095  0  0  0.101436  0.099316  0  1.070975  0
H  H29  1  0.61908143  0.26296530  0.86604542  1  0  0.095637  0  1.000697  0  0  0.101485  0  1.070173  0  0  0.104603  0  1.069134  0  0  0.101419  0.099253  0  1.070984  0
H  H30  1  0.37739085  0.01305461  0.31670098  1  0  0.093444  0  0.925984  0  0  0.111747  0  0.983437  0  0  0.11208  0  0.98335  0  0  0.116306  0.111292  0  0.983855  0
H  H31  1  0.62260867  0.98694413  0.68330018  1  0  0.093391  0  0.926049  0  0  0.111735  0  0.983454  0  0  0.112069  0  0.983367  0  0  0.116303  0.111275  0  0.983878  0
H  H32  1  0.52309668  0.09000468  0.22880952  1  0  0.085571  0  0.949028  0  0  0.099408  0  1.013476  0  0  0.100166  0  1.012816  0  0  0.113983  0.098963  0  1.013806  0
H  H33  1  0.47690210  0.90999108  0.77118805  1  0  0.085556  0  0.948922  0  0  0.099447  0  1.013343  0  0  0.100198  0  1.012674  0  0  0.113997  0.099002  0  1.013666  0
H  H34  1  0.75528452  0.03522737  0.48133795  1  0  0.087168  0  0.965334  0  0  0.092599  0  1.034446  0  0  0.095933  0  1.031152  0  0  0.111838  0.09015  0  1.036835  0
H  H35  1  0.24471860  0.96476743  0.51866436  1  0  0.087163  0  0.965273  0  0  0.0926  0  1.034387  0  0  0.095934  0  1.03109  0  0  0.111818  0.090149  0  1.036773  0
H  H36  1  0.58497687  0.12853284  0.38130373  1  0  0.110649  0  0.947322  0  0  0.121806  0  1.004567  0  0  0.124548  0  1.005304  0  0  0.106851  0.119923  0  1.004265  0
H  H37  1  0.41502064  0.87146394  0.61870014  1  0  0.11061  0  0.947342  0  0  0.12178  0  1.00458  0  0  0.124521  0  1.005319  0  0  0.106816  0.119895  0  1.004274  0
H  H38  1  0.61288230  0.74102357  0.30236695  1  0  0.101365  0  0.986224  0  0  0.110908  0  1.049136  0  0  0.11344  0  1.04961  0  0  0.103643  0.109143  0  1.048883  0
H  H39  1  0.38712137  0.25897714  0.69763243  1  0  0.101318  0  0.986263  0  0  0.110854  0  1.049177  0  0  0.113386  0  1.049651  0  0  0.103618  0.109089  0  1.048931  0
H  H40  1  0.78013659  0.66331170  0.40598716  1  0  0.083415  0  0.954276  0  0  0.087919  0  1.025473  0  0  0.090467  0  1.023328  0  0  0.112509  0.086286  0  1.026651  0
H  H41  1  0.21986098  0.33668506  0.59401328  1  0  0.083404  0  0.954297  0  0  0.087914  0  1.025491  0  0  0.090462  0  1.023345  0  0  0.112492  0.086281  0  1.026678  0
H  H42  1  0.97032646  0.16138505  0.24325325  1  0  0.096741  0  0.963706  0  0  0.104426  0  1.028461  0  0  0.107322  0  1.027316  0  0  0.104895  0.102383  0  1.029163  0
H  H43  1  0.02967062  0.83861665  0.75674802  1  0  0.096762  0  0.963669  0  0  0.104443  0  1.028428  0  0  0.107341  0  1.027281  0  0  0.104888  0.102402  0  1.029124  0
H  H44  1  0.88134611  0.11185790  0.10955166  1  0  0.115374  0  0.927981  0  0  0.124522  0  0.983688  0  0  0.128413  0  0.981489  0  0  0.111673  0.121662  0  0.985631  0
H  H45  1  0.11864990  0.88814380  0.89044982  1  0  0.115411  0  0.927937  0  0  0.124555  0  0.983631  0  0  0.128447  0  0.981429  0  0  0.111662  0.12168  0  0.985592  0
H  H46  1  0.93645257  0.88644275  0.06266250  1  0  0.117671  0  0.957921  0  0  0.123246  0  1.023744  0  0  0.126888  0  1.020824  0  0  0.114634  0.120605  0  1.025969  0
H  H47  1  0.06354236  0.11355896  0.93733852  1  0  0.117673  0  0.958067  0  0  0.123283  0  1.023837  0  0  0.126907  0  1.020936  0  0  0.114676  0.120649  0  1.026056  0
C  C48  1  0.26821792  0.65111151  0.55358794  1  0  0.139047  0  3.691107  0  0  0.110535  0  3.942475  0  0  0.118336  0  3.959517  0  0  0.053133  0.105262  0  3.930914  0
C  C49  1  0.73178243  0.34889019  0.44641130  1  0  0.138962  0  3.691256  0  0  0.110465  0  3.942591  0  0  0.118267  0  3.959635  0  0  0.053046  0.105193  0  3.931032  0
C  C50  1  0.36818828  0.59700095  0.60419074  1  0  -0.173336  0  3.701355  0  0  -0.189952  0  3.945237  0  0  -0.198016  0  3.966463  0  0  -0.082001  -0.184278  0  3.931307  0
C  C51  1  0.63181214  0.40299976  0.39580929  1  0  -0.17322  0  3.701311  0  0  -0.189854  0  3.945204  0  0  -0.197916  0  3.966425  0  0  -0.081932  -0.184174  0  3.931274  0
C  C52  1  0.31819377  0.54568613  0.70324464  1  0  0.124026  0  3.710262  0  0  0.140325  0  3.948911  0  0  0.144015  0  3.972045  0  0  0.011927  0.137989  0  3.933355  0
C  C53  1  0.68180570  0.45431359  0.29675366  1  0  0.124029  0  3.710233  0  0  0.140313  0  3.948872  0  0  0.144004  0  3.972004  0  0  0.011922  0.137972  0  3.933322  0
C  C54  1  0.07530494  0.60805411  0.69234393  1  0  0.135882  0  3.71447  0  0  0.104099  0  3.97222  0  0  0.111399  0  3.991074  0  0  0.04891  0.099234  0  3.959037  0
C  C55  1  0.92469657  0.39194660  0.30765589  1  0  0.135935  0  3.714444  0  0  0.104146  0  3.972185  0  0  0.111446  0  3.991041  0  0  0.048921  0.099286  0  3.958995  0
C  C56  1  0.16810463  0.55306989  0.74770421  1  0  -0.168713  0  3.696293  0  0  -0.186075  0  3.939924  0  0  -0.195426  0  3.96376  0  0  -0.085167  -0.17993  0  3.923831  0
C  C57  1  0.83189482  0.44692983  0.25229546  1  0  -0.168703  0  3.696229  0  0  -0.186074  0  3.939858  0  0  -0.195425  0  3.963693  0  0  -0.08515  -0.179924  0  3.923755  0
C  C58  1  0.42144908  0.47767468  0.75990013  1  0  0.004726  0  3.662561  0  0  -0.059656  0  3.922694  0  0  -0.053897  0  3.929446  0  0  -0.053975  -0.063878  0  3.918763  0
C  C59  1  0.57855155  0.52232405  0.24009875  1  0  0.004571  0  3.662813  0  0  -0.059734  0  3.922901  0  0  -0.053974  0  3.929652  0  0  -0.054061  -0.063967  0  3.91898  0
C  C60  1  0.53074212  0.63965613  0.81377517  1  0  0.549321  0  3.834976  0  0  0.500013  0  4.122123  0  0  0.529639  0  4.120237  0  0  0.245974  0.48026  0  4.122505  0
C  C61  1  0.46925951  0.36034359  0.18622269  1  0  0.54925  0  3.834981  0  0  0.499933  0  4.12212  0  0  0.529557  0  4.120234  0  0  0.245872  0.480182  0  4.122504  0
C  C62  1  0.54547159  0.69900011  0.89625637  1  0  -0.061909  0  3.775058  0  0  -0.040727  0  4.012574  0  0  -0.046156  0  4.034006  0  0  -0.015353  -0.036715  0  3.998197  0
C  C63  1  0.45453005  0.30099961  0.10374080  1  0  -0.062045  0  3.77525  0  0  -0.040787  0  4.012656  0  0  -0.046216  0  4.034087  0  0  -0.015362  -0.036776  0  3.998277  0
C  C64  1  0.65957955  0.77956492  0.87616045  1  0  -0.065838  0  3.70623  0  0  -0.089137  0  3.954225  0  0  -0.089656  0  3.973068  0  0  -0.081297  -0.088816  0  3.941331  0
C  C65  1  0.34042089  0.22043579  0.12383890  1  0  -0.065762  0  3.706188  0  0  -0.089078  0  3.954131  0  0  -0.089595  0  3.972979  0  0  -0.081303  -0.088752  0  3.941229  0
C  C66  1  0.67121459  0.84692206  0.94769742  1  0  -0.068166  0  3.721161  0  0  -0.089024  0  3.963994  0  0  -0.090259  0  3.98424  0  0  -0.082843  -0.087812  0  3.950214  0
C  C67  1  0.32878352  0.15308062  0.05230146  1  0  -0.068263  0  3.72118  0  0  -0.089127  0  3.964021  0  0  -0.090368  0  3.984271  0  0  -0.082866  -0.087912  0  3.950234  0
C  C68  1  0.57018073  0.83546107  0.04073172  1  0  -0.042898  0  3.743183  0  0  -0.020343  0  3.973845  0  0  -0.025019  0  3.994865  0  0  -0.010532  -0.017486  0  3.960132  0
C  C69  1  0.42981550  0.16453865  0.95926723  1  0  -0.042842  0  3.743072  0  0  -0.020282  0  3.97376  0  0  -0.024942  0  3.99476  0  0  -0.010532  -0.017431  0  3.960055  0
C  C70  1  0.44756404  0.68336003  0.99042721  1  0  -0.084996  0  3.747913  0  0  -0.112845  0  4.009771  0  0  -0.113716  0  4.029902  0  0  -0.091251  -0.112772  0  3.997237  0
C  C71  1  0.55243563  0.31663770  0.00956992  1  0  -0.084887  0  3.748063  0  0  -0.112748  0  4.009892  0  0  -0.113618  0  4.030023  0  0  -0.091188  -0.112675  0  3.99736  0
C  C72  1  0.45979756  0.75069495  0.06197484  1  0  -0.07904  0  3.724109  0  0  -0.105086  0  3.981908  0  0  -0.105931  0  4.001823  0  0  -0.090608  -0.104649  0  3.968762  0
C  C73  1  0.54020103  0.24930278  0.93802251  1  0  -0.07896  0  3.72419  0  0  -0.105032  0  3.98199  0  0  -0.105887  0  4.001904  0  0  -0.090613  -0.104599  0  3.968853  0
C  C74  1  0.58335533  0.92123422  0.11051476  1  0  0.520089  0  3.86908  0  0  0.474258  0  4.156643  0  0  0.503091  0  4.156645  0  0  0.22985  0.454647  0  4.155874  0
C  C75  1  0.41664229  0.07876157  0.88948784  1  0  0.520102  0  3.869011  0  0  0.474253  0  4.15664  0  0  0.503084  0  4.156644  0  0  0.229872  0.454648  0  4.155866  0
C  C76  1  0.48856221  0.99430969  0.26963554  1  0  0.002689  0  3.683347  0  0  -0.059529  0  3.933705  0  0  -0.053991  0  3.942267  0  0  -0.054135  -0.063234  0  3.9277  0
C  C77  1  0.51143643  0.00568707  0.73036467  1  0  0.002748  0  3.683148  0  0  -0.059524  0  3.933546  0  0  -0.053966  0  3.942089  0  0  -0.054173  -0.063225  0  3.927537  0
C  C78  1  0.71877879  0.97393795  0.44088085  1  0  0.12448  0  3.722282  0  0  0.093236  0  3.978519  0  0  0.100384  0  3.997493  0  0  0.040619  0.088591  0  3.965615  0
C  C79  1  0.28122187  0.02605981  0.55912227  1  0  0.124465  0  3.722155  0  0  0.093203  0  3.978409  0  0  0.100351  0  3.997384  0  0  0.040619  0.088562  0  3.965492  0
C  C80  1  0.62537218  0.02446088  0.38520217  1  0  -0.173465  0  3.713734  0  0  -0.189898  0  3.959438  0  0  -0.199185  0  3.982577  0  0  -0.085697  -0.184313  0  3.944234  0
C  C81  1  0.37462732  0.97553787  0.61480036  1  0  -0.173365  0  3.713716  0  0  -0.189819  0  3.959419  0  0  -0.199105  0  3.982563  0  0  -0.085672  -0.184234  0  3.944205  0
C  C82  1  0.58632572  0.94133802  0.33286695  1  0  0.146582  0  3.695346  0  0  0.162223  0  3.930418  0  0  0.167245  0  3.951388  0  0  0.019196  0.159024  0  3.915998  0
C  C83  1  0.41367586  0.05866171  0.66713436  1  0  0.146472  0  3.695417  0  0  0.162123  0  3.930475  0  0  0.167145  0  3.951444  0  0  0.019248  0.158924  0  3.916055  0
C  C84  1  0.64093919  0.80899636  0.34147532  1  0  -0.174025  0  3.720946  0  0  -0.189932  0  3.961359  0  0  -0.199351  0  3.984662  0  0  -0.091789  -0.183216  0  3.945046  0
C  C85  1  0.35906340  0.19100435  0.65852428  1  0  -0.173945  0  3.72099  0  0  -0.189832  0  3.961372  0  0  -0.199249  0  3.984675  0  0  -0.091797  -0.18312  0  3.945074  0
C  C86  1  0.73354083  0.76532884  0.39854466  1  0  0.12953  0  3.739922  0  0  0.098881  0  3.993401  0  0  0.106505  0  4.012811  0  0  0.040857  0.093999  0  3.979517  0
C  C87  1  0.26646086  0.23466990  0.60145607  1  0  0.129563  0  3.739923  0  0  0.098888  0  3.993408  0  0  0.106513  0  4.012816  0  0  0.040906  0.094002  0  3.979535  0
C  C88  1  0.10177093  0.00208086  0.35814845  1  0  0.661251  0  3.905936  0  0  0.604472  0  4.210413  0  0  0.640129  0  4.201463  0  0  0.207574  0.579817  0  4.216672  0
C  C89  1  0.89822814  0.99792282  0.64185148  1  0  0.661382  0  3.905943  0  0  0.604576  0  4.210469  0  0  0.640234  0  4.201516  0  0  0.207635  0.579912  0  4.21674  0
C  C90  1  0.06148573  0.96421457  0.27476941  1  0  -0.087455  0  3.703832  0  0  -0.071565  0  3.942369  0  0  -0.080653  0  3.964118  0  0  -0.013248  -0.066142  0  3.929239  0
C  C91  1  0.93851326  0.03579010  0.72522973  1  0  -0.087492  0  3.703693  0  0  -0.071607  0  3.942282  0  0  -0.080694  0  3.964029  0  0  -0.013271  -0.066191  0  3.929162  0
C  C92  1  0.08984158  0.83498019  0.25088330  1  0  -0.06845  0  3.65259  0  0  -0.066774  0  3.899554  0  0  -0.065311  0  3.915582  0  0  0.006831  -0.067764  0  3.889715  0
C  C93  1  0.91015992  0.16502052  0.74911721  1  0  -0.068387  0  3.652475  0  0  -0.066719  0  3.899471  0  0  -0.065255  0  3.915498  0  0  0.006875  -0.067703  0  3.889625  0
C  C94  1  0.15936783  0.72611425  0.31154609  1  0  0.665736  0  3.962094  0  0  0.601837  0  4.282779  0  0  0.636767  0  4.271245  0  0  0.207101  0.577818  0  4.28987  0
C  C95  1  0.84063258  0.27388647  0.68845532  1  0  0.665816  0  3.961837  0  0  0.601905  0  4.28254  0  0  0.636835  0  4.271003  0  0  0.207121  0.577885  0  4.28963  0
C  C96  1  0.98979922  0.06291430  0.22231318  1  0  -0.024787  0  3.690275  0  0  -0.054229  0  3.944057  0  0  -0.050665  0  3.961291  0  0  -0.066183  -0.056434  0  3.932452  0
C  C97  1  0.01019887  0.93708839  0.77768639  1  0  -0.024726  0  3.690163  0  0  -0.054169  0  3.943945  0  0  -0.050602  0  3.961176  0  0  -0.066133  -0.056368  0  3.932326  0
C  C98  1  0.94225737  0.03635155  0.14727222  1  0  -0.052543  0  3.721312  0  0  -0.067223  0  3.980392  0  0  -0.070844  0  3.99777  0  0  -0.078508  -0.065007  0  3.969064  0
C  C99  1  0.05774043  0.96365411  0.85272840  1  0  -0.052661  0  3.721318  0  0  -0.067321  0  3.980389  0  0  -0.070944  0  3.997765  0  0  -0.078517  -0.06509  0  3.969063  0
C  C100  1  0.97178734  0.91033964  0.12105464  1  0  -0.058556  0  3.693614  0  0  -0.089077  0  3.953583  0  0  -0.085483  0  3.969816  0  0  -0.067402  -0.0911  0  3.942711  0
C  C101  1  0.02821065  0.08966404  0.87894620  1  0  -0.058627  0  3.693927  0  0  -0.08918  0  3.953914  0  0  -0.085569  0  3.970157  0  0  -0.067495  -0.091208  0  3.943026  0
C  C102  1  0.04654393  0.81276718  0.17143146  1  0  0.040022  0  3.665146  0  0  0.027332  0  3.921353  0  0  0.022344  0  3.9439  0  0  0.077226  0.030265  0  3.906303  0
C  C103  1  0.95345638  0.18723453  0.82857053  1  0  0.040026  0  3.66529  0  0  0.02732  0  3.921534  0  0  0.022332  0  3.944077  0  0  0.077236  0.030257  0  3.906483  0
N  N104  1  0.12410854  0.65614564  0.59687638  1  0  -0.331909  0  3.235343  0  0  -0.254836  0  3.497523  0  0  -0.274704  0  3.515787  0  0  -0.325707  -0.240775  0  3.484959  0
N  N105  1  0.87589169  0.34385705  0.40312413  1  0  -0.33195  0  3.235397  0  0  -0.254836  0  3.497503  0  0  -0.274705  0  3.515767  0  0  -0.32569  -0.240779  0  3.484944  0
N  N106  1  0.43317091  0.54877898  0.83466984  1  0  -0.415967  0  3.31066  0  0  -0.361324  0  3.558394  0  0  -0.382766  0  3.567616  0  0  -0.418526  -0.346498  0  3.55176  0
N  N107  1  0.56682964  0.45122074  0.16532823  1  0  -0.416013  0  3.310828  0  0  -0.361478  0  3.558562  0  0  -0.38292  0  3.567779  0  0  -0.418507  -0.346656  0  3.551936  0
N  N108  1  0.48689430  0.90934260  0.20116424  1  0  -0.44198  0  3.342522  0  0  -0.38373  0  3.593792  0  0  -0.406771  0  3.603785  0  0  -0.43006  -0.367453  0  3.586934  0
N  N109  1  0.51310323  0.09065417  0.79883894  1  0  -0.441983  0  3.342278  0  0  -0.383784  0  3.593618  0  0  -0.406835  0  3.603625  0  0  -0.430054  -0.367509  0  3.586767  0
N  N110  1  0.77280883  0.84662377  0.44691769  1  0  -0.349903  0  3.282287  0  0  -0.270368  0  3.545608  0  0  -0.292048  0  3.565556  0  0  -0.33823  -0.255169  0  3.531486  0
N  N111  1  0.22719294  0.15337398  0.55308314  1  0  -0.349897  0  3.282247  0  0  -0.270336  0  3.545558  0  0  -0.292016  0  3.565505  0  0  -0.338238  -0.255131  0  3.531426  0
N  N112  1  0.07891267  0.68352319  0.13791890  1  0  0.501179  0  3.895693  0  0  0.528553  0  4.196593  0  0  0.549802  0  4.205139  0  0  0.054209  0.514287  0  4.190944  0
N  N113  1  0.92108540  0.31647950  0.86208204  1  0  0.501226  0  3.8959  0  0  0.528608  0  4.196803  0  0  0.549857  0  4.205356  0  0  0.054231  0.514339  0  4.191158  0
O  O114  1  0.80433457  0.58333635  0.57660551  1  0  -0.850864  0  1.85024  0  0  -0.787632  0  2.049194  0  0  -0.81037  0  2.01539  0  0  -0.594297  -0.770699  0  2.073626  0
O  O115  1  0.19566695  0.41666436  0.42339362  1  0  -0.850878  0  1.85025  0  0  -0.787625  0  2.049212  0  0  -0.810365  0  2.015405  0  0  -0.594264  -0.770699  0  2.073642  0
O  O116  1  0.07053527  0.65215793  0.37691577  1  0  -0.665162  0  2.035829  0  0  -0.599015  0  2.284921  0  0  -0.627931  0  2.273885  0  0  -0.327414  -0.577569  0  2.291333  0
O  O117  1  0.92946819  0.34784476  0.62308547  1  0  -0.665201  0  2.035738  0  0  -0.599039  0  2.284825  0  0  -0.627957  0  2.273787  0  0  -0.327432  -0.577591  0  2.291239  0
O  O118  1  0.11466253  0.91474700  0.42898262  1  0  -0.650912  0  2.039356  0  0  -0.590444  0  2.299802  0  0  -0.617  0  2.287747  0  0  -0.325903  -0.571375  0  2.30773  0
O  O119  1  0.88533564  0.08525470  0.57101774  1  0  -0.650957  0  2.039463  0  0  -0.590496  0  2.29994  0  0  -0.617054  0  2.287887  0  0  -0.325943  -0.571417  0  2.307867  0
O  O120  1  0.29416489  0.71730824  0.29606343  1  0  -0.593915  0  1.988453  0  0  -0.545493  0  2.221216  0  0  -0.570005  0  2.212346  0  0  -0.306137  -0.527922  0  2.227018  0
O  O121  1  0.70583887  0.28269149  0.70393675  1  0  -0.593945  0  1.98828  0  0  -0.54551  0  2.221035  0  0  -0.57002  0  2.212165  0  0  -0.306132  -0.527937  0  2.226841  0
O  O122  1  0.16012976  0.59914589  0.17318482  1  0  -0.359892  0  1.77496  0  0  -0.334524  0  1.982903  0  0  -0.346371  0  1.979088  0  0  -0.121211  -0.326971  0  1.985684  0
O  O123  1  0.83986929  0.40085779  0.82681649  1  0  -0.359904  0  1.775077  0  0  -0.334548  0  1.983009  0  0  -0.346395  0  1.979199  0  0  -0.121211  -0.326995  0  1.985797  0
O  O124  1  0.02516549  0.66340963  0.07480799  1  0  -0.381583  0  1.710289  0  0  -0.36842  0  1.907248  0  0  -0.378127  0  1.901573  0  0  -0.147584  -0.36217  0  1.911411  0
O  O125  1  0.97482941  0.33659208  0.92519510  1  0  -0.38163  0  1.710358  0  0  -0.368452  0  1.907318  0  0  -0.378154  0  1.901643  0  0  -0.147604  -0.362194  0  1.911476  0
O  O126  1  0.12137628  0.12360299  0.35014284  1  0  -0.643545  0  2.031448  0  0  -0.581401  0  2.297307  0  0  -0.608697  0  2.284253  0  0  -0.324236  -0.561879  0  2.305622  0
O  O127  1  0.87862162  0.87640168  0.64985720  1  0  -0.643589  0  2.031378  0  0  -0.581409  0  2.297226  0  0  -0.608713  0  2.284186  0  0  -0.324238  -0.561878  0  2.305532  0
O  O128  1  0.60354879  0.67535841  0.72779007  1  0  -0.564108  0  1.966137  0  0  -0.510352  0  2.187518  0  0  -0.531265  0  2.179052  0  0  -0.291906  -0.495959  0  2.192789  0
O  O129  1  0.39645186  0.32464032  0.27220743  1  0  -0.564054  0  1.966103  0  0  -0.510275  0  2.187464  0  0  -0.531191  0  2.178998  0  0  -0.291846  -0.495881  0  2.192733  0
O  O130  1  0.67787308  0.00129077  0.08428410  1  0  -0.556025  0  1.928344  0  0  -0.514912  0  2.152965  0  0  -0.536348  0  2.15009  0  0  -0.303913  -0.499591  0  2.154658  0
O  O131  1  0.32212811  0.99870108  0.91572173  1  0  -0.556042  0  1.92825  0  0  -0.514911  0  2.15288  0  0  -0.536344  0  2.149998  0  0  -0.303942  -0.499587  0  2.15456  0
