# generated using pymatgen
data_ZnH26C22(NO2)4
_symmetry_space_group_name_H-M   'P 1'
_cell_length_a   5.26632598
_cell_length_b   7.67724515
_cell_length_c   14.02293719
_cell_angle_alpha   99.14085757
_cell_angle_beta   100.76090286
_cell_angle_gamma   89.98287030
_symmetry_Int_Tables_number   1
_chemical_formula_structural   ZnH26C22(NO2)4
_chemical_formula_sum   'Zn1 H26 C22 N4 O8'
_cell_volume   549.66420810
_cell_formula_units_Z   1
loop_
 _symmetry_equiv_pos_site_id
 _symmetry_equiv_pos_as_xyz
  1  'x, y, z'
loop_
 _atom_site_type_symbol
 _atom_site_label
 _atom_site_symmetry_multiplicity
 _atom_site_fract_x
 _atom_site_fract_y
 _atom_site_fract_z
 _atom_site_occupancy
 _atom_site_hle17_bader_spin_density
 _atom_site_hle17_ddec_charge
 _atom_site_hle17_ddec_spin_density
 _atom_site_hle17_ddec_sum_bond_order
 _atom_site_hle17_magmom
 _atom_site_hse06_10hf_bader_spin_density
 _atom_site_hse06_10hf_ddec_charge
 _atom_site_hse06_10hf_ddec_spin_density
 _atom_site_hse06_10hf_ddec_sum_bond_order
 _atom_site_hse06_10hf_magmom
 _atom_site_hse06_bader_spin_density
 _atom_site_hse06_ddec_charge
 _atom_site_hse06_ddec_spin_density
 _atom_site_hse06_ddec_sum_bond_order
 _atom_site_hse06_magmom
 _atom_site_pbe_bader_spin_density
 _atom_site_pbe_cm5_charge
 _atom_site_pbe_ddec_charge
 _atom_site_pbe_ddec_spin_density
 _atom_site_pbe_ddec_sum_bond_order
 _atom_site_pbe_magmom
Zn  Zn0  1  0.73245617  0.50015879  0.99990838  1  0  1.034283  0  1.698052  0  0  0.846905  0  2.150217  0  0  0.894058  0  2.098391  0  0  0.679292  0.814043  0  2.185703  0
H  H1  1  0.40085180  0.78257869  0.29403806  1  0  0.378913  0  0.860816  0  0  0.358829  0  0.926534  0  0  0.367718  0  0.916543  0  0  0.314137  0.35253  0  0.93361  0
H  H2  1  0.10739374  0.21721010  0.70623406  1  0  0.379177  0  0.861136  0  0  0.359301  0  0.926717  0  0  0.368191  0  0.916715  0  0  0.314655  0.353003  0  0.933801  0
H  H3  1  0.28056818  0.42239813  0.89733386  1  0  0.308692  0  0.881556  0  0  0.295391  0  0.942893  0  0  0.302143  0  0.937723  0  0  0.298847  0.290524  0  0.946741  0
H  H4  1  0.38340590  0.57798460  0.10291576  1  0  0.309451  0  0.880954  0  0  0.295793  0  0.942297  0  0  0.302574  0  0.937095  0  0  0.298775  0.290913  0  0.946162  0
H  H5  1  0.49130321  0.34336353  0.83065427  1  0  0.307647  0  0.884367  0  0  0.298277  0  0.937723  0  0  0.304342  0  0.933542  0  0  0.302368  0.293961  0  0.940721  0
H  H6  1  0.66070395  0.65696793  0.16933839  1  0  0.307083  0  0.884925  0  0  0.297354  0  0.938665  0  0  0.303416  0  0.934518  0  0  0.301357  0.293033  0  0.941643  0
H  H7  1  0.28776708  0.84591437  0.85269489  1  0  0.300879  0  0.957881  0  0  0.280747  0  1.027358  0  0  0.289164  0  1.020763  0  0  0.299894  0.274801  0  1.032057  0
H  H8  1  0.43341094  0.15427096  0.14731696  1  0  0.301035  0  0.956762  0  0  0.28043  0  1.026933  0  0  0.288867  0  1.020332  0  0  0.300008  0.274476  0  1.031617  0
H  H9  1  0.37175240  0.17694086  0.99184822  1  0  0.095872  0  0.958431  0  0  0.1054  0  1.029257  0  0  0.107631  0  1.028678  0  0  0.111382  0.103751  0  1.029814  0
H  H10  1  0.37998364  0.82355541  0.00834969  1  0  0.094539  0  0.959032  0  0  0.104272  0  1.02997  0  0  0.106476  0  1.02936  0  0  0.110995  0.102637  0  1.03055  0
H  H11  1  0.55113042  0.08743198  0.90088717  1  0  0.094691  0  0.924502  0  0  0.110564  0  0.982823  0  0  0.112113  0  0.982542  0  0  0.114638  0.109391  0  0.983157  0
H  H12  1  0.64973055  0.91302498  0.09932197  1  0  0.094475  0  0.924344  0  0  0.110313  0  0.982899  0  0  0.111825  0  0.982597  0  0  0.114608  0.109156  0  0.983256  0
H  H13  1  0.73661858  0.89986051  0.76849196  1  0  0.081593  0  0.915116  0  0  0.089704  0  0.976113  0  0  0.092329  0  0.974022  0  0  0.118978  0.087772  0  0.97772  0
H  H14  1  0.96624439  0.10050438  0.23166008  1  0  0.080519  0  0.915329  0  0  0.089187  0  0.975688  0  0  0.09174  0  0.973675  0  0  0.118638  0.087273  0  0.977276  0
H  H15  1  0.46460787  0.57631862  0.58664090  1  0  0.089362  0  0.96123  0  0  0.099445  0  1.025174  0  0  0.101374  0  1.025626  0  0  0.096982  0.09802  0  1.024967  0
H  H16  1  0.87666489  0.42349536  0.41382090  1  0  0.088392  0  0.962787  0  0  0.099084  0  1.026075  0  0  0.100934  0  1.026625  0  0  0.097145  0.097638  0  1.025904  0
H  H17  1  0.13631426  0.63927664  0.71794750  1  0  0.098742  0  0.926301  0  0  0.11521  0  0.987048  0  0  0.117238  0  0.985672  0  0  0.101174  0.113681  0  0.98815  0
H  H18  1  0.41589421  0.36122771  0.28165262  1  0  0.099262  0  0.927491  0  0  0.115633  0  0.988177  0  0  0.117676  0  0.986767  0  0  0.100676  0.114087  0  0.989308  0
H  H19  1  0.82876240  0.54419231  0.71226884  1  0  0.082754  0  0.933698  0  0  0.09997  0  0.993934  0  0  0.101537  0  0.992527  0  0  0.096338  0.098761  0  0.995043  0
H  H20  1  0.11389760  0.45600370  0.28787347  1  0  0.082374  0  0.933802  0  0  0.099985  0  0.993499  0  0  0.101541  0  0.992111  0  0  0.096718  0.098786  0  0.994595  0
H  H21  1  0.30981937  0.63935379  0.41960147  1  0  0.097658  0  0.99192  0  0  0.109017  0  1.05445  0  0  0.111392  0  1.054349  0  0  0.099457  0.107343  0  1.054601  0
H  H22  1  0.88966770  0.35996503  0.58085035  1  0  0.098292  0  0.993106  0  0  0.109895  0  1.055121  0  0  0.112266  0  1.054995  0  0  0.099846  0.108221  0  1.055282  0
H  H23  1  0.02473403  0.91970090  0.43062259  1  0  0.109519  0  0.957249  0  0  0.119298  0  1.019397  0  0  0.121907  0  1.019638  0  0  0.101694  0.117436  0  1.019356  0
H  H24  1  0.59357825  0.07981567  0.56868726  1  0  0.109281  0  0.957045  0  0  0.118812  0  1.019495  0  0  0.12138  0  1.019819  0  0  0.100851  0.116869  0  1.019549  0
H  H25  1  0.17889601  0.86067265  0.60038989  1  0  0.094115  0  0.965025  0  0  0.104343  0  1.027535  0  0  0.106985  0  1.02643  0  0  0.097534  0.102429  0  1.028429  0
H  H26  1  0.57702324  0.13899415  0.39883873  1  0  0.095755  0  0.964244  0  0  0.106141  0  1.026556  0  0  0.108771  0  1.025503  0  0  0.098928  0.104227  0  1.027406  0
C  C27  1  0.78525723  0.71379390  0.86863304  1  0  0.627242  0  3.860315  0  0  0.577454  0  4.160608  0  0  0.60948  0  4.155299  0  0  0.20727  0.555744  0  4.163392  0
C  C28  1  0.91500721  0.28630875  0.13134693  1  0  0.625848  0  3.860823  0  0  0.57618  0  4.161076  0  0  0.608192  0  4.15575  0  0  0.206276  0.554487  0  4.163871  0
C  C29  1  0.13309484  0.09179098  0.85299491  1  0  0.559197  0  3.814275  0  0  0.514206  0  4.11342  0  0  0.542992  0  4.113183  0  0  0.235356  0.494761  0  4.112985  0
C  C30  1  0.27932526  0.90836748  0.14723291  1  0  0.557001  0  3.818634  0  0  0.513229  0  4.116674  0  0  0.542094  0  4.116314  0  0  0.233898  0.493716  0  4.116317  0
C  C31  1  0.83421315  0.71387332  0.60657695  1  0  0.058479  0  3.778053  0  0  0.076289  0  4.022438  0  0  0.074526  0  4.04733  0  0  -0.029103  0.077367  0  4.00549  0
C  C32  1  0.22619975  0.28601408  0.39329923  1  0  0.06089  0  3.776683  0  0  0.079388  0  4.020221  0  0  0.077589  0  4.045105  0  0  -0.027228  0.080466  0  4.003283  0
C  C33  1  0.38867687  0.17111937  0.91456127  1  0  -0.068334  0  3.652535  0  0  -0.12727  0  3.913799  0  0  -0.127542  0  3.922024  0  0  -0.072157  -0.127102  0  3.908216  0
C  C34  1  0.47382776  0.82926218  0.08561926  1  0  -0.065782  0  3.65303  0  0  -0.125766  0  3.914785  0  0  -0.125896  0  3.922881  0  0  -0.072012  -0.125677  0  3.909275  0
C  C35  1  0.88596019  0.80978882  0.79455050  1  0  0.05833  0  3.594118  0  0  0.038261  0  3.835015  0  0  0.038287  0  3.846539  0  0  0.01651  0.038204  0  3.827169  0
C  C36  1  0.08957019  0.19040010  0.20547387  1  0  0.061544  0  3.593832  0  0  0.041329  0  3.834008  0  0  0.041463  0  3.845561  0  0  0.017404  0.041226  0  3.826107  0
C  C37  1  0.66058849  0.77902219  0.41345768  1  0  0.311884  0  3.85181  0  0  0.30443  0  4.112941  0  0  0.314844  0  4.128626  0  0  0.0695  0.297203  0  4.102265  0
C  C38  1  0.24664168  0.22042629  0.58643561  1  0  0.314576  0  3.851541  0  0  0.307779  0  4.111902  0  0  0.318207  0  4.12761  0  0  0.073037  0.300549  0  4.101187  0
C  C39  1  0.58910042  0.65373225  0.55396935  1  0  -0.095909  0  3.768069  0  0  -0.113538  0  4.014471  0  0  -0.114195  0  4.036139  0  0  -0.093509  -0.112899  0  3.999729  0
C  C40  1  0.03393327  0.34595753  0.44624007  1  0  -0.096054  0  3.768951  0  0  -0.114339  0  4.015154  0  0  -0.114925  0  4.036914  0  0  -0.0943  -0.113692  0  4.000371  0
C  C41  1  0.92900268  0.66706920  0.70716341  1  0  -0.180183  0  3.651036  0  0  -0.230956  0  3.904598  0  0  -0.231061  0  3.914717  0  0  -0.152387  -0.230604  0  3.897497  0
C  C42  1  0.21969820  0.33317666  0.29272907  1  0  -0.182064  0  3.654953  0  0  -0.233208  0  3.908011  0  0  -0.23333  0  3.918229  0  0  -0.152832  -0.232859  0  3.900894  0
C  C43  1  0.50178562  0.68633107  0.45864425  1  0  -0.21168  0  3.799586  0  0  -0.229214  0  4.047647  0  0  -0.235381  0  4.069858  0  0  -0.110383  -0.225063  0  4.032639  0
C  C44  1  0.04234472  0.31311204  0.54154218  1  0  -0.214026  0  3.804056  0  0  -0.232007  0  4.052484  0  0  -0.238159  0  4.07465  0  0  -0.113056  -0.227856  0  4.037486  0
C  C45  1  0.90364910  0.84394458  0.46537239  1  0  -0.190917  0  3.747052  0  0  -0.208929  0  3.998653  0  0  -0.214381  0  4.018873  0  0  -0.108751  -0.205277  0  3.985041  0
C  C46  1  0.43739624  0.15553396  0.53414703  1  0  -0.191287  0  3.748113  0  0  -0.209024  0  3.99943  0  0  -0.214459  0  4.0197  0  0  -0.108995  -0.205306  0  3.985788  0
C  C47  1  0.98781973  0.81131674  0.56111904  1  0  -0.095688  0  3.748045  0  0  -0.11665  0  3.999272  0  0  -0.116835  0  4.019941  0  0  -0.093805  -0.116351  0  3.985176  0
C  C48  1  0.42544240  0.18833142  0.43840488  1  0  -0.098761  0  3.748572  0  0  -0.120406  0  4.000085  0  0  -0.120582  0  4.020749  0  0  -0.096034  -0.120086  0  3.985976  0
N  N49  1  0.44612885  0.35072890  0.89917167  1  0  -0.607267  0  3.143209  0  0  -0.550638  0  3.407569  0  0  -0.568756  0  3.401778  0  0  -0.618865  -0.538053  0  3.411489  0
N  N50  1  0.54693444  0.64964529  0.10089825  1  0  -0.6079  0  3.143331  0  0  -0.549767  0  3.407054  0  0  -0.567972  0  3.401286  0  0  -0.617149  -0.537134  0  3.410945  0
N  N51  1  0.11947017  0.91454097  0.83839086  1  0  -0.44603  0  3.324531  0  0  -0.393083  0  3.572573  0  0  -0.415046  0  3.581705  0  0  -0.421579  -0.378104  0  3.566049  0
N  N52  1  0.27952403  0.08559659  0.16165569  1  0  -0.446855  0  3.324943  0  0  -0.394092  0  3.573284  0  0  -0.416204  0  3.582511  0  0  -0.421856  -0.378987  0  3.566644  0
O  O53  1  0.94773968  0.63820274  0.92849232  1  0  -0.621795  0  1.987021  0  0  -0.541752  0  2.237235  0  0  -0.569855  0  2.22465  0  0  -0.319737  -0.522335  0  2.245384  0
O  O54  1  0.01803529  0.36189403  0.07152750  1  0  -0.621729  0  1.986426  0  0  -0.541907  0  2.23704  0  0  -0.570057  0  2.224505  0  0  -0.3191  -0.522523  0  2.245201  0
O  O55  1  0.54425663  0.70325840  0.86382093  1  0  -0.629854  0  2.010408  0  0  -0.576621  0  2.246677  0  0  -0.601251  0  2.238526  0  0  -0.316075  -0.559385  0  2.251651  0
O  O56  1  0.67876494  0.29676420  0.13608621  1  0  -0.629411  0  2.011472  0  0  -0.576139  0  2.247659  0  0  -0.60077  0  2.239562  0  0  -0.316168  -0.55888  0  2.252559  0
O  O57  1  0.95278858  0.18822286  0.82342086  1  0  -0.593497  0  1.889306  0  0  -0.550076  0  2.109716  0  0  -0.570023  0  2.101002  0  0  -0.323453  -0.536315  0  2.115448  0
O  O58  1  0.12893403  0.81182065  0.17690012  1  0  -0.592095  0  1.890975  0  0  -0.549269  0  2.110979  0  0  -0.569184  0  2.102149  0  0  -0.322144  -0.535517  0  2.116757  0
O  O59  1  0.58665391  0.80892805  0.31844550  1  0  -0.530924  0  2.127923  0  0  -0.481033  0  2.337969  0  0  -0.498129  0  2.328527  0  0  -0.361658  -0.468661  0  2.344071  0
O  O60  1  0.26840142  0.19057001  0.68149150  1  0  -0.531302  0  2.12727  0  0  -0.482165  0  2.337019  0  0  -0.499273  0  2.327604  0  0  -0.362827  -0.469819  0  2.34316  0
