# generated using pymatgen
data_Zn2H14C14N12O
_symmetry_space_group_name_H-M   'P 1'
_cell_length_a   10.44878900
_cell_length_b   12.29122570
_cell_length_c   17.59489508
_cell_angle_alpha   90.00032303
_cell_angle_beta   96.52637159
_cell_angle_gamma   90.00043211
_symmetry_Int_Tables_number   1
_chemical_formula_structural   Zn2H14C14N12O
_chemical_formula_sum   'Zn8 H56 C56 N48 O4'
_cell_volume   2245.04108752
_cell_formula_units_Z   4
loop_
 _symmetry_equiv_pos_site_id
 _symmetry_equiv_pos_as_xyz
  1  'x, y, z'
loop_
 _atom_site_type_symbol
 _atom_site_label
 _atom_site_symmetry_multiplicity
 _atom_site_fract_x
 _atom_site_fract_y
 _atom_site_fract_z
 _atom_site_occupancy
 _atom_site_pbe_bader_charge
 _atom_site_pbe_bader_spin_density
 _atom_site_pbe_cm5_charge
 _atom_site_pbe_ddec_charge
 _atom_site_pbe_ddec_spin_density
 _atom_site_pbe_ddec_sum_bond_order
 _atom_site_pbe_magmom
Zn  Zn0  1  0.73738437  0.73606972  0.60715705  1  1.19343  0  0.739009  0.659445  0  2.53055  0
Zn  Zn1  1  0.76261443  0.23606874  0.89284164  1  1.193432  0  0.738957  0.659374  0  2.530717  0
Zn  Zn2  1  0.26261046  0.26392972  0.39284345  1  1.193269  0  0.738971  0.659426  0  2.530611  0
Zn  Zn3  1  0.23738230  0.76392907  0.10715671  1  1.193419  0  0.73896  0.659469  0  2.530608  0
Zn  Zn4  1  0.20948267  0.74786525  0.45127052  1  1.205233  0  0.74741  0.676212  0  2.48068  0
Zn  Zn5  1  0.29051859  0.24786575  0.04872954  1  1.205268  0  0.747384  0.676239  0  2.480636  0
Zn  Zn6  1  0.79051311  0.25213663  0.54872891  1  1.205249  0  0.747425  0.676287  0  2.480623  0
Zn  Zn7  1  0.70948104  0.75213613  0.95127013  1  1.205259  0  0.747384  0.676232  0  2.480586  0
H  H8  1  0.11302062  0.58351782  0.29859622  1  0.107184  0  0.102288  0.15786  0  1.004956  0
H  H9  1  0.38697903  0.08351854  0.20140309  1  0.107197  0  0.102279  0.157849  0  1.004996  0
H  H10  1  0.88697807  0.41648081  0.70140510  1  0.107175  0  0.102292  0.157853  0  1.004977  0
H  H11  1  0.61302060  0.91648090  0.79859658  1  0.107197  0  0.102287  0.157833  0  1.004992  0
H  H12  1  0.07840078  0.63030273  0.20297104  1  0.068728  0  0.095979  0.135483  0  1.036842  0
H  H13  1  0.42160029  0.13030607  0.29702797  1  0.068751  0  0.095963  0.135483  0  1.036785  0
H  H14  1  0.92159788  0.36969427  0.79702800  1  0.06876  0  0.095957  0.135489  0  1.036767  0
H  H15  1  0.57839647  0.86969581  0.70297265  1  0.068825  0  0.095966  0.135462  0  1.036789  0
H  H16  1  0.99772753  0.68575529  0.27856316  1  0.104179  0  0.105087  0.167577  0  0.986013  0
H  H17  1  0.50227316  0.18575940  0.22143553  1  0.104174  0  0.105089  0.167577  0  0.985969  0
H  H18  1  0.00227210  0.31424497  0.72143651  1  0.104183  0  0.105089  0.167565  0  0.986025  0
H  H19  1  0.49772359  0.81424492  0.77856509  1  0.104409  0  0.105068  0.167573  0  0.98595  0
H  H20  1  0.50524218  0.94523263  0.35738672  1  0.108267  0  0.122742  0.155883  0  0.934763  0
H  H21  1  0.99476205  0.44523356  0.14261607  1  0.108295  0  0.122749  0.155917  0  0.934707  0
H  H22  1  0.49475751  0.05476356  0.64261750  1  0.108213  0  0.122766  0.155935  0  0.93473  0
H  H23  1  0.00523271  0.55476507  0.85737932  1  0.108245  0  0.122745  0.155897  0  0.934731  0
H  H24  1  0.36769718  0.99312098  0.39729419  1  0.088773  0  0.107813  0.126529  0  0.9952  0
H  H25  1  0.13230551  0.49312253  0.10270694  1  0.088747  0  0.107808  0.126507  0  0.995239  0
H  H26  1  0.63230050  0.00687602  0.60270421  1  0.088551  0  0.107809  0.126555  0  0.995143  0
H  H27  1  0.86769314  0.50687691  0.89729153  1  0.088732  0  0.107808  0.126487  0  0.995228  0
H  H28  1  0.34615601  0.63968018  0.60262876  1  0.093679  0  0.101262  0.152636  0  1.01219  0
H  H29  1  0.15384662  0.13967854  0.89737088  1  0.093657  0  0.101254  0.152629  0  1.012179  0
H  H30  1  0.65384175  0.36032414  0.39737534  1  0.093659  0  0.101235  0.15262  0  1.012181  0
H  H31  1  0.84615490  0.86032253  0.10262606  1  0.093668  0  0.101268  0.152643  0  1.012117  0
H  H32  1  0.33225927  0.76333602  0.65215271  1  0.059097  0  0.109257  0.164263  0  0.96177  0
H  H33  1  0.16773976  0.26333814  0.84784834  1  0.059112  0  0.109258  0.164294  0  0.961732  0
H  H34  1  0.66773461  0.23666342  0.34784887  1  0.059243  0  0.109295  0.164325  0  0.961771  0
H  H35  1  0.83226467  0.73666130  0.15215050  1  0.059152  0  0.109248  0.164289  0  0.961861  0
H  H36  1  0.47746263  0.68718467  0.66795599  1  0.032323  0  0.096095  0.134315  0  1.035642  0
H  H37  1  0.02253758  0.18718573  0.83204425  1  0.032274  0  0.096075  0.134282  0  1.035649  0
H  H38  1  0.52252935  0.31281477  0.33204717  1  0.032234  0  0.096108  0.134337  0  1.035596  0
H  H39  1  0.97746777  0.81281452  0.16795123  1  0.032278  0  0.096081  0.134288  0  1.035588  0
H  H40  1  0.86734859  0.01065114  0.63605420  1  0.068797  0  0.096785  0.142426  0  1.015574  0
H  H41  1  0.63266256  0.51065596  0.86395347  1  0.069775  0  0.096793  0.142463  0  1.015644  0
H  H42  1  0.13265784  0.98934586  0.36395044  1  0.069869  0  0.096779  0.142462  0  1.015539  0
H  H43  1  0.36733905  0.48934429  0.13605088  1  0.069831  0  0.096758  0.142432  0  1.015584  0
H  H44  1  0.03553272  0.01277695  0.66668327  1  0.062962  0  0.108091  0.160242  0  0.967264  0
H  H45  1  0.46447933  0.51278364  0.83332158  1  0.063042  0  0.108044  0.160236  0  0.967382  0
H  H46  1  0.96447367  0.98721679  0.33331853  1  0.06297  0  0.108056  0.16019  0  0.967335  0
H  H47  1  0.53552224  0.48721905  0.16667935  1  0.063043  0  0.108042  0.160215  0  0.967401  0
H  H48  1  0.93340392  0.91614636  0.70633219  1  0.05621  0  0.09724  0.141195  0  1.005483  0
H  H49  1  0.56660631  0.41615472  0.79367136  1  0.056222  0  0.097294  0.141257  0  1.005446  0
H  H50  1  0.06660057  0.08385064  0.29367177  1  0.056301  0  0.097261  0.141212  0  1.005484  0
H  H51  1  0.43339717  0.58385042  0.20632799  1  0.056307  0  0.097274  0.141234  0  1.005459  0
H  H52  1  0.66481366  0.42047798  0.67898182  1  0.082006  0  0.100224  0.144603  0  1.032699  0
H  H53  1  0.83519654  0.92047398  0.82101606  1  0.081982  0  0.100235  0.144667  0  1.032754  0
H  H54  1  0.33518979  0.57952390  0.32101525  1  0.081941  0  0.100223  0.144656  0  1.03278  0
H  H55  1  0.16480602  0.07952708  0.17898721  1  0.081882  0  0.100252  0.144696  0  1.032755  0
H  H56  1  0.53967184  0.41560713  0.60219488  1  0.064205  0  0.106275  0.160906  0  0.96369  0
H  H57  1  0.96033450  0.91560536  0.89780614  1  0.064244  0  0.10628  0.160895  0  0.963601  0
H  H58  1  0.46032874  0.58439475  0.39780371  1  0.064331  0  0.106298  0.160933  0  0.963673  0
H  H59  1  0.03966999  0.08439489  0.10219724  1  0.064313  0  0.106315  0.160952  0  0.96364  0
H  H60  1  0.58066608  0.54116612  0.64962799  1  0.056916  0  0.099257  0.142464  0  1.025826  0
H  H61  1  0.91934238  0.04116337  0.85037167  1  0.056836  0  0.099245  0.142413  0  1.02585  0
H  H62  1  0.41933545  0.45883576  0.35037009  1  0.056925  0  0.099258  0.142459  0  1.025785  0
H  H63  1  0.08066114  0.95883689  0.14963166  1  0.056898  0  0.099255  0.14246  0  1.025772  0
C  C64  1  0.08998413  0.65573579  0.26297589  1  -0.105744  0  -0.236847  -0.480679  0  3.939249  0
C  C65  1  0.41001623  0.15573856  0.23702318  1  -0.106129  0  -0.236806  -0.48065  0  3.939182  0
C  C66  1  0.91001550  0.34426203  0.73702378  1  -0.106104  0  -0.236807  -0.480637  0  3.939196  0
C  C67  1  0.58998052  0.84426332  0.76297687  1  -0.106498  0  -0.236787  -0.480584  0  3.939085  0
C  C68  1  0.19211266  0.73995315  0.27529044  1  0.968945  0  0.210147  0.372212  0  4.03202  0
C  C69  1  0.30788757  0.23995599  0.22470952  1  0.969075  0  0.210185  0.372241  0  4.032015  0
C  C70  1  0.80788891  0.26004385  0.72470992  1  0.969305  0  0.210212  0.37229  0  4.032014  0
C  C71  1  0.69210628  0.76004426  0.77528978  1  0.969296  0  0.210186  0.372299  0  4.03199  0
C  C72  1  0.33651001  0.85214116  0.32609657  1  0.96662  0  0.205744  0.324668  0  4.021335  0
C  C73  1  0.16349227  0.35214348  0.17390397  1  0.966602  0  0.20569  0.324584  0  4.021472  0
C  C74  1  0.66349251  0.14785339  0.67390328  1  0.966605  0  0.205731  0.32469  0  4.021355  0
C  C75  1  0.83650253  0.64785596  0.82609426  1  0.966579  0  0.205665  0.324616  0  4.021373  0
C  C76  1  0.42000203  0.91890311  0.38348435  1  -0.032836  0  -0.136824  -0.320927  0  3.939815  0
C  C77  1  0.08000093  0.41890362  0.11651821  1  -0.032878  0  -0.136875  -0.32101  0  3.939893  0
C  C78  1  0.57999569  0.08109389  0.61651634  1  -0.032648  0  -0.136884  -0.321045  0  3.939774  0
C  C79  1  0.91999676  0.58109582  0.88348020  1  -0.032783  0  -0.13686  -0.320907  0  3.939791  0
C  C80  1  0.46212746  0.86153090  0.45703871  1  1.004768  0  0.208094  0.338556  0  4.020504  0
C  C81  1  0.03787301  0.36153299  0.04296346  1  1.004972  0  0.208189  0.338707  0  4.020342  0
C  C82  1  0.53786738  0.13846772  0.54296236  1  1.004781  0  0.208214  0.338735  0  4.020377  0
C  C83  1  0.96212947  0.63847051  0.95703355  1  1.004848  0  0.208141  0.338539  0  4.020471  0
C  C84  1  0.45121761  0.77290303  0.56148092  1  0.969321  0  0.213391  0.383203  0  4.009546  0
C  C85  1  0.04878248  0.27290349  0.93851966  1  0.969341  0  0.21334  0.383298  0  4.009418  0
C  C86  1  0.54877626  0.22709641  0.43852009  1  0.969611  0  0.213474  0.383412  0  4.009226  0
C  C87  1  0.95122193  0.72709839  0.06147747  1  0.969611  0  0.213453  0.383324  0  4.009305  0
C  C88  1  0.39975075  0.71213049  0.62447715  1  -0.043271  0  -0.231131  -0.467929  0  3.936899  0
C  C89  1  0.10024875  0.21212915  0.87552372  1  -0.043192  0  -0.231096  -0.467941  0  3.936809  0
C  C90  1  0.60024504  0.28786895  0.37552341  1  -0.043213  0  -0.231157  -0.46801  0  3.936707  0
C  C91  1  0.89975279  0.78786785  0.12447436  1  -0.043132  0  -0.23115  -0.467985  0  3.93678  0
C  C92  1  0.95168553  0.95955522  0.65405425  1  -0.040407  0  -0.227562  -0.453356  0  3.924893  0
C  C93  1  0.54832223  0.45956144  0.84594874  1  -0.041332  0  -0.227551  -0.453399  0  3.92521  0
C  C94  1  0.04831702  0.04043934  0.34594787  1  -0.041618  0  -0.227485  -0.453278  0  3.924986  0
C  C95  1  0.45167933  0.54043962  0.15405105  1  -0.041453  0  -0.227488  -0.453303  0  3.925151  0
C  C96  1  0.97590570  0.88142533  0.59290287  1  0.959911  0  0.219233  0.388756  0  3.981061  0
C  C97  1  0.52409742  0.38143027  0.90709781  1  0.959691  0  0.219281  0.388691  0  3.981205  0
C  C98  1  0.02409298  0.11857004  0.40709844  1  0.960061  0  0.2192  0.388662  0  3.981179  0
C  C99  1  0.47590220  0.61856836  0.09290072  1  0.959785  0  0.219256  0.38867  0  3.981221  0
C  C100  1  0.95339626  0.75023460  0.51225777  1  0.95783  0  0.206107  0.20087  0  4.021474  0
C  C101  1  0.54660554  0.25023301  0.98773890  1  0.958364  0  0.206151  0.200956  0  4.021523  0
C  C102  1  0.04660142  0.24976646  0.48773950  1  0.957883  0  0.206182  0.201075  0  4.021574  0
C  C103  1  0.45339698  0.74976806  0.01226095  1  0.958394  0  0.206168  0.201041  0  4.021459  0
C  C104  1  0.91273815  0.65284368  0.46661633  1  1.009427  0  0.168727  0.270569  0  4.062533  0
C  C105  1  0.58726129  0.15284194  0.03338385  1  1.009472  0  0.168662  0.270415  0  4.062649  0
C  C106  1  0.08725949  0.34715820  0.53337809  1  1.009276  0  0.168626  0.270481  0  4.062493  0
C  C107  1  0.41273836  0.84715994  0.96661696  1  1.009385  0  0.168767  0.270611  0  4.062246  0
C  C108  1  0.83386919  0.57041240  0.50066189  1  0.977469  0  0.198306  0.195165  0  4.02918  0
C  C109  1  0.66613373  0.07041329  0.99933413  1  0.977474  0  0.198308  0.195221  0  4.029387  0
C  C110  1  0.16612848  0.42958785  0.49933538  1  0.977418  0  0.198263  0.195001  0  4.029517  0
C  C111  1  0.33386978  0.92958859  0.00066806  1  0.977554  0  0.198243  0.195078  0  4.029603  0
C  C112  1  0.71384602  0.48930730  0.57400527  1  0.993301  0  0.220972  0.38817  0  3.971427  0
C  C113  1  0.78615906  0.98930384  0.92599142  1  0.993061  0  0.221027  0.388195  0  3.971344  0
C  C114  1  0.28615261  0.51069621  0.42599149  1  0.993376  0  0.221075  0.388307  0  3.971484  0
C  C115  1  0.21384445  0.01069886  0.07401077  1  0.99346  0  0.221097  0.388293  0  3.971285  0
C  C116  1  0.61963773  0.46540480  0.62912586  1  -0.063151  0  -0.228434  -0.461143  0  3.925212  0
C  C117  1  0.88036905  0.96540313  0.87087141  1  -0.063134  0  -0.228441  -0.461107  0  3.925109  0
C  C118  1  0.38036187  0.53459708  0.37087153  1  -0.063482  0  -0.228491  -0.46125  0  3.925343  0
C  C119  1  0.11963446  0.03459794  0.12913078  1  -0.063492  0  -0.22851  -0.461278  0  3.925213  0
N  N120  1  0.89570149  0.79763838  0.56898789  1  -1.238522  0  -0.352055  -0.377802  0  3.460863  0
N  N121  1  0.60430271  0.29763995  0.93101025  1  -1.238615  0  -0.352119  -0.377823  0  3.460833  0
N  N122  1  0.10429910  0.20236024  0.43101184  1  -1.238516  0  -0.35208  -0.377861  0  3.460825  0
N  N123  1  0.39569787  0.70235867  0.06898834  1  -1.238559  0  -0.352119  -0.377946  0  3.460896  0
N  N124  1  0.07960084  0.88494678  0.55465370  1  -0.62975  0  -0.233512  -0.270868  0  3.098431  0
N  N125  1  0.42040516  0.38494723  0.94534770  1  -0.629607  0  -0.233545  -0.270857  0  3.098598  0
N  N126  1  0.92039979  0.11505266  0.44534887  1  -0.629812  0  -0.233538  -0.270826  0  3.098511  0
N  N127  1  0.57959542  0.61505139  0.05465090  1  -0.629731  0  -0.233543  -0.270861  0  3.098463  0
N  N128  1  0.06392287  0.80214680  0.50320500  1  -0.771584  0  -0.247233  -0.194427  0  3.582909  0
N  N129  1  0.43607939  0.30214452  0.99679299  1  -0.772076  0  -0.247234  -0.194429  0  3.583039  0
N  N130  1  0.93607581  0.19785426  0.49679574  1  -0.771556  0  -0.247246  -0.194509  0  3.582933  0
N  N131  1  0.56392216  0.69785573  0.00320680  1  -0.772112  0  -0.247241  -0.194429  0  3.582986  0
N  N132  1  0.75633474  0.58892884  0.55731879  1  -1.265763  0  -0.353621  -0.391647  0  3.459301  0
N  N133  1  0.74366836  0.08892570  0.94267675  1  -1.265742  0  -0.353659  -0.391709  0  3.459492  0
N  N134  1  0.24366290  0.41107385  0.44267621  1  -1.26569  0  -0.35362  -0.3917  0  3.459414  0
N  N135  1  0.25633614  0.91107618  0.05732721  1  -1.265753  0  -0.35366  -0.391793  0  3.45952  0
N  N136  1  0.84076973  0.46498430  0.48341342  1  -0.652514  0  -0.216834  -0.213701  0  3.186938  0
N  N137  1  0.65923269  0.96498568  0.01658308  1  -0.652263  0  -0.216833  -0.213693  0  3.187222  0
N  N138  1  0.15922986  0.53501433  0.51658340  1  -0.652377  0  -0.216851  -0.213665  0  3.187188  0
N  N139  1  0.34076793  0.03501620  0.98341892  1  -0.65235  0  -0.21687  -0.2137  0  3.187199  0
N  N140  1  0.76628616  0.41389903  0.53086048  1  -0.77084  0  -0.252905  -0.252525  0  3.508183  0
N  N141  1  0.73371627  0.91389802  0.96913687  1  -0.770938  0  -0.252948  -0.252595  0  3.508375  0
N  N142  1  0.23371344  0.58610366  0.46913691  1  -0.770839  0  -0.252955  -0.252547  0  3.508288  0
N  N143  1  0.26628435  0.08610467  0.03086513  1  -0.770927  0  -0.252907  -0.252511  0  3.508369  0
N  N144  1  0.57491467  0.79989583  0.55733461  1  -0.828685  0  -0.281182  -0.287161  0  3.586567  0
N  N145  1  0.92508668  0.29989792  0.94266506  1  -0.82863  0  -0.281161  -0.28721  0  3.586421  0
N  N146  1  0.42507921  0.20010280  0.44266697  1  -0.828752  0  -0.281204  -0.287296  0  3.586539  0
N  N147  1  0.07491963  0.70010315  0.05733048  1  -0.828653  0  -0.281296  -0.287368  0  3.586489  0
N  N148  1  0.58258088  0.85666372  0.49008463  1  -0.720579  0  -0.260489  -0.298999  0  3.143755  0
N  N149  1  0.91742056  0.35666390  0.00991763  1  -0.72081  0  -0.260466  -0.298968  0  3.143721  0
N  N150  1  0.41741301  0.14333328  0.50991752  1  -0.720712  0  -0.260481  -0.298945  0  3.143624  0
N  N151  1  0.08258289  0.64333472  0.99007943  1  -0.720778  0  -0.260358  -0.298767  0  3.143598  0
N  N152  1  0.37733286  0.81077508  0.49913082  1  -1.238576  0  -0.372608  -0.430085  0  3.457693  0
N  N153  1  0.12266807  0.31077575  0.00087061  1  -1.238549  0  -0.372623  -0.430221  0  3.457642  0
N  N154  1  0.62266197  0.18922354  0.50087026  1  -1.238751  0  -0.372741  -0.430379  0  3.457755  0
N  N155  1  0.87733445  0.68922288  0.99912924  1  -1.238808  0  -0.372649  -0.430157  0  3.457679  0
N  N156  1  0.24042292  0.78309981  0.34359755  1  -1.252722  0  -0.368274  -0.435254  0  3.469634  0
N  N157  1  0.25957965  0.28310341  0.15640330  1  -1.252462  0  -0.368294  -0.435248  0  3.469627  0
N  N158  1  0.75957863  0.21690045  0.65640224  1  -1.252688  0  -0.368284  -0.435329  0  3.469687  0
N  N159  1  0.74041709  0.71689765  0.84359619  1  -1.252599  0  -0.368212  -0.435234  0  3.469675  0
N  N160  1  0.34690734  0.85431806  0.25169685  1  -0.698736  0  -0.25643  -0.287929  0  3.146054  0
N  N161  1  0.15309303  0.35431847  0.24830358  1  -0.698785  0  -0.256418  -0.287894  0  3.146119  0
N  N162  1  0.65309613  0.14567894  0.74830249  1  -0.699003  0  -0.256457  -0.287924  0  3.146172  0
N  N163  1  0.84690079  0.64568178  0.75169402  1  -0.699008  0  -0.256483  -0.287968  0  3.146102  0
N  N164  1  0.25449576  0.78257866  0.21965038  1  -0.82632  0  -0.277774  -0.276204  0  3.589668  0
N  N165  1  0.24550295  0.28257992  0.28034966  1  -0.826296  0  -0.277755  -0.276184  0  3.589635  0
N  N166  1  0.74550869  0.21741590  0.78034959  1  -0.826029  0  -0.277811  -0.27626  0  3.589709  0
N  N167  1  0.75448801  0.71741871  0.71964947  1  -0.826134  0  -0.277773  -0.276283  0  3.589797  0
O  O168  1  0.95322942  0.63847558  0.40405966  1  -1.079613  0  -0.251803  -0.383558  0  2.168885  0
O  O169  1  0.54677374  0.13847571  0.09594184  1  -1.079608  0  -0.251707  -0.383439  0  2.168944  0
O  O170  1  0.04677796  0.36152630  0.59594391  1  -1.079427  0  -0.251734  -0.383509  0  2.168597  0
O  O171  1  0.45322976  0.86152861  0.90405921  1  -1.079561  0  -0.251785  -0.383573  0  2.168663  0
