# generated using pymatgen
data_ZnH14C17NO4
_symmetry_space_group_name_H-M   'P 1'
_cell_length_a   5.07182867
_cell_length_b   14.25497436
_cell_length_c   13.33314031
_cell_angle_alpha   96.71893054
_cell_angle_beta   84.13664262
_cell_angle_gamma   101.57592305
_symmetry_Int_Tables_number   1
_chemical_formula_structural   ZnH14C17NO4
_chemical_formula_sum   'Zn2 H28 C34 N2 O8'
_cell_volume   934.80488373
_cell_formula_units_Z   2
loop_
 _symmetry_equiv_pos_site_id
 _symmetry_equiv_pos_as_xyz
  1  'x, y, z'
loop_
 _atom_site_type_symbol
 _atom_site_label
 _atom_site_symmetry_multiplicity
 _atom_site_fract_x
 _atom_site_fract_y
 _atom_site_fract_z
 _atom_site_occupancy
 _atom_site_pbe_bader_charge
 _atom_site_pbe_bader_spin_density
 _atom_site_pbe_cm5_charge
 _atom_site_pbe_ddec_charge
 _atom_site_pbe_ddec_spin_density
 _atom_site_pbe_ddec_sum_bond_order
 _atom_site_pbe_magmom
Zn  Zn0  1  0.28405602  0.05417113  0.49398010  1  1.337935  0  0.685951  0.946573  0  2.246835  0
Zn  Zn1  1  0.71595335  0.94583269  0.50601598  1  1.337853  0  0.685925  0.94655  0  2.246958  0
H  H2  1  0.86042103  0.84244414  0.26721747  1  0.090168  0  0.106961  0.116997  0  0.988442  0
H  H3  1  0.59239406  0.69416677  0.18068398  1  0.053144  0  0.098501  0.09997  0  1.003257  0
H  H4  1  0.01151706  0.51979375  0.32558392  1  0.068545  0  0.100253  0.103544  0  1.013641  0
H  H5  1  0.28507367  0.66855950  0.40925492  1  0.108312  0  0.107718  0.115274  0  0.99207  0
H  H6  1  0.55178078  0.45530771  0.25313385  1  0.035464  0  0.109986  0.097295  0  0.97127  0
H  H7  1  0.44425350  0.52307768  0.16699533  1  0.021221  0  0.089912  0.060537  0  1.022194  0
H  H8  1  0.75265096  0.33404079  0.01656042  1  0.023479  0  0.110086  0.095999  0  0.976954  0
H  H9  1  0.44673735  0.34728837  0.08700277  1  0.001932  0  0.094449  0.068915  0  0.998579  0
H  H10  1  0.06803094  0.39288298  0.21898379  1  0.047449  0  0.093635  0.081732  0  1.086156  0
H  H11  1  0.17123271  0.28387625  0.33898167  1  0.090993  0  0.105302  0.110905  0  0.997634  0
H  H12  1  0.48860660  0.07071343  0.24881787  1  0.109266  0  0.105735  0.11513  0  0.991777  0
H  H13  1  0.38783124  0.17851837  0.12958535  1  0.038422  0  0.10023  0.103028  0  0.997255  0
H  H14  1  0.91329448  0.58983447  0.05748127  1  0.034305  0  0.100623  0.076011  0  1.01629  0
H  H15  1  0.71293144  0.50385569  0.97624383  1  0.015579  0  0.087823  0.056369  0  1.030561  0
H  H16  1  0.13955609  0.15755595  0.73278964  1  0.089957  0  0.106963  0.116919  0  0.988563  0
H  H17  1  0.40759878  0.30583125  0.81931910  1  0.05309  0  0.098473  0.099949  0  1.003289  0
H  H18  1  0.98849142  0.48020510  0.67442145  1  0.068363  0  0.100258  0.103509  0  1.01381  0
H  H19  1  0.71492069  0.33144358  0.59075243  1  0.108368  0  0.107728  0.115287  0  0.99209  0
H  H20  1  0.44822540  0.54469109  0.74686475  1  0.035526  0  0.109985  0.097291  0  0.97125  0
H  H21  1  0.55575606  0.47692188  0.83300710  1  0.021138  0  0.089912  0.060502  0  1.022172  0
H  H22  1  0.24735388  0.66596374  0.98343951  1  0.023315  0  0.110097  0.095987  0  0.976942  0
H  H23  1  0.55326977  0.65272048  0.91299684  1  0.001886  0  0.094442  0.06889  0  0.998565  0
H  H24  1  0.93197451  0.60711723  0.78101269  1  0.047969  0  0.093639  0.081678  0  1.086196  0
H  H25  1  0.82877499  0.71611893  0.66101128  1  0.091253  0  0.105294  0.110902  0  0.997618  0
H  H26  1  0.51139123  0.92928024  0.75117195  1  0.109357  0  0.105739  0.115064  0  0.99192  0
H  H27  1  0.61217010  0.82148036  0.87040874  1  0.0385  0  0.100235  0.103044  0  0.99727  0
H  H28  1  0.08673859  0.41016816  0.94252817  1  0.034105  0  0.100545  0.075854  0  1.016281  0
H  H29  1  0.28710534  0.49615480  0.02375887  1  0.015499  0  0.087781  0.056277  0  1.030686  0
C  C30  1  0.24653920  0.85185700  0.39668057  1  1.543747  0  0.221296  0.604024  0  4.130374  0
C  C31  1  0.08999809  0.76417951  0.34263856  1  -0.063212  0  -0.020722  -0.047413  0  3.975474  0
C  C32  1  0.89514202  0.77149798  0.27819796  1  -0.034213  0  -0.083449  -0.077468  0  3.968467  0
C  C33  1  0.74603922  0.68841859  0.23019839  1  -0.009346  0  -0.092199  -0.143854  0  3.998262  0
C  C34  1  0.78601590  0.59722821  0.24681329  1  -0.054501  0  -0.00721  0.100887  0  3.977737  0
C  C35  1  0.98106950  0.59065199  0.31177023  1  -0.064018  0  -0.092544  -0.140739  0  3.986536  0
C  C36  1  0.13308883  0.67305730  0.35881888  1  -0.008397  0  -0.082169  -0.082372  0  3.982209  0
C  C37  1  0.62535693  0.50666089  0.19623308  1  0.297539  0  -0.065349  -0.116663  0  3.964999  0
C  C38  1  0.66809003  0.35803064  0.09242483  1  0.342463  0  -0.060028  -0.108919  0  3.957697  0
C  C39  1  0.72396948  0.29293414  0.16655674  1  -0.042173  0  -0.007157  0.102654  0  3.958913  0
C  C40  1  0.94336228  0.32195263  0.22627872  1  -0.003781  0  -0.100488  -0.155723  0  4.018601  0
C  C41  1  0.00017435  0.26171125  0.29269739  1  -0.064166  0  -0.084567  -0.081147  0  3.98742  0
C  C42  1  0.83655951  0.17072796  0.30092503  1  0.011746  0  -0.024221  -0.053599  0  3.980196  0
C  C43  1  0.61654923  0.14109930  0.24136116  1  -0.070879  0  -0.08091  -0.072403  0  3.963412  0
C  C44  1  0.56146227  0.20172431  0.17477928  1  -0.016403  0  -0.094517  -0.144713  0  3.992136  0
C  C45  1  0.89718355  0.10724118  0.37298580  1  1.519477  0  0.222527  0.60734  0  4.124813  0
C  C46  1  0.87286320  0.51313382  0.02919991  1  0.323894  0  -0.073208  -0.0892  0  3.970599  0
C  C47  1  0.75345466  0.14814603  0.60332075  1  1.543705  0  0.221273  0.603984  0  4.1305  0
C  C48  1  0.90999456  0.23581851  0.65736527  1  -0.06163  0  -0.0207  -0.047399  0  3.975443  0
C  C49  1  0.10483760  0.22850357  0.72181003  1  -0.033989  0  -0.083372  -0.077239  0  3.968253  0
C  C50  1  0.25395049  0.31158302  0.76980882  1  -0.009922  0  -0.092307  -0.143998  0  3.998251  0
C  C51  1  0.21398426  0.40277345  0.75319164  1  -0.054295  0  -0.007108  0.100988  0  3.977847  0
C  C52  1  0.01892386  0.40934534  0.68823729  1  -0.063866  0  -0.0926  -0.140865  0  3.986742  0
C  C53  1  0.86689101  0.32694139  0.64119033  1  -0.009555  0  -0.082132  -0.082256  0  3.982166  0
C  C54  1  0.37464420  0.49333717  0.80376847  1  0.297552  0  -0.065371  -0.116603  0  3.964897  0
C  C55  1  0.33190407  0.64197021  0.90757100  1  0.342678  0  -0.059965  -0.108857  0  3.95785  0
C  C56  1  0.27602940  0.70705956  0.83343684  1  -0.042578  0  -0.007202  0.102666  0  3.958897  0
C  C57  1  0.05664217  0.67804324  0.77371281  1  -0.003402  0  -0.100455  -0.155574  0  4.018707  0
C  C58  1  0.99982734  0.73828607  0.70730032  1  -0.065082  0  -0.084514  -0.081157  0  3.987375  0
C  C59  1  0.16344594  0.82927225  0.69907145  1  0.011672  0  -0.024276  -0.053667  0  3.980048  0
C  C60  1  0.38345862  0.85889661  0.75863262  1  -0.070836  0  -0.080891  -0.072222  0  3.963395  0
C  C61  1  0.43853367  0.79827298  0.82521769  1  -0.016363  0  -0.094576  -0.14487  0  3.992036  0
C  C62  1  0.10280810  0.89275463  0.62700952  1  1.519038  0  0.22252  0.607287  0  4.124706  0
C  C63  1  0.12716605  0.48687376  0.97080327  1  0.295487  0  -0.07306  -0.088805  0  3.970328  0
N  N64  1  0.78954039  0.45887685  0.11688555  1  -1.00905  0  -0.338476  -0.129831  0  3.509299  0
N  N65  1  0.21046321  0.54112553  0.88311492  1  -1.009126  0  -0.338483  -0.129913  0  3.509365  0
O  O66  1  0.16141985  0.93099832  0.39882324  1  -1.17264  0  -0.312749  -0.583284  0  2.405391  0
O  O67  1  0.45256561  0.84147232  0.43857604  1  -1.154255  0  -0.303352  -0.523971  0  2.341584  0
O  O68  1  0.12333672  0.13207731  0.41202590  1  -1.158158  0  -0.303832  -0.524767  0  2.343354  0
O  O69  1  0.71849185  0.03237275  0.39153896  1  -1.175501  0  -0.313847  -0.587149  0  2.415076  0
O  O70  1  0.83857362  0.06900757  0.60117762  1  -1.17251  0  -0.312717  -0.583279  0  2.405543  0
O  O71  1  0.54742955  0.15853069  0.56142001  1  -1.154389  0  -0.303386  -0.524015  0  2.341511  0
O  O72  1  0.87665627  0.86792569  0.58797091  1  -1.157831  0  -0.303834  -0.524756  0  2.343455  0
O  O73  1  0.28150143  0.96762236  0.60845629  1  -1.175335  0  -0.313852  -0.587117  0  2.414908  0
