# generated using pymatgen
data_TbH13C13O9
_symmetry_space_group_name_H-M   'P 1'
_cell_length_a   11.90203816
_cell_length_b   12.34377992
_cell_length_c   12.47300000
_cell_angle_alpha   90.00000000
_cell_angle_beta   98.97409600
_cell_angle_gamma   90.00000000
_symmetry_Int_Tables_number   1
_chemical_formula_structural   TbH13C13O9
_chemical_formula_sum   'Tb4 H52 C52 O36'
_cell_volume   1810.05349741
_cell_formula_units_Z   4
loop_
 _symmetry_equiv_pos_site_id
 _symmetry_equiv_pos_as_xyz
  1  'x, y, z'
loop_
 _atom_site_type_symbol
 _atom_site_label
 _atom_site_symmetry_multiplicity
 _atom_site_fract_x
 _atom_site_fract_y
 _atom_site_fract_z
 _atom_site_occupancy
 _atom_site_hle17_bader_spin_density
 _atom_site_hle17_ddec_charge
 _atom_site_hle17_ddec_spin_density
 _atom_site_hle17_ddec_sum_bond_order
 _atom_site_hle17_magmom
 _atom_site_hse06_10hf_bader_spin_density
 _atom_site_hse06_10hf_ddec_charge
 _atom_site_hse06_10hf_ddec_spin_density
 _atom_site_hse06_10hf_ddec_sum_bond_order
 _atom_site_hse06_10hf_magmom
 _atom_site_hse06_bader_spin_density
 _atom_site_hse06_ddec_charge
 _atom_site_hse06_ddec_spin_density
 _atom_site_hse06_ddec_sum_bond_order
 _atom_site_hse06_magmom
 _atom_site_pbe_bader_charge
 _atom_site_pbe_bader_spin_density
 _atom_site_pbe_cm5_charge
 _atom_site_pbe_ddec_charge
 _atom_site_pbe_ddec_spin_density
 _atom_site_pbe_ddec_sum_bond_order
 _atom_site_pbe_magmom
Tb  Tb0  1  0.37477039  0.44538707  0.13021719  1  0  2.25509  0  1.698371  0  0  2.117208  0  2.166401  0  0  2.232975  0  1.997945  0  2.177067  0  1.546332  2.078315  0  2.203551  0
Tb  Tb1  1  0.62522919  0.94538870  0.86978227  1  0  2.255093  0  1.698379  0  0  2.117211  0  2.166407  0  0  2.232983  0  1.997951  0  2.177014  0  1.546345  2.078336  0  2.203532  0
Tb  Tb2  1  0.63817794  0.22972461  0.18224361  1  0  2.313843  0  1.678891  0  0  2.188391  0  2.12328  0  0  2.290517  0  1.976407  0  2.198577  0  1.547827  2.144415  0  2.17382  0
Tb  Tb3  1  0.36182164  0.72972542  0.81775584  1  0  2.313873  0  1.678857  0  0  2.188402  0  2.123274  0  0  2.290553  0  1.976365  0  2.198606  0  1.547856  2.144434  0  2.173799  0
H  H4  1  0.31771184  0.40822666  0.46930614  1  0  0.142018  0  0.920098  0  0  0.15239  0  0.976354  0  0  0.15745  0  0.972353  0  0.128753  0  0.119381  0.148822  0  0.979174  0
H  H5  1  0.68228859  0.90822747  0.53069424  1  0  0.14198  0  0.920079  0  0  0.152381  0  0.976307  0  0  0.157441  0  0.972305  0  0.128736  0  0.119391  0.148813  0  0.979127  0
H  H6  1  0.48099729  0.33579989  0.79615867  1  0  0.121529  0  0.995464  0  0  0.131589  0  1.059254  0  0  0.135036  0  1.056922  0  0.104416  0  0.111184  0.129314  0  1.060482  0
H  H7  1  0.51900315  0.83579909  0.20384172  1  0  0.121542  0  0.995475  0  0  0.131597  0  1.059273  0  0  0.135049  0  1.056927  0  0.10442  0  0.111192  0.129323  0  1.060501  0
H  H8  1  0.65963784  0.28006494  0.52807155  1  0  0.120668  0  0.943191  0  0  0.132432  0  1.001192  0  0  0.137327  0  0.996833  0  0.07392  0  0.112229  0.128996  0  1.004284  0
H  H9  1  0.34036344  0.78006575  0.47192896  1  0  0.120676  0  0.943216  0  0  0.132465  0  1.001186  0  0  0.13736  0  0.996826  0  0.073932  0  0.112239  0.129029  0  1.00428  0
H  H10  1  0.30271228  0.29934672  0.79714004  1  0  0.065324  0  0.923299  0  0  0.073532  0  0.985759  0  0  0.074903  0  0.984478  0  0.059532  0  0.114379  0.07254  0  0.986622  0
H  H11  1  0.69728815  0.79934591  0.20286034  1  0  0.065316  0  0.923279  0  0  0.07353  0  0.985741  0  0  0.0749  0  0.98446  0  0.059527  0  0.114377  0.072538  0  0.986603  0
H  H12  1  0.10232177  0.34010814  0.73745915  1  0  0.125958  0  0.923377  0  0  0.146964  0  0.980502  0  0  0.148924  0  0.979936  0  0.05107  0  0.100053  0.145539  0  0.980947  0
H  H13  1  0.89767781  0.84010814  0.26254191  1  0  0.125996  0  0.923366  0  0  0.146999  0  0.980487  0  0  0.148959  0  0.97992  0  0.051072  0  0.100078  0.145574  0  0.980931  0
H  H14  1  0.12401388  0.48046223  0.77150974  1  0  0.118076  0  0.945387  0  0  0.139687  0  1.004457  0  0  0.141815  0  1.003135  0  0.051466  0  0.096436  0.138181  0  1.005322  0
H  H15  1  0.87598570  0.98046304  0.22849052  1  0  0.118136  0  0.945386  0  0  0.139735  0  1.004453  0  0  0.141863  0  1.003131  0  0.051453  0  0.096456  0.138229  0  1.005317  0
H  H16  1  0.14162565  0.38023118  0.87589181  1  0  0.133232  0  0.934605  0  0  0.154626  0  0.992229  0  0  0.155958  0  0.992878  0  0.082726  0  0.104954  0.15365  0  0.991787  0
H  H17  1  0.85837478  0.88023118  0.12410858  1  0  0.133241  0  0.93463  0  0  0.154633  0  0.99225  0  0  0.155964  0  0.992899  0  0.082725  0  0.104948  0.153656  0  0.991809  0
H  H18  1  0.65213126  0.37659939  0.85984927  1  0  0.056631  0  0.925989  0  0  0.067048  0  0.986553  0  0  0.068253  0  0.985441  0  0.083528  0  0.113306  0.066241  0  0.987247  0
H  H19  1  0.34786832  0.87659939  0.14014939  1  0  0.05663  0  0.925975  0  0  0.067049  0  0.986529  0  0  0.068254  0  0.985416  0  0.083531  0  0.113292  0.066243  0  0.987222  0
H  H20  1  0.85539171  0.36959343  0.84956210  1  0  0.12309  0  0.943817  0  0  0.142521  0  1.004116  0  0  0.14468  0  1.003103  0  0.072573  0  0.096049  0.140958  0  1.004839  0
H  H21  1  0.14460872  0.86959344  0.15043749  1  0  0.123058  0  0.943807  0  0  0.142482  0  1.004118  0  0  0.14464  0  1.003105  0  0.072582  0  0.096026  0.140919  0  1.00484  0
H  H22  1  0.86033883  0.22751135  0.87339315  1  0  0.112145  0  0.975644  0  0  0.132257  0  1.037255  0  0  0.132803  0  1.038689  0  0.062654  0  0.091921  0.131843  0  1.036189  0
H  H23  1  0.13966161  0.72751135  0.12660724  1  0  0.11213  0  0.975624  0  0  0.132238  0  1.037246  0  0  0.132784  0  1.03868  0  0.062657  0  0.091909  0.131824  0  1.03618  0
H  H24  1  0.83058298  0.31828176  0.97719464  1  0  0.11654  0  0.950292  0  0  0.135353  0  1.014544  0  0  0.136814  0  1.014588  0  0.045459  0  0.098965  0.134311  0  1.01451  0
H  H25  1  0.16941660  0.81828095  0.02280482  1  0  0.116563  0  0.950304  0  0  0.135378  0  1.014551  0  0  0.136839  0  1.014595  0  0.045473  0  0.098981  0.134336  0  1.014518  0
H  H26  1  0.00877143  0.53403658  0.91648640  1  0  0.114411  0  0.964697  0  0  0.123345  0  1.031417  0  0  0.127666  0  1.027963  0  0.094476  0  0.107417  0.120284  0  1.033858  0
H  H27  1  0.99122900  0.03403739  0.08351399  1  0  0.114429  0  0.964702  0  0  0.123373  0  1.031409  0  0  0.127694  0  1.027955  0  0.094475  0  0.107422  0.120312  0  1.03385  0
H  H28  1  0.70362345  0.60713412  0.04792424  1  0  0.127765  0  0.957886  0  0  0.139171  0  1.017814  0  0  0.143108  0  1.014963  0  0.068482  0  0.112608  0.136417  0  1.019761  0
H  H29  1  0.29637698  0.10713250  0.95207615  1  0  0.127711  0  0.957934  0  0  0.139172  0  1.0178  0  0  0.143091  0  1.014972  0  0.06844  0  0.1126  0.136418  0  1.019747  0
H  H30  1  0.02119792  0.56218274  0.26351042  1  0  0.137455  0  0.918037  0  0  0.146775  0  0.97589  0  0  0.151715  0  0.972067  0  0.087288  0  0.116517  0.143254  0  0.97865  0
H  H31  1  0.97880252  0.06218274  0.73648996  1  0  0.137455  0  0.918075  0  0  0.146754  0  0.975943  0  0  0.151694  0  0.972122  0  0.087297  0  0.11652  0.143234  0  0.978702  0
H  H32  1  0.63498477  0.62503869  0.19610569  1  0  0.058989  0  0.922347  0  0  0.065933  0  0.986517  0  0  0.067967  0  0.984478  0  0.075236  0  0.109623  0.064464  0  0.988082  0
H  H33  1  0.36501566  0.12503868  0.80389470  1  0  0.058967  0  0.922368  0  0  0.065909  0  0.986542  0  0  0.067943  0  0.984502  0  0.075224  0  0.10961  0.064441  0  0.988106  0
H  H34  1  0.68081279  0.66135981  0.39691969  1  0  0.119557  0  0.948702  0  0  0.139538  0  1.010052  0  0  0.140829  0  1.010665  0  0.068194  0  0.095021  0.138604  0  1.009628  0
H  H35  1  0.31918764  0.16135981  0.60307989  1  0  0.119556  0  0.948705  0  0  0.139539  0  1.010054  0  0  0.14083  0  1.010667  0  0.068193  0  0.09502  0.138604  0  1.009631  0
H  H36  1  0.71384006  0.52110618  0.41904569  1  0  0.12183  0  0.924008  0  0  0.143308  0  0.979374  0  0  0.145147  0  0.978788  0  0.037529  0  0.099045  0.141991  0  0.979736  0
H  H37  1  0.28616037  0.02110618  0.58095389  1  0  0.121834  0  0.924007  0  0  0.143312  0  0.979373  0  0  0.145151  0  0.978786  0  0.037529  0  0.099044  0.141995  0  0.979734  0
H  H38  1  0.57212085  0.56276117  0.36415736  1  0  0.121691  0  0.943532  0  0  0.141655  0  1.004477  0  0  0.142488  0  1.005843  0  0.079953  0  0.101579  0.140921  0  1.003794  0
H  H39  1  0.42787959  0.06276116  0.63584303  1  0  0.121691  0  0.943518  0  0  0.141654  0  1.004463  0  0  0.142488  0  1.00583  0  0.079954  0  0.101573  0.14092  0  1.00378  0
H  H40  1  0.62908753  0.54861801  0.88042953  1  0  0.060694  0  0.912447  0  0  0.069657  0  0.974075  0  0  0.071838  0  0.97157  0  0.070235  0  0.114314  0.068132  0  0.975801  0
H  H41  1  0.37091205  0.04861720  0.11957073  1  0  0.060682  0  0.912468  0  0  0.069645  0  0.974108  0  0  0.071826  0  0.971602  0  0.070228  0  0.1143  0.06812  0  0.975834  0
H  H42  1  0.67305953  0.50512971  0.69194860  1  0  0.119607  0  0.95342  0  0  0.14019  0  1.0135  0  0  0.14158  0  1.013921  0  0.061491  0  0.095832  0.139165  0  1.013241  0
H  H43  1  0.32694090  0.00512971  0.30805179  1  0  0.119559  0  0.953445  0  0  0.140162  0  1.013506  0  0  0.141553  0  1.013926  0  0.061485  0  0.095821  0.139138  0  1.013248  0
H  H44  1  0.69949547  0.64552512  0.67305821  1  0  0.122137  0  0.92048  0  0  0.145984  0  0.972078  0  0  0.14768  0  0.971682  0  0.046205  0  0.100614  0.144788  0  0.972274  0
H  H45  1  0.30050496  0.14552431  0.32694217  1  0  0.122149  0  0.920447  0  0  0.14599  0  0.972054  0  0  0.147684  0  0.971661  0  0.046219  0  0.100622  0.144794  0  0.972249  0
H  H46  1  0.56055177  0.60030720  0.68975915  1  0  0.115753  0  0.955472  0  0  0.132958  0  1.022208  0  0  0.133886  0  1.023658  0  0.0697  0  0.099047  0.132091  0  1.021633  0
H  H47  1  0.43944781  0.10030639  0.31024111  1  0  0.115753  0  0.955467  0  0  0.132956  0  1.022205  0  0  0.133884  0  1.023654  0  0.069687  0  0.099048  0.132089  0  1.021629  0
H  H48  1  0.82143728  0.11758635  0.07648594  1  0  0.448116  0  0.850666  0  0  0.415186  0  0.917636  0  0  0.426607  0  0.901326  0  0.650056  0  0.30166  0.407351  0  0.928853  0
H  H49  1  0.17856230  0.61758635  0.92351432  1  0  0.448123  0  0.850652  0  0  0.415195  0  0.917621  0  0  0.426616  0  0.90131  0  0.650057  0  0.301665  0.407359  0  0.928839  0
H  H50  1  0.89224841  0.20435961  0.15684560  1  0  0.454548  0  0.790454  0  0  0.44377  0  0.826551  0  0  0.451399  0  0.816093  0  0.644256  0  0.346957  0.438595  0  0.833775  0
H  H51  1  0.10775203  0.70435961  0.84315478  1  0  0.454554  0  0.790463  0  0  0.443776  0  0.826546  0  0  0.451405  0  0.816088  0  0.644261  0  0.346957  0.438602  0  0.83377  0
H  H52  1  0.73947048  0.06793786  0.34985181  1  0  0.431759  0  0.856851  0  0  0.399464  0  0.921358  0  0  0.410084  0  0.905856  0  0.61494  0  0.308891  0.39206  0  0.932249  0
H  H53  1  0.26052910  0.56793786  0.65014845  1  0  0.43175  0  0.856868  0  0  0.399454  0  0.921374  0  0  0.410075  0  0.905873  0  0.614941  0  0.3089  0.392051  0  0.932266  0
H  H54  1  0.69640863  0.17201457  0.40365944  1  0  0.433264  0  0.837078  0  0  0.409744  0  0.895385  0  0  0.419457  0  0.881108  0  0.61428  0  0.317202  0.40285  0  0.905651  0
H  H55  1  0.30359096  0.67201457  0.59634002  1  0  0.433231  0  0.837014  0  0  0.409704  0  0.895418  0  0  0.419418  0  0.88114  0  0.614283  0  0.317193  0.402809  0  0.905684  0
C  C56  1  0.48780893  0.34160201  0.48751490  1  0  -0.027607  0  3.824355  0  0  -0.003373  0  4.056666  0  0  -0.006589  0  4.077268  0  -0.063844  0  -0.017401  -0.000913  0  4.041696  0
C  C57  1  0.51219066  0.84160282  0.51248455  1  0  -0.027602  0  3.82439  0  0  -0.003358  0  4.056682  0  0  -0.006581  0  4.077286  0  -0.063848  0  -0.017407  -0.000898  0  4.041711  0
C  C58  1  0.39070136  0.37949802  0.52574729  1  0  -0.209221  0  3.711721  0  0  -0.249819  0  3.969949  0  0  -0.253691  0  3.98526  0  0.031336  0  -0.106674  -0.247101  0  3.959268  0
C  C59  1  0.60929907  0.87949802  0.47425389  1  0  -0.209118  0  3.711639  0  0  -0.249756  0  3.969855  0  0  -0.253631  0  3.985164  0  0.031331  0  -0.106659  -0.247037  0  3.959171  0
C  C60  1  0.38865991  0.37593590  0.63708457  1  0  0.293508  0  3.826672  0  0  0.283861  0  4.097344  0  0  0.295827  0  4.11239  0  0.393762  0  0.081337  0.275639  0  4.086967  0
C  C61  1  0.61134137  0.87593590  0.36291594  1  0  0.293476  0  3.826756  0  0  0.283853  0  4.097389  0  0  0.295828  0  4.112424  0  0.393851  0  0.081344  0.275629  0  4.087015  0
C  C62  1  0.48283970  0.33883138  0.70957890  1  0  -0.322689  0  3.718728  0  0  -0.355553  0  3.980464  0  0  -0.363693  0  3.998532  0  -0.068318  0  -0.120798  -0.349896  0  3.967982  0
C  C63  1  0.51716074  0.83883219  0.29042148  1  0  -0.322718  0  3.718807  0  0  -0.355587  0  3.980519  0  0  -0.363732  0  3.998584  0  -0.06839  0  -0.120837  -0.349932  0  3.968038  0
C  C64  1  0.58096543  0.30620766  0.66915540  1  0  0.310013  0  3.843689  0  0  0.299719  0  4.112531  0  0  0.312772  0  4.12645  0  0.520155  0  0.089374  0.290688  0  4.102949  0
C  C65  1  0.41903500  0.80620848  0.33084418  1  0  0.30994  0  3.843718  0  0  0.299646  0  4.112579  0  0  0.312705  0  4.126491  0  0.520187  0  0.089329  0.290618  0  4.102995  0
C  C66  1  0.58253480  0.30495116  0.55788655  1  0  -0.20311  0  3.732971  0  0  -0.242793  0  3.98861  0  0  -0.247046  0  4.004354  0  0.011396  0  -0.105074  -0.239823  0  3.977744  0
C  C67  1  0.41746564  0.80495035  0.44211303  1  0  -0.203137  0  3.733052  0  0  -0.242843  0  3.988675  0  0  -0.247096  0  4.004416  0  0.011359  0  -0.105096  -0.239874  0  3.977809  0
C  C68  1  0.49166727  0.34030257  0.36915310  1  0  0.72824  0  3.854757  0  0  0.685405  0  4.137163  0  0  0.720726  0  4.129139  0  1.587605  0  0.241377  0.661883  0  4.143389  0
C  C69  1  0.50833146  0.84030419  0.63084703  1  0  0.728229  0  3.85475  0  0  0.685417  0  4.137122  0  0  0.720743  0  4.129095  0  1.587595  0  0.241415  0.661897  0  4.143345  0
C  C70  1  0.27773428  0.38429476  0.78111635  1  0  0.102178  0  3.604589  0  0  0.082868  0  3.854272  0  0  0.086239  0  3.860721  0  0.437707  0  0.008682  0.080717  0  3.849028  0
C  C71  1  0.72226615  0.88429477  0.21888323  1  0  0.102295  0  3.60447  0  0  0.082943  0  3.854176  0  0  0.086316  0  3.860627  0  0.437646  0  0.008713  0.080792  0  3.848931  0
C  C72  1  0.35747250  0.45466867  0.86175853  1  0  0.715191  0  3.825766  0  0  0.670067  0  4.121062  0  0  0.704441  0  4.113493  0  1.610333  0  0.238859  0.646839  0  4.128135  0
C  C73  1  0.64252708  0.95466705  0.13824012  1  0  0.715079  0  3.825905  0  0  0.669984  0  4.121178  0  0  0.704352  0  4.113619  0  1.610406  0  0.238807  0.646756  0  4.128252  0
C  C74  1  0.15307479  0.39758405  0.79204880  1  0  -0.329192  0  3.656879  0  0  -0.416562  0  3.90172  0  0  -0.418714  0  3.908693  0  -0.071219  0  -0.239282  -0.414711  0  3.896523  0
C  C75  1  0.84692565  0.89758486  0.20795078  1  0  -0.329294  0  3.656893  0  0  -0.416646  0  3.901736  0  0  -0.418799  0  3.908708  0  -0.07122  0  -0.239307  -0.414794  0  3.896539  0
C  C76  1  0.69101239  0.29776940  0.84591483  1  0  0.10788  0  3.623773  0  0  0.08871  0  3.871544  0  0  0.091873  0  3.878234  0  0.453624  0  0.010523  0.086625  0  3.866107  0
C  C77  1  0.30898804  0.79776860  0.15408556  1  0  0.107872  0  3.623788  0  0  0.088747  0  3.871531  0  0  0.091916  0  3.878224  0  0.453643  0  0.010541  0.086667  0  3.866098  0
C  C78  1  0.62866478  0.21318591  0.90479938  1  0  0.718895  0  3.816459  0  0  0.673706  0  4.109582  0  0  0.708557  0  4.101466  0  1.606164  0  0.240569  0.65021  0  4.116735  0
C  C79  1  0.37133565  0.71318592  0.09520020  1  0  0.718859  0  3.816578  0  0  0.673625  0  4.109757  0  0  0.708464  0  4.101662  0  1.606238  0  0.2405  0.650111  0  4.116931  0
C  C80  1  0.81760871  0.30288210  0.88963450  1  0  -0.328985  0  3.664604  0  0  -0.415295  0  3.906923  0  0  -0.417148  0  3.914846  0  -0.09396  0  -0.244579  -0.413628  0  3.901057  0
C  C81  1  0.18239172  0.80288210  0.11036509  1  0  -0.328964  0  3.664573  0  0  -0.415271  0  3.906889  0  0  -0.417121  0  3.914808  0  -0.093994  0  -0.244563  -0.413604  0  3.901023  0
C  C82  1  0.02830982  0.54862611  0.09156813  1  0  -0.021083  0  3.825504  0  0  0.005814  0  4.057558  0  0  0.003125  0  4.077834  0  0.042962  0  -0.018381  0.007868  0  4.043281  0
C  C83  1  0.97168976  0.04862611  0.90843213  1  0  -0.021047  0  3.825425  0  0  0.005832  0  4.057486  0  0  0.003151  0  4.077749  0  0.042835  0  -0.018376  0.007886  0  4.043208  0
C  C84  1  0.96753626  0.55136028  0.98645656  1  0  -0.214153  0  3.729096  0  0  -0.254474  0  3.98619  0  0  -0.258651  0  4.002554  0  -0.011596  0  -0.109218  -0.25155  0  3.974932  0
C  C85  1  0.03246417  0.05136028  0.01354383  1  0  -0.214177  0  3.7291  0  0  -0.254504  0  3.98619  0  0  -0.258683  0  4.002553  0  -0.011592  0  -0.109218  -0.251581  0  3.974934  0
C  C86  1  0.85100429  0.57266818  0.97068488  1  0  0.310084  0  3.826926  0  0  0.302635  0  4.092265  0  0  0.315283  0  4.106869  0  0.441301  0  0.08678  0.293925  0  4.082172  0
C  C87  1  0.14899614  0.07266737  0.02931551  1  0  0.310012  0  3.827023  0  0  0.302551  0  4.092366  0  0  0.315195  0  4.106974  0  0.441308  0  0.086752  0.29384  0  4.082274  0
C  C88  1  0.79454542  0.59068616  0.05959932  1  0  -0.311889  0  3.696697  0  0  -0.344275  0  3.950746  0  0  -0.352026  0  3.967709  0  -0.024876  0  -0.117507  -0.338879  0  3.939025  0
C  C89  1  0.20545501  0.09068535  0.94040026  1  0  -0.311841  0  3.696668  0  0  -0.344257  0  3.950708  0  0  -0.351992  0  3.967683  0  -0.024835  0  -0.117503  -0.338861  0  3.938987  0
C  C90  1  0.85744762  0.58735088  0.16475387  1  0  0.301022  0  3.820454  0  0  0.294556  0  4.087686  0  0  0.306444  0  4.103029  0  0.474788  0  0.084593  0.286411  0  4.077042  0
C  C91  1  0.14255196  0.08735007  0.83524639  1  0  0.301088  0  3.820417  0  0  0.29458  0  4.0877  0  0  0.306469  0  4.103039  0  0.474772  0  0.084594  0.286434  0  4.077056  0
C  C92  1  0.97404254  0.56676804  0.18157637  1  0  -0.187228  0  3.690385  0  0  -0.228747  0  3.946893  0  0  -0.232321  0  3.961914  0  -0.010485  0  -0.098858  -0.226255  0  3.936524  0
C  C93  1  0.02595790  0.06676804  0.81842402  1  0  -0.187231  0  3.690395  0  0  -0.228704  0  3.946898  0  0  -0.232279  0  3.961917  0  -0.010348  0  -0.098851  -0.226212  0  3.936527  0
C  C94  1  0.15203705  0.52370020  0.10716091  1  0  0.642334  0  3.90992  0  0  0.596846  0  4.197241  0  0  0.629184  0  4.195933  0  1.507701  0  0.199196  0.574338  0  4.201898  0
C  C95  1  0.84796253  0.02370020  0.89283774  1  0  0.642319  0  3.909917  0  0  0.596834  0  4.197244  0  0  0.629169  0  4.195936  0  1.507702  0  0.199183  0.574329  0  4.201899  0
C  C96  1  0.69203312  0.57164661  0.25079297  1  0  0.113489  0  3.622326  0  0  0.093764  0  3.878141  0  0  0.097045  0  3.884287  0  0.450989  0  0.008341  0.091535  0  3.873434  0
C  C97  1  0.30796732  0.07164742  0.74920742  1  0  0.11349  0  3.622302  0  0  0.09378  0  3.87812  0  0  0.097058  0  3.884275  0  0.450996  0  0.00832  0.091551  0  3.873414  0
C  C98  1  0.67443411  0.45568781  0.20832172  1  0  0.657406  0  3.860758  0  0  0.610847  0  4.163221  0  0  0.643221  0  4.16218  0  1.531626  0  0.208616  0.58882  0  4.167179  0
C  C99  1  0.32556547  0.95568781  0.79167854  1  0  0.65748  0  3.860686  0  0  0.610874  0  4.163214  0  0  0.64325  0  4.162174  0  1.531639  0  0.208625  0.588847  0  4.167174  0
C  C100  1  0.66290076  0.57919374  0.36527334  1  0  -0.325226  0  3.655193  0  0  -0.408841  0  3.897108  0  0  -0.411155  0  3.90553  0  -0.083031  0  -0.237001  -0.406842  0  3.890976  0
C  C101  1  0.33709967  0.07919373  0.63472625  1  0  -0.325218  0  3.655154  0  0  -0.408836  0  3.897069  0  0  -0.41115  0  3.905493  0  -0.083026  0  -0.236984  -0.406837  0  3.890938  0
C  C102  1  0.68312218  0.60098933  0.83787676  1  0  0.115211  0  3.632792  0  0  0.091187  0  3.893054  0  0  0.094796  0  3.899048  0  0.451623  0  0.011083  0.088874  0  3.888293  0
C  C103  1  0.31687825  0.10098932  0.16212282  1  0  0.115211  0  3.632788  0  0  0.091147  0  3.893084  0  0  0.094752  0  3.899082  0  0.451533  0  0.011096  0.088833  0  3.888324  0
C  C104  1  0.66264303  0.71815198  0.86816370  1  0  0.655404  0  3.866916  0  0  0.611047  0  4.165208  0  0  0.643196  0  4.164387  0  1.541053  0  0.207357  0.588888  0  4.170004  0
C  C105  1  0.33735655  0.21815117  0.13183576  1  0  0.65547  0  3.866886  0  0  0.611136  0  4.165147  0  0  0.643284  0  4.164323  0  1.541084  0  0.207386  0.588975  0  4.169943  0
C  C106  1  0.65188118  0.58737437  0.71520930  1  0  -0.3225  0  3.650896  0  0  -0.406387  0  3.894593  0  0  -0.408716  0  3.902972  0  -0.068208  0  -0.234187  -0.40445  0  3.888566  0
C  C107  1  0.34811925  0.08737356  0.28479028  1  0  -0.322463  0  3.650862  0  0  -0.406365  0  3.894577  0  0  -0.408691  0  3.902958  0  -0.068189  0  -0.234186  -0.404428  0  3.888549  0
O  O108  1  0.56815533  0.28115051  0.33721899  1  0  -0.780499  0  2.105488  0  0  -0.725528  0  2.353156  0  0  -0.760525  0  2.341473  0  -1.210284  0  -0.409297  -0.705203  0  2.35963  0
O  O109  1  0.43184596  0.78115132  0.66278153  1  0  -0.780442  0  2.105542  0  0  -0.725485  0  2.353225  0  0  -0.760487  0  2.341535  0  -1.210269  0  -0.40927  -0.705162  0  2.359697  0
O  O110  1  0.41972059  0.39757514  0.30816983  1  0  -0.724684  0  2.042885  0  0  -0.675681  0  2.289976  0  0  -0.710698  0  2.275523  0  -1.201457  0  -0.403513  -0.657904  0  2.297089  0
O  O111  1  0.58027644  0.89758081  0.69182844  1  0  -0.724716  0  2.042808  0  0  -0.675729  0  2.289903  0  0  -0.710747  0  2.275445  0  -1.201473  0  -0.403569  -0.657955  0  2.297014  0
O  O112  1  0.28924976  0.41010371  0.67062323  1  0  -0.31195  0  2.300645  0  0  -0.238346  0  2.518553  0  0  -0.255689  0  2.518375  0  -1.063226  0  -0.171959  -0.225935  0  2.51811  0
O  O113  1  0.71074982  0.91010453  0.32937622  1  0  -0.312018  0  2.300681  0  0  -0.238384  0  2.518558  0  0  -0.255731  0  2.518377  0  -1.063228  0  -0.171981  -0.225971  0  2.518115  0
O  O114  1  0.38779230  0.54687057  0.83217631  1  0  -0.758145  0  2.067913  0  0  -0.713035  0  2.336665  0  0  -0.746693  0  2.320196  0  -1.211058  0  -0.41568  -0.694391  0  2.346216  0
O  O115  1  0.61220814  0.04687138  0.16782327  1  0  -0.75815  0  2.067886  0  0  -0.713055  0  2.336633  0  0  -0.746709  0  2.320171  0  -1.211036  0  -0.41569  -0.694409  0  2.346186  0
O  O116  1  0.38998345  0.41317733  0.95403216  1  0  -0.715789  0  2.042267  0  0  -0.672592  0  2.306731  0  0  -0.706932  0  2.290287  0  -1.198957  0  -0.409024  -0.655284  0  2.315286  0
O  O117  1  0.61001698  0.91317733  0.04596822  1  0  -0.715706  0  2.042393  0  0  -0.672519  0  2.306843  0  0  -0.706853  0  2.290402  0  -1.198982  0  -0.408981  -0.655218  0  2.315407  0
O  O118  1  0.68047000  0.27770181  0.73216331  1  0  -0.280466  0  2.309564  0  0  -0.214728  0  2.533677  0  0  -0.2314  0  2.534093  0  -1.072374  0  -0.168142  -0.202733  0  2.532719  0
O  O119  1  0.31953043  0.77770262  0.26783628  1  0  -0.280387  0  2.309576  0  0  -0.214692  0  2.53371  0  0  -0.231368  0  2.534131  0  -1.072364  0  -0.16809  -0.202697  0  2.532752  0
O  O120  1  0.62138276  0.23715183  0.00191638  1  0  -0.744146  0  2.099526  0  0  -0.699609  0  2.371052  0  0  -0.733715  0  2.353839  0  -1.209157  0  -0.42313  -0.680462  0  2.380406  0
O  O121  1  0.37861853  0.73715102  0.99808413  1  0  -0.744088  0  2.099646  0  0  -0.699518  0  2.37117  0  0  -0.733641  0  2.353994  0  -1.209233  0  -0.423047  -0.680366  0  2.38053  0
O  O122  1  0.58845330  0.12819088  0.85628615  1  0  -0.735275  0  2.029459  0  0  -0.691612  0  2.292684  0  0  -0.726941  0  2.275778  0  -1.20381  0  -0.405279  -0.67414  0  2.301587  0
O  O123  1  0.41154713  0.62819007  0.14371344  1  0  -0.735311  0  2.029449  0  0  -0.691634  0  2.292689  0  0  -0.726956  0  2.275792  0  -1.203896  0  -0.405296  -0.674153  0  2.301602  0
O  O124  1  0.20556304  0.49773814  0.19943502  1  0  -0.65224  0  1.929865  0  0  -0.611107  0  2.154817  0  0  -0.640358  0  2.143439  0  -1.155215  0  -0.371298  -0.59572  0  2.161701  0
O  O125  1  0.79443739  0.99773814  0.80056537  1  0  -0.652243  0  1.929884  0  0  -0.611112  0  2.154836  0  0  -0.640362  0  2.143458  0  -1.155235  0  -0.371305  -0.595728  0  2.161718  0
O  O126  1  0.20510286  0.52792257  0.02384500  1  0  -0.742728  0  2.048191  0  0  -0.679953  0  2.282087  0  0  -0.71418  0  2.275554  0  -1.199224  0  -0.374508  -0.660497  0  2.286199  0
O  O127  1  0.79489672  0.02792257  0.97615526  1  0  -0.742768  0  2.048192  0  0  -0.679979  0  2.282074  0  0  -0.71421  0  2.275545  0  -1.199235  0  -0.37452  -0.660526  0  2.286185  0
O  O128  1  0.79996462  0.57122292  0.86442985  1  0  -0.29391  0  2.315341  0  0  -0.2271  0  2.543496  0  0  -0.243825  0  2.544085  0  -1.065596  0  -0.174114  -0.215084  0  2.542428  0
O  O129  1  0.20003581  0.07122211  0.13557054  1  0  -0.293853  0  2.315396  0  0  -0.227007  0  2.543536  0  0  -0.243727  0  2.544128  0  -1.065572  0  -0.174083  -0.214987  0  2.542464  0
O  O130  1  0.74299879  0.78541582  0.88483222  1  0  -0.643447  0  1.954892  0  0  -0.603722  0  2.181777  0  0  -0.634155  0  2.172645  0  -1.156837  0  -0.362369  -0.587417  0  2.186693  0
O  O131  1  0.25700080  0.28541500  0.11516724  1  0  -0.643473  0  1.954898  0  0  -0.603746  0  2.181755  0  0  -0.634178  0  2.172625  0  -1.156837  0  -0.36237  -0.587439  0  2.186674  0
O  O132  1  0.55906322  0.74651768  0.87028079  1  0  -0.819287  0  2.167088  0  0  -0.766116  0  2.432766  0  0  -0.806043  0  2.42177  0  -1.210937  0  -0.435553  -0.746378  0  2.439659  0
O  O133  1  0.44093637  0.24651687  0.12971867  1  0  -0.819302  0  2.167066  0  0  -0.766135  0  2.432719  0  0  -0.806057  0  2.42172  0  -1.210903  0  -0.435573  -0.746395  0  2.439612  0
O  O134  1  0.80865099  0.60368704  0.25652292  1  0  -0.297489  0  2.26274  0  0  -0.234889  0  2.488645  0  0  -0.250704  0  2.488454  0  -1.061432  0  -0.179164  -0.223506  0  2.488226  0
O  O135  1  0.19134944  0.10368785  0.74347746  1  0  -0.297525  0  2.262763  0  0  -0.234912  0  2.48867  0  0  -0.250728  0  2.488483  0  -1.061421  0  -0.179136  -0.223529  0  2.488252  0
O  O136  1  0.75253151  0.38573598  0.22951018  1  0  -0.665377  0  1.931596  0  0  -0.624268  0  2.157886  0  0  -0.654169  0  2.147294  0  -1.157403  0  -0.376736  -0.607086  0  2.163784  0
O  O137  1  0.24746807  0.88573598  0.77049008  1  0  -0.665407  0  1.93157  0  0  -0.624278  0  2.157883  0  0  -0.654184  0  2.14729  0  -1.157416  0  -0.376743  -0.607097  0  2.163782  0
O  O138  1  0.57694037  0.43017050  0.15473443  1  0  -0.812963  0  2.127424  0  0  -0.76265  0  2.394671  0  0  -0.802648  0  2.382626  0  -1.217839  0  -0.42157  -0.743865  0  2.40177  0
O  O139  1  0.42305836  0.93017132  0.84526651  1  0  -0.812998  0  2.127422  0  0  -0.762673  0  2.394704  0  0  -0.802671  0  2.382656  0  -1.217845  0  -0.421564  -0.743891  0  2.401802  0
O  O140  1  0.81975819  0.16718218  0.14042907  1  0  -0.916705  0  1.851182  0  0  -0.873211  0  2.038335  0  0  -0.899344  0  2.003592  0  -1.274082  0  -0.627451  -0.85862  0  2.059628  0
O  O141  1  0.18024225  0.66718218  0.85957052  1  0  -0.916717  0  1.851183  0  0  -0.873221  0  2.038323  0  0  -0.899356  0  2.003578  0  -1.274083  0  -0.627449  -0.85863  0  2.059615  0
O  O142  1  0.74381622  0.14758688  0.35110157  1  0  -0.864604  0  1.821163  0  0  -0.821465  0  1.98408  0  0  -0.84389  0  1.948731  0  -1.203714  0  -0.618309  -0.809112  0  2.006706  0
O  O143  1  0.25618337  0.64758689  0.64889869  1  0  -0.864562  0  1.821105  0  0  -0.821414  0  1.984086  0  0  -0.843843  0  1.948737  0  -1.203712  0  -0.618305  -0.809061  0  2.006711  0
