# generated using pymatgen
data_CuH6C10SN4
_symmetry_space_group_name_H-M   'P 1'
_cell_length_a   3.73441654
_cell_length_b   16.13520995
_cell_length_c   17.12844792
_cell_angle_alpha   113.15293782
_cell_angle_beta   94.20480177
_cell_angle_gamma   95.80244631
_symmetry_Int_Tables_number   1
_chemical_formula_structural   CuH6C10SN4
_chemical_formula_sum   'Cu4 H24 C40 S4 N16'
_cell_volume   936.85671239
_cell_formula_units_Z   4
loop_
 _symmetry_equiv_pos_site_id
 _symmetry_equiv_pos_as_xyz
  1  'x, y, z'
loop_
 _atom_site_type_symbol
 _atom_site_label
 _atom_site_symmetry_multiplicity
 _atom_site_fract_x
 _atom_site_fract_y
 _atom_site_fract_z
 _atom_site_occupancy
 _atom_site_hle17_bader_spin_density
 _atom_site_hle17_ddec_charge
 _atom_site_hle17_ddec_spin_density
 _atom_site_hle17_ddec_sum_bond_order
 _atom_site_hle17_magmom
 _atom_site_hse06_10hf_bader_spin_density
 _atom_site_hse06_10hf_ddec_charge
 _atom_site_hse06_10hf_ddec_spin_density
 _atom_site_hse06_10hf_ddec_sum_bond_order
 _atom_site_hse06_10hf_magmom
 _atom_site_hse06_bader_spin_density
 _atom_site_hse06_ddec_charge
 _atom_site_hse06_ddec_spin_density
 _atom_site_hse06_ddec_sum_bond_order
 _atom_site_hse06_magmom
 _atom_site_pbe_bader_spin_density
 _atom_site_pbe_cm5_charge
 _atom_site_pbe_ddec_charge
 _atom_site_pbe_ddec_spin_density
 _atom_site_pbe_ddec_sum_bond_order
 _atom_site_pbe_magmom
Cu  Cu0  1  0.50961444  0.52823177  0.18737228  1  0  0.384384  0  2.123422  0  0  0.298268  0  2.606123  0  0  0.278699  0  2.578884  0  0  0.468233  0.313811  0  2.622519  0
Cu  Cu1  1  0.49035515  0.47176680  0.81261657  1  0  0.384254  0  2.123657  0  0  0.298137  0  2.606382  0  0  0.278583  0  2.57915  0  0  0.468179  0.313704  0  2.622765  0
Cu  Cu2  1  0.84061504  0.16482153  0.06161688  1  0  0.501695  0  2.172116  0  0  0.427206  0  2.679513  0  0  0.418457  0  2.639091  0  0  0.509771  0.436458  0  2.704534  0
Cu  Cu3  1  0.15936873  0.83517171  0.93838772  1  0  0.501818  0  2.171747  0  0  0.427303  0  2.679087  0  0  0.41859  0  2.638584  0  0  0.509776  0.436545  0  2.704125  0
H  H4  1  0.73190995  0.63079450  0.04688139  1  0  0.075325  0  0.956396  0  0  0.082485  0  1.022886  0  0  0.085051  0  1.022644  0  0  0.102704  0.080605  0  1.023252  0
H  H5  1  0.26810482  0.36921302  0.95311429  1  0  0.075392  0  0.956255  0  0  0.08254  0  1.02274  0  0  0.085114  0  1.022498  0  0  0.102754  0.080658  0  1.023108  0
H  H6  1  0.72365709  0.78426218  0.04195180  1  0  0.107785  0  0.971355  0  0  0.106779  0  1.052614  0  0  0.113586  0  1.045113  0  0  0.101847  0.101592  0  1.058359  0
H  H7  1  0.27641487  0.21575096  0.95805665  1  0  0.107741  0  0.971276  0  0  0.106795  0  1.052477  0  0  0.113623  0  1.044949  0  0  0.101886  0.101608  0  1.05822  0
H  H8  1  0.55004040  0.91029168  0.16729846  1  0  0.098498  0  0.953029  0  0  0.109277  0  1.011255  0  0  0.111481  0  1.010735  0  0  0.106054  0.107567  0  1.011813  0
H  H9  1  0.45004579  0.08971743  0.83271396  1  0  0.098484  0  0.953004  0  0  0.109264  0  1.01123  0  0  0.11146  0  1.010722  0  0  0.106042  0.107555  0  1.011789  0
H  H10  1  0.41001764  0.87993333  0.29712185  1  0  0.096786  0  0.976896  0  0  0.104363  0  1.045624  0  0  0.106725  0  1.044811  0  0  0.101411  0.102762  0  1.046185  0
H  H11  1  0.59003974  0.12007231  0.70288656  1  0  0.096682  0  0.977059  0  0  0.104377  0  1.045664  0  0  0.106647  0  1.044952  0  0  0.101359  0.102776  0  1.046227  0
H  H12  1  0.95756290  0.90728732  0.46566462  1  0  0.102846  0  0.971216  0  0  0.109576  0  1.039477  0  0  0.113371  0  1.037001  0  0  0.1029  0.106875  0  1.04131  0
H  H13  1  0.04237815  0.09270715  0.53433169  1  0  0.102832  0  0.971183  0  0  0.1096  0  1.039417  0  0  0.113399  0  1.036917  0  0  0.102869  0.1069  0  1.041251  0
H  H14  1  0.81932339  0.02161559  0.60575339  1  0  0.085246  0  0.9637  0  0  0.097692  0  1.024373  0  0  0.100837  0  1.021757  0  0  0.101749  0.095371  0  1.026377  0
H  H15  1  0.18064644  0.97838235  0.39424633  1  0  0.085258  0  0.963691  0  0  0.09772  0  1.024344  0  0  0.100864  0  1.021737  0  0  0.101746  0.095399  0  1.026348  0
H  H16  1  0.91976750  0.98789914  0.73726250  1  0  0.103863  0  0.946812  0  0  0.115171  0  1.004557  0  0  0.118847  0  1.002967  0  0  0.106411  0.112363  0  1.006011  0
H  H17  1  0.08026245  0.01210097  0.26273708  1  0  0.10381  0  0.946801  0  0  0.115156  0  1.004519  0  0  0.118832  0  1.002928  0  0  0.106418  0.112348  0  1.005977  0
H  H18  1  0.15116521  0.84391252  0.72215646  1  0  0.063449  0  0.979012  0  0  0.06632  0  1.054181  0  0  0.069059  0  1.053917  0  0  0.097746  0.064039  0  1.054776  0
H  H19  1  0.84885420  0.15608824  0.27784030  1  0  0.063414  0  0.978971  0  0  0.066301  0  1.054137  0  0  0.069012  0  1.053897  0  0  0.097747  0.064022  0  1.054729  0
H  H20  1  0.16391148  0.52820635  0.46944737  1  0  0.103274  0  0.985994  0  0  0.111788  0  1.051538  0  0  0.114315  0  1.050866  0  0  0.107348  0.110013  0  1.052122  0
H  H21  1  0.83607860  0.47179978  0.53055156  1  0  0.103251  0  0.98591  0  0  0.111778  0  1.051466  0  0  0.114305  0  1.050794  0  0  0.107313  0.109998  0  1.052059  0
H  H22  1  0.17477387  0.36102042  0.44164627  1  0  0.107529  0  0.953429  0  0  0.108924  0  1.028209  0  0  0.112503  0  1.024695  0  0  0.106612  0.106359  0  1.030819  0
H  H23  1  0.82521340  0.63898505  0.55835704  1  0  0.107559  0  0.953473  0  0  0.108939  0  1.028293  0  0  0.112521  0  1.024774  0  0  0.106642  0.106375  0  1.030908  0
H  H24  1  0.40323522  0.26269309  0.30696796  1  0  0.101562  0  0.977099  0  0  0.109475  0  1.042655  0  0  0.11192  0  1.042293  0  0  0.101671  0.107755  0  1.042954  0
H  H25  1  0.59676415  0.73730969  0.69303628  1  0  0.101537  0  0.977074  0  0  0.109405  0  1.042671  0  0  0.11185  0  1.042313  0  0  0.101648  0.107687  0  1.042968  0
H  H26  1  0.57301116  0.32851378  0.20257101  1  0  0.080934  0  0.971307  0  0  0.089368  0  1.036277  0  0  0.092338  0  1.034083  0  0  0.108346  0.087012  0  1.038205  0
H  H27  1  0.42700033  0.67148155  0.79743006  1  0  0.081023  0  0.971231  0  0  0.089425  0  1.036257  0  0  0.092392  0  1.034066  0  0  0.108373  0.087089  0  1.038161  0
C  C28  1  0.66030901  0.68803573  0.10083535  1  0  0.132798  0  3.679475  0  0  0.107943  0  3.930789  0  0  0.11195  0  3.946573  0  0  0.047726  0.105289  0  3.920226  0
C  C29  1  0.33972715  0.31197118  0.89916507  1  0  0.132616  0  3.679192  0  0  0.107784  0  3.930539  0  0  0.111778  0  3.946343  0  0  0.047587  0.105129  0  3.919976  0
C  C30  1  0.65578455  0.77342516  0.09825086  1  0  -0.078371  0  3.675256  0  0  -0.090685  0  3.922779  0  0  -0.093746  0  3.940566  0  0  -0.071648  -0.088993  0  3.911569  0
C  C31  1  0.34426899  0.22658384  0.90175349  1  0  -0.078307  0  3.675171  0  0  -0.090721  0  3.922773  0  0  -0.093795  0  3.940543  0  0  -0.071761  -0.089032  0  3.911562  0
C  C32  1  0.56206275  0.84386534  0.16897721  1  0  -0.019201  0  3.7249  0  0  -0.034494  0  3.970122  0  0  -0.034575  0  3.991161  0  0  -0.069455  -0.034435  0  3.956206  0
C  C33  1  0.43799795  0.15614166  0.83103000  1  0  -0.019215  0  3.725081  0  0  -0.034495  0  3.970354  0  0  -0.034565  0  3.991374  0  0  -0.069487  -0.034437  0  3.956435  0
C  C34  1  0.48067154  0.82714750  0.23995202  1  0  -0.124818  0  3.717183  0  0  -0.145355  0  3.96516  0  0  -0.150808  0  3.990416  0  0  -0.080428  -0.141571  0  3.947962  0
C  C35  1  0.51936684  0.17285808  0.76005262  1  0  -0.124876  0  3.71759  0  0  -0.145535  0  3.965485  0  0  -0.150914  0  3.990785  0  0  -0.08035  -0.141754  0  3.948291  0
C  C36  1  0.48795402  0.73939353  0.23679582  1  0  0.123843  0  3.765283  0  0  0.124345  0  4.009875  0  0  0.123346  0  4.030991  0  0  0.109456  0.124883  0  3.995635  0
C  C37  1  0.51206388  0.26060927  0.76320343  1  0  0.124172  0  3.765217  0  0  0.124734  0  4.009644  0  0  0.12374  0  4.030737  0  0  0.109567  0.125272  0  3.995401  0
C  C38  1  0.39868675  0.71534986  0.30855846  1  0  0.388726  0  3.720812  0  0  0.360517  0  3.988199  0  0  0.381575  0  3.993796  0  0  0.251721  0.346638  0  3.984402  0
C  C39  1  0.60130850  0.28465084  0.69143853  1  0  0.388686  0  3.721444  0  0  0.360492  0  3.98877  0  0  0.381553  0  3.99437  0  0  0.251759  0.346612  0  3.984968  0
C  C40  1  0.21755636  0.74909131  0.44065492  1  0  0.376588  0  3.731913  0  0  0.351298  0  4.00071  0  0  0.372909  0  4.009095  0  0  0.249256  0.337222  0  3.994935  0
C  C41  1  0.78243249  0.25090735  0.55934241  1  0  0.376623  0  3.731857  0  0  0.35136  0  4.00054  0  0  0.372974  0  4.008927  0  0  0.249335  0.337288  0  3.994752  0
C  C42  1  0.12626514  0.81708943  0.52190207  1  0  0.128175  0  3.766784  0  0  0.131927  0  4.011014  0  0  0.132989  0  4.030162  0  0  0.115445  0.131004  0  3.998062  0
C  C43  1  0.87371229  0.18290785  0.47809575  1  0  0.128097  0  3.767083  0  0  0.131949  0  4.011144  0  0  0.13301  0  4.030287  0  0  0.115368  0.131026  0  3.998192  0
C  C44  1  0.00038131  0.89697409  0.52447039  1  0  -0.127822  0  3.71506  0  0  -0.14938  0  3.962205  0  0  -0.153688  0  3.983109  0  0  -0.083983  -0.146382  0  3.948045  0
C  C45  1  0.99957045  0.10302041  0.47552548  1  0  -0.127796  0  3.715097  0  0  -0.149411  0  3.962204  0  0  -0.153715  0  3.983129  0  0  -0.083868  -0.146414  0  3.948043  0
C  C46  1  0.92314697  0.95968224  0.60229728  1  0  -0.030611  0  3.757031  0  0  -0.045747  0  4.003858  0  0  -0.045745  0  4.024339  0  0  -0.077415  -0.045526  0  3.989956  0
C  C47  1  0.07682470  0.04031435  0.39769962  1  0  -0.030633  0  3.757094  0  0  -0.045797  0  4.003965  0  0  -0.045803  0  4.024447  0  0  -0.077431  -0.045576  0  3.990066  0
C  C48  1  0.97667542  0.94120971  0.67488021  1  0  -0.106263  0  3.716676  0  0  -0.121148  0  3.96665  0  0  -0.123801  0  3.984756  0  0  -0.082357  -0.11976  0  3.955046  0
C  C49  1  0.02333602  0.05879103  0.32511819  1  0  -0.106223  0  3.716599  0  0  -0.121142  0  3.966602  0  0  -0.123794  0  3.9847  0  0  -0.082425  -0.119756  0  3.955  0
C  C50  1  0.10358653  0.85970834  0.66604499  1  0  0.121096  0  3.730739  0  0  0.096912  0  3.992902  0  0  0.101525  0  4.007605  0  0  0.046071  0.093745  0  3.983504  0
C  C51  1  0.89642484  0.14029240  0.33395223  1  0  0.121199  0  3.730527  0  0  0.096987  0  3.992735  0  0  0.101623  0  4.007443  0  0  0.046131  0.093819  0  3.983336  0
C  C52  1  0.33967029  0.60667102  0.36319426  1  0  0.385749  0  3.740101  0  0  0.358251  0  4.006912  0  0  0.378678  0  4.01154  0  0  0.254903  0.345167  0  4.003622  0
C  C53  1  0.66030720  0.39332691  0.63679797  1  0  0.385963  0  3.739898  0  0  0.358336  0  4.006893  0  0  0.378756  0  4.011513  0  0  0.254924  0.34525  0  4.003599  0
C  C54  1  0.35169932  0.51136330  0.35032317  1  0  0.124544  0  3.763915  0  0  0.125675  0  4.004245  0  0  0.125936  0  4.023409  0  0  0.109568  0.125434  0  3.991229  0
C  C55  1  0.64827760  0.48863328  0.64967147  1  0  0.12447  0  3.763764  0  0  0.125647  0  4.004186  0  0  0.125947  0  4.023297  0  0  0.109552  0.125405  0  3.991164  0
C  C56  1  0.24862875  0.47996979  0.41155838  1  0  -0.120358  0  3.709123  0  0  -0.139608  0  3.94992  0  0  -0.144768  0  3.973772  0  0  -0.076368  -0.136125  0  3.933608  0
C  C57  1  0.75135695  0.52003294  0.58844157  1  0  -0.120256  0  3.708959  0  0  -0.139519  0  3.949764  0  0  -0.14469  0  3.973606  0  0  -0.076343  -0.136036  0  3.933453  0
C  C58  1  0.26024285  0.38902711  0.39639239  1  0  -0.009697  0  3.699142  0  0  -0.024821  0  3.948382  0  0  -0.023764  0  3.967387  0  0  -0.065638  -0.025221  0  3.935306  0
C  C59  1  0.73975373  0.61097566  0.60361005  1  0  -0.009712  0  3.699211  0  0  -0.024826  0  3.948422  0  0  -0.02377  0  3.967427  0  0  -0.065571  -0.025232  0  3.935351  0
C  C60  1  0.38151770  0.33364616  0.32070772  1  0  -0.089734  0  3.680226  0  0  -0.102491  0  3.925278  0  0  -0.106981  0  3.945851  0  0  -0.074214  -0.099707  0  3.911621  0
C  C61  1  0.61847290  0.66635525  0.67929648  1  0  -0.089755  0  3.68033  0  0  -0.102464  0  3.925411  0  0  -0.106958  0  3.945989  0  0  -0.074271  -0.099684  0  3.911764  0
C  C62  1  0.47793109  0.37016904  0.26231151  1  0  0.131798  0  3.673438  0  0  0.105233  0  3.923361  0  0  0.109787  0  3.939041  0  0  0.046139  0.102111  0  3.913179  0
C  C63  1  0.52206290  0.62982895  0.73768798  1  0  0.131606  0  3.673363  0  0  0.105076  0  3.923323  0  0  0.109629  0  3.939006  0  0  0.045998  0.101939  0  3.913125  0
C  C64  1  0.91859660  0.36608071  0.09049364  1  0  0.292252  0  3.875819  0  0  0.285495  0  4.163896  0  0  0.30149  0  4.180481  0  0  0.154111  0.275104  0  4.153087  0
C  C65  1  0.08133864  0.63390764  0.90950267  1  0  0.292236  0  3.875623  0  0  0.285516  0  4.163585  0  0  0.30151  0  4.180177  0  0  0.154219  0.275127  0  4.152774  0
C  C66  1  0.71379758  0.97735948  0.91598264  1  0  0.306262  0  3.910634  0  0  0.299504  0  4.193718  0  0  0.314036  0  4.211321  0  0  0.15016  0.289518  0  4.181737  0
C  C67  1  0.28621492  0.02263658  0.08403098  1  0  0.306368  0  3.910833  0  0  0.29962  0  4.193887  0  0  0.314153  0  4.211493  0  0  0.15038  0.289636  0  4.181899  0
S  S68  1  0.95232939  0.47383235  0.10397229  1  0  -0.273149  0  2.768625  0  0  -0.253953  0  3.236877  0  0  -0.256988  0  3.216474  0  0  -0.168843  -0.253162  0  3.251179  0
S  S69  1  0.04763347  0.52615330  0.89601405  1  0  -0.27312  0  2.768365  0  0  -0.253916  0  3.236607  0  0  -0.256956  0  3.216209  0  0  -0.168817  -0.253152  0  3.250945  0
S  S70  1  0.64913199  0.86560050  0.86539079  1  0  -0.366629  0  2.649371  0  0  -0.340414  0  3.090066  0  0  -0.345696  0  3.067299  0  0  -0.168541  -0.336277  0  3.105396  0
S  S71  1  0.35084707  0.13439887  0.13461775  1  0  -0.366532  0  2.649198  0  0  -0.340328  0  3.089906  0  0  -0.345602  0  3.06713  0  0  -0.168498  -0.336203  0  3.105261  0
N  N72  1  0.57551172  0.67081384  0.16801031  1  0  -0.306453  0  3.168623  0  0  -0.260026  0  3.441471  0  0  -0.26446  0  3.45049  0  0  -0.315383  -0.256876  0  3.435099  0
N  N73  1  0.42449762  0.32918825  0.83198622  1  0  -0.306469  0  3.168467  0  0  -0.260006  0  3.441209  0  0  -0.264441  0  3.450239  0  0  -0.315336  -0.256855  0  3.434834  0
N  N74  1  0.44382872  0.62998488  0.29968041  1  0  -0.416803  0  3.233711  0  0  -0.36686  0  3.537077  0  0  -0.374596  0  3.534216  0  0  -0.352605  -0.36253  0  3.538568  0
N  N75  1  0.55615378  0.37001238  0.70031164  1  0  -0.416998  0  3.234184  0  0  -0.367032  0  3.537574  0  0  -0.374784  0  3.534732  0  0  -0.352656  -0.3627  0  3.539058  0
N  N76  1  0.46242382  0.45736594  0.27600846  1  0  -0.304962  0  3.232607  0  0  -0.25395  0  3.511179  0  0  -0.258744  0  3.520604  0  0  -0.32642  -0.250713  0  3.504479  0
N  N77  1  0.53756628  0.54263000  0.72398788  1  0  -0.3048  0  3.232403  0  0  -0.253859  0  3.511045  0  0  -0.258666  0  3.520462  0  0  -0.326309  -0.250631  0  3.504364  0
N  N78  1  0.23033889  0.66380176  0.43482767  1  0  -0.412836  0  2.973751  0  0  -0.381458  0  3.244511  0  0  -0.39832  0  3.252592  0  0  -0.298256  -0.371123  0  3.239397  0
N  N79  1  0.76964915  0.33619553  0.56516738  1  0  -0.412937  0  2.973817  0  0  -0.381552  0  3.244663  0  0  -0.398415  0  3.25274  0  0  -0.29834  -0.371219  0  3.239543  0
N  N80  1  0.17516741  0.79831578  0.59166056  1  0  -0.301255  0  3.051781  0  0  -0.270307  0  3.317258  0  0  -0.278232  0  3.331735  0  0  -0.303403  -0.264794  0  3.307584  0
N  N81  1  0.82482337  0.20168151  0.40833570  1  0  -0.301302  0  3.051849  0  0  -0.270395  0  3.317301  0  0  -0.278317  0  3.331764  0  0  -0.303424  -0.264882  0  3.307625  0
N  N82  1  0.28450127  0.77663886  0.37747330  1  0  -0.448431  0  2.977315  0  0  -0.41255  0  3.246877  0  0  -0.431507  0  3.256589  0  0  -0.30668  -0.400303  0  3.240426  0
N  N83  1  0.71549483  0.22336322  0.62252654  1  0  -0.448326  0  2.977431  0  0  -0.412469  0  3.246954  0  0  -0.431425  0  3.256651  0  0  -0.306654  -0.400226  0  3.240498  0
N  N84  1  0.89797330  0.28856717  0.07921880  1  0  -0.493623  0  3.155901  0  0  -0.446114  0  3.488481  0  0  -0.458626  0  3.48869  0  0  -0.421762  -0.438833  0  3.487705  0
N  N85  1  0.10199451  0.71142128  0.92078382  1  0  -0.4936  0  3.155801  0  0  -0.44609  0  3.488387  0  0  -0.458607  0  3.488604  0  0  -0.421835  -0.438812  0  3.48761  0
N  N86  1  0.76217424  0.05732632  0.95404487  1  0  -0.494043  0  3.054893  0  0  -0.444501  0  3.360317  0  0  -0.456445  0  3.364907  0  0  -0.413974  -0.436413  0  3.35636  0
N  N87  1  0.23783782  0.94267926  0.04596991  1  0  -0.494181  0  3.055083  0  0  -0.444614  0  3.36043  0  0  -0.456567  0  3.365028  0  0  -0.41418  -0.436521  0  3.356468  0
