# generated using pymatgen
data_CuH4C7NO5
_symmetry_space_group_name_H-M   'P 1'
_cell_length_a   7.50680983
_cell_length_b   10.66656541
_cell_length_c   10.23613500
_cell_angle_alpha   108.99349131
_cell_angle_beta   111.41199404
_cell_angle_gamma   89.99720668
_symmetry_Int_Tables_number   1
_chemical_formula_structural   CuH4C7NO5
_chemical_formula_sum   'Cu4 H16 C28 N4 O20'
_cell_volume   714.91432564
_cell_formula_units_Z   4
loop_
 _symmetry_equiv_pos_site_id
 _symmetry_equiv_pos_as_xyz
  1  'x, y, z'
loop_
 _atom_site_type_symbol
 _atom_site_label
 _atom_site_symmetry_multiplicity
 _atom_site_fract_x
 _atom_site_fract_y
 _atom_site_fract_z
 _atom_site_occupancy
 _atom_site_hle17_ddec_charge
 _atom_site_hle17_ddec_spin_density
 _atom_site_hle17_ddec_sum_bond_order
 _atom_site_hle17_magmom
 _atom_site_hse06_10hf_ddec_charge
 _atom_site_hse06_10hf_ddec_spin_density
 _atom_site_hse06_10hf_ddec_sum_bond_order
 _atom_site_hse06_10hf_magmom
 _atom_site_hse06_ddec_charge
 _atom_site_hse06_ddec_spin_density
 _atom_site_hse06_ddec_sum_bond_order
 _atom_site_hse06_magmom
 _atom_site_pbe_cm5_charge
 _atom_site_pbe_ddec_charge
 _atom_site_pbe_ddec_spin_density
 _atom_site_pbe_ddec_sum_bond_order
 _atom_site_pbe_magmom
Cu  Cu0  1  0.73530456  0.40507611  0.26524655  1  0.953298  -0.711287  1.729748  -0.526  0.950959  -0.810004  2.113116  -0.658  1.040156  -0.881363  2.050921  -0.751  0.742604  0.890154  -0.751054  2.163047  -0.591
Cu  Cu1  1  0.47120743  0.09485022  0.73514558  1  0.953805  -0.715235  1.726783  -0.528  0.952082  -0.811925  2.109484  -0.659  1.041031  -0.882215  2.047483  -0.751  0.742295  0.890054  -0.754581  2.160004  -0.593
Cu  Cu2  1  0.26366594  0.59490909  0.73465379  1  0.952841  -0.714099  1.730468  -0.528  0.950901  -0.810226  2.113562  -0.658  1.039928  -0.880848  2.051301  -0.75  0.742665  0.890092  -0.755388  2.163336  -0.594
Cu  Cu3  1  0.52970979  0.90513180  0.26481026  1  0.954391  0.766586  1.726418  0.526  0.952415  0.85438  2.109176  0.659  1.041256  0.940436  2.047443  0.751  0.742551  0.890738  0.77912  2.159243  0.589
H  H4  1  0.78689358  0.46216072  0.73413607  1  0.112127  -0.000508  0.945295  -0.001  0.121299  -0.000354  1.004806  0.0  0.124541  -0.00024  1.002387  0.0  0.116018  0.119085  -0.000497  1.006268  0.0
H  H5  1  0.05177878  0.03754335  0.26601339  1  0.112148  -0.000604  0.943427  0.0  0.121807  -0.00044  1.002582  0.0  0.124988  -0.000313  1.000282  0.0  0.116228  0.119277  -0.000553  1.004619  0.0
H  H6  1  0.21331388  0.53786857  0.26605892  1  0.111832  -0.000471  0.945207  -0.001  0.121201  -0.000348  1.004437  0.0  0.12442  -0.000233  1.002043  0.0  0.116038  0.118994  -0.000532  1.005886  0.0
H  H7  1  0.94824867  0.96245027  0.73413798  1  0.112126  0.000595  0.943641  0.0  0.121853  0.000425  1.002653  0.0  0.12503  0.000314  1.000365  0.0  0.11613  0.119287  0.000533  1.004723  0.0
H  H8  1  0.70370899  0.64618692  0.92073280  1  0.129913  -0.000933  0.965566  -0.001  0.13328  -0.000755  1.036837  -0.001  0.137256  -0.00043  1.034446  -0.001  0.114469  0.129452  -0.00087  1.040177  -0.001
H  H9  1  0.78320480  0.85340274  0.07937976  1  0.129046  -0.001176  0.96698  -0.001  0.132466  -0.000949  1.038558  -0.001  0.136578  -0.000616  1.035927  -0.001  0.114049  0.128899  -0.001214  1.041659  -0.001
H  H10  1  0.29623801  0.35377262  0.07944608  1  0.12965  -0.001033  0.966267  -0.001  0.133341  -0.000818  1.03721  -0.001  0.137323  -0.000483  1.03479  -0.001  0.114628  0.129519  -0.000923  1.040571  -0.001
H  H11  1  0.21706333  0.14655766  0.92079665  1  0.129275  0.000961  0.966101  0.001  0.132614  0.000798  1.037704  0.001  0.136719  0.000546  1.035133  0.001  0.11413  0.129034  0.00096  1.040821  0.001
H  H12  1  0.77869885  0.49669921  0.53067528  1  0.428999  0.000159  0.874245  0.001  0.396947  -0.000462  0.940831  0.0  0.41088  -0.000249  0.920734  0.0  0.29303  0.387074  -0.000644  0.954973  0.0
H  H13  1  0.24914150  0.00344020  0.46997029  1  0.429003  0.000411  0.874116  0.001  0.397076  -0.000161  0.940444  0.0  0.410969  -6.9e-05  0.92041  0.0  0.292496  0.386905  -0.000247  0.955056  0.0
H  H14  1  0.21934633  0.50329964  0.46907324  1  0.429035  0.000165  0.874538  0.001  0.397197  -0.000451  0.940686  0.0  0.411079  -0.000236  0.920652  0.0  0.292803  0.387369  -0.000647  0.954782  0.0
H  H15  1  0.75247198  0.99657262  0.52986403  1  0.428912  -0.000303  0.873977  -0.001  0.397675  0.000213  0.93938  0.0  0.41152  0.000121  0.919395  0.0  0.293041  0.387451  0.000262  0.954083  0.0
H  H16  1  0.57065594  0.39273846  0.43292170  1  0.438628  0.00023  0.813371  0.001  0.414383  -0.00047  0.88232  0.0  0.426182  -0.000272  0.868168  0.0  0.316565  0.405955  -0.000652  0.891818  0.0
H  H17  1  0.13942082  0.10772624  0.56849648  1  0.437565  0.000219  0.813889  0.001  0.41406  -0.000462  0.881852  0.0  0.425767  -0.000264  0.868583  0.0  0.315949  0.405418  -0.000627  0.891901  0.0
H  H18  1  0.42736441  0.60728689  0.56646474  1  0.438561  0.00029  0.813001  0.001  0.414933  -0.000449  0.881208  0.0  0.426664  -0.000263  0.867256  0.0  0.316917  0.406521  -0.000614  0.890695  0.0
H  H19  1  0.86189821  0.89240330  0.43092649  1  0.438222  -0.000144  0.815171  -0.001  0.414362  0.000494  0.883638  0.0  0.426123  0.000307  0.868937  0.0  0.315972  0.405725  0.000625  0.893674  0.0
C  C20  1  0.80467539  0.31311505  0.98404834  1  0.171556  0.005337  3.726296  0.005  0.160575  -0.00082  3.978739  0.0  0.169274  0.000686  3.997434  0.001  0.127426  0.154716  -0.001742  3.96724  -0.001
C  C21  1  0.82056916  0.18651697  0.01605513  1  0.171568  0.003647  3.727232  0.004  0.159865  -0.001444  3.979731  -0.001  0.168678  0.000184  3.99834  0.001  0.127901  0.153971  -0.002692  3.96793  -0.002
C  C22  1  0.19527730  0.68678511  0.01600589  1  0.171479  0.008053  3.726334  0.01  0.160716  0.001337  3.978203  0.003  0.169509  0.002377  3.996839  0.004  0.12755  0.154816  0.000569  3.966766  0.002
C  C23  1  0.17952115  0.81338942  0.98401286  1  0.171194  -0.00879  3.726766  -0.012  0.159772  -0.00171  3.979332  -0.004  0.16846  -0.002461  3.997984  -0.005  0.128048  0.153936  -0.001009  3.96747  -0.003
C  C24  1  0.80951842  0.32550582  0.85241317  1  -0.104812  -0.010629  3.642966  -0.012  -0.094159  -0.004344  3.888661  -0.005  -0.102792  -0.003697  3.905835  -0.005  0.005341  -0.089294  -0.004774  3.878368  -0.006
C  C25  1  0.95641388  0.17417319  0.14773362  1  -0.105359  -0.008955  3.64475  -0.01  -0.09375  -0.003955  3.889834  -0.005  -0.102246  -0.00331  3.906821  -0.004  0.004702  -0.088817  -0.004346  3.879289  -0.005
C  C26  1  0.19053601  0.67447275  0.14768719  1  -0.104363  -0.010908  3.643263  -0.012  -0.094156  -0.004279  3.888997  -0.005  -0.102725  -0.003774  3.906069  -0.004  0.005077  -0.089284  -0.004675  3.878706  -0.005
C  C27  1  0.04362249  0.82580272  0.85238043  1  -0.104711  0.012973  3.643624  0.013  -0.093896  0.004818  3.889621  0.005  -0.102421  0.00438  3.906643  0.005  0.004515  -0.088953  0.005112  3.879049  0.005
C  C28  1  0.78068715  0.44914325  0.83353832  1  0.015862  0.009926  3.626832  0.009  -0.011563  0.002875  3.879383  0.003  -0.005796  0.003222  3.893173  0.003  -0.05568  -0.015816  0.00257  3.870683  0.002
C  C29  1  0.94655642  0.05053834  0.16661177  1  0.016651  0.008512  3.624608  0.008  -0.01147  0.002539  3.877864  0.002  -0.005707  0.002857  3.891713  0.003  -0.055627  -0.015665  0.00221  3.869533  0.002
C  C30  1  0.21934827  0.55084502  0.16659598  1  0.016105  0.009077  3.625292  0.008  -0.011281  0.002183  3.878074  0.002  -0.005541  0.002599  3.891887  0.002  -0.055585  -0.015522  0.001921  3.869351  0.002
C  C31  1  0.05354209  0.94944774  0.83351394  1  0.017013  -0.008996  3.624881  -0.009  -0.010839  -0.001899  3.877828  -0.002  -0.005046  -0.002335  3.891637  -0.002  -0.05524  -0.015041  -0.001656  3.869525  -0.002
C  C32  1  0.73911129  0.55237829  0.93823871  1  -0.096854  -0.007967  3.661618  -0.008  -0.124998  -0.003095  3.924434  -0.003  -0.128896  -0.002884  3.940221  -0.003  -0.072194  -0.122727  -0.002981  3.916058  -0.003
C  C33  1  0.80083971  0.94721848  0.06183993  1  -0.097132  -0.006025  3.662081  -0.005  -0.125954  -0.002793  3.925098  -0.002  -0.129934  -0.002673  3.940999  -0.003  -0.071713  -0.12365  -0.00299  3.916243  -0.003
C  C34  1  0.26087654  0.44755264  0.06186038  1  -0.097276  -0.006605  3.662062  -0.007  -0.125965  -0.002511  3.925649  -0.003  -0.129879  -0.002474  3.941501  -0.003  -0.072429  -0.123658  -0.002448  3.917179  -0.003
C  C35  1  0.19930349  0.05270445  0.93825773  1  -0.096983  0.009507  3.662257  0.008  -0.125783  0.003342  3.925218  0.003  -0.129786  0.003379  3.941122  0.003  -0.071549  -0.123481  0.003383  3.916334  0.003
C  C36  1  0.73176358  0.53159702  0.06367398  1  0.103185  0.012435  3.728732  0.013  0.105397  0.004563  3.975856  0.006  0.110045  0.004458  3.992129  0.006  0.112903  0.101769  0.004907  3.966037  0.006
C  C37  1  0.66843152  0.96798677  0.93642741  1  0.103537  0.000169  3.729105  0.0  0.106585  -0.002328  3.974368  -0.002  0.111231  -0.000268  3.990574  0.0  0.112698  0.103016  -0.004029  3.964404  -0.004
C  C38  1  0.26818065  0.46825042  0.93637397  1  0.104853  -0.000359  3.726988  -0.001  0.106389  -0.003139  3.974752  -0.003  0.110976  -0.000827  3.990992  0.0  0.112979  0.102754  -0.004635  3.965054  -0.005
C  C39  1  0.33168494  0.03185625  0.06360244  1  0.102829  -0.010719  3.730544  -0.012  0.105974  -0.003608  3.975882  -0.005  0.110671  -0.003609  3.992081  -0.005  0.112522  0.102468  -0.003767  3.965791  -0.005
C  C40  1  0.83739647  0.21145907  0.72856472  1  0.658174  0.001363  3.90376  0.002  0.610869  -0.000306  4.206881  0.0  0.646245  -0.000176  4.19957  0.0  0.212377  0.586714  -0.000355  4.210048  0.0
C  C41  1  0.10748439  0.28825031  0.27156204  1  0.656161  0.00138  3.907926  0.002  0.60895  -0.000364  4.210492  0.0  0.644364  -0.000217  4.203114  0.0  0.212107  0.584991  -0.000496  4.213569  0.0
C  C42  1  0.16286616  0.78870216  0.27149957  1  0.6578  -0.00227  3.904314  -0.003  0.611146  -0.001143  4.206196  -0.002  0.646483  -0.000738  4.198848  -0.001  0.212652  0.587011  -0.001334  4.209441  -0.002
C  C43  1  0.89232564  0.71187994  0.72853105  1  0.655464  0.002572  3.906524  0.003  0.608344  0.001023  4.209414  0.002  0.643772  0.000673  4.202135  0.001  0.212416  0.584365  0.00134  4.212444  0.002
C  C44  1  0.67217604  0.62915290  0.17938208  1  0.632318  0.001963  3.89291  0.002  0.588553  -0.000238  4.198878  -0.001  0.628511  -0.000276  4.191214  -0.001  0.21288  0.560235  0.000158  4.203126  0.0
C  C45  1  0.49359738  0.87048688  0.82075181  1  0.631291  0.006674  3.894969  0.01  0.588272  -0.000718  4.199955  0.002  0.628279  -0.000478  4.192275  0.001  0.213118  0.560178  -0.00107  4.203919  0.002
C  C46  1  0.32789041  0.37077373  0.82070327  1  0.630873  0.006357  3.894331  0.01  0.587838  -0.00093  4.199647  0.001  0.627821  -0.000638  4.191867  0.0  0.212404  0.559442  -0.001081  4.20392  0.002
C  C47  1  0.50646072  0.12942456  0.17931958  1  0.631854  -0.001896  3.894726  -0.002  0.588776  0.000202  4.199375  0.0  0.628785  0.000326  4.191711  0.0  0.213521  0.56071  3e-05  4.203399  0.0
N  N48  1  0.76795238  0.41498214  0.08558185  1  -0.33549  -0.085592  3.363597  -0.109  -0.302304  -0.057667  3.65142  -0.077  -0.333061  -0.045616  3.67407  -0.065  -0.339164  -0.283792  -0.063526  3.63832  -0.082
N  N49  1  0.68271615  0.08467359  0.91456290  1  -0.336704  -0.08427  3.364317  -0.107  -0.303367  -0.057555  3.651902  -0.077  -0.334015  -0.045446  3.674442  -0.064  -0.339501  -0.28447  -0.063928  3.638649  -0.082
N  N50  1  0.23189204  0.58487335  0.91442628  1  -0.336451  -0.086819  3.362614  -0.11  -0.303077  -0.058611  3.650669  -0.078  -0.333858  -0.046317  3.673267  -0.065  -0.33986  -0.284712  -0.064786  3.637762  -0.083
N  N51  1  0.31748212  0.91519004  0.08545804  1  -0.336112  0.092393  3.363831  0.109  -0.30305  0.060427  3.651352  0.077  -0.33362  0.048743  3.673885  0.065  -0.339109  -0.284141  0.065646  3.637932  0.081
O  O52  1  0.69950213  0.11308744  0.65478911  1  -0.627661  -0.022046  2.041114  -0.031  -0.586866  -0.014726  2.296015  -0.023  -0.621944  -0.010061  2.281502  -0.017  -0.309582  -0.55992  -0.018552  2.304203  -0.027
O  O53  1  0.04300117  0.38660270  0.34541638  1  -0.627323  -0.024312  2.044188  -0.035  -0.586082  -0.015324  2.299105  -0.024  -0.62135  -0.010148  2.28463  -0.018  -0.310204  -0.560109  -0.019612  2.307665  -0.029
O  O54  1  0.30139002  0.88661932  0.34558306  1  -0.628111  0.020617  2.040487  0.027  -0.58691  0.014103  2.294608  0.021  -0.621828  0.009893  2.280071  0.016  -0.309403  -0.560215  0.017293  2.302839  0.025
O  O55  1  0.95646101  0.61316117  0.65483399  1  -0.626755  -0.023865  2.043567  -0.034  -0.585409  -0.015235  2.298627  -0.024  -0.620897  -0.010131  2.284253  -0.018  -0.310171  -0.559255  -0.019575  2.307087  -0.029
O  O56  1  0.98684351  0.21983313  0.70361503  1  -0.576593  -0.009699  1.922937  -0.013  -0.525936  -0.003014  2.137429  -0.005  -0.552446  -0.001263  2.130655  -0.002  -0.295368  -0.506044  -0.005369  2.141097  -0.008
O  O57  1  0.28173913  0.27996814  0.29648084  1  -0.57512  -0.009423  1.924556  -0.012  -0.524707  -0.003108  2.139071  -0.004  -0.551048  -0.001362  2.132202  -0.002  -0.295005  -0.504586  -0.005934  2.142331  -0.008
O  O58  1  0.01298670  0.78086149  0.29603627  1  -0.57724  0.002334  1.924834  0.003  -0.526518  0.001123  2.139218  0.002  -0.55294  0.000373  2.132256  0.001  -0.295761  -0.50675  0.002411  2.143004  0.003
O  O59  1  0.71809603  0.72060299  0.70332443  1  -0.573983  -0.003104  1.922753  -0.005  -0.524098  -0.001315  2.1375  -0.002  -0.550513  -0.000358  2.130634  -0.001  -0.295179  -0.503832  -0.002922  2.140666  -0.004
O  O60  1  0.68138240  0.59646404  0.29063265  1  -0.549697  -0.086309  2.00264  -0.117  -0.541404  -0.048556  2.277128  -0.073  -0.58165  -0.033782  2.267869  -0.055  -0.308548  -0.513421  -0.059033  2.283251  -0.084
O  O61  1  0.39153195  0.90359161  0.70995278  1  -0.54759  -0.090122  2.003164  -0.123  -0.54111  -0.049846  2.278346  -0.076  -0.581987  -0.033662  2.269481  -0.055  -0.308026  -0.512881  -0.060943  2.284144  -0.088
O  O62  1  0.31912687  0.40365105  0.70967414  1  -0.548437  -0.087875  2.001355  -0.12  -0.541177  -0.048562  2.275767  -0.074  -0.581616  -0.032859  2.266613  -0.054  -0.308395  -0.513059  -0.060422  2.281895  -0.087
O  O63  1  0.60837719  0.09651194  0.29031967  1  -0.548745  0.095194  2.004087  0.12  -0.541626  0.052552  2.279096  0.075  -0.582235  0.037106  2.270084  0.056  -0.308583  -0.513545  0.061962  2.284874  0.085
O  O64  1  0.60715679  0.73106603  0.15161011  1  -0.581777  0.032049  2.137272  0.042  -0.559086  0.024343  2.429294  0.036  -0.599038  0.019867  2.420259  0.031  -0.30419  -0.528761  0.024767  2.434145  0.035
O  O65  1  0.45657511  0.76815326  0.84795742  1  -0.583292  -0.058551  2.136068  -0.079  -0.560421  -0.035189  2.426993  -0.053  -0.599644  -0.02351  2.417471  -0.038  -0.305074  -0.530394  -0.04655  2.431685  -0.066
O  O66  1  0.39265543  0.26871842  0.84832758  1  -0.583043  -0.059095  2.136756  -0.08  -0.559934  -0.035622  2.427633  -0.053  -0.599346  -0.02377  2.418462  -0.038  -0.304228  -0.529275  -0.046973  2.432273  -0.067
O  O67  1  0.54354591  0.23162567  0.15195867  1  -0.581576  -0.027786  2.137563  -0.04  -0.559268  -0.022225  2.429448  -0.035  -0.599194  -0.01791  2.420385  -0.03  -0.304525  -0.52935  -0.023536  2.434113  -0.035
O  O68  1  0.70700414  0.40894404  0.44866933  1  -0.769786  -0.063454  1.958738  -0.083  -0.735022  -0.044441  2.181288  -0.062  -0.766544  -0.034937  2.143224  -0.052  -0.567522  -0.713677  -0.049848  2.207491  -0.067
O  O69  1  0.25972965  0.09126201  0.55215710  1  -0.769608  -0.063668  1.956881  -0.083  -0.735253  -0.04462  2.178287  -0.062  -0.766748  -0.03505  2.141222  -0.051  -0.567933  -0.714087  -0.049619  2.205686  -0.066
O  O70  1  0.29112211  0.59118799  0.55095998  1  -0.771169  -0.064225  1.958046  -0.084  -0.736592  -0.044882  2.179442  -0.062  -0.767875  -0.035137  2.14166  -0.052  -0.568007  -0.715428  -0.050513  2.205626  -0.067
O  O71  1  0.74172971  0.90889349  0.44753679  1  -0.769396  0.067979  1.958868  0.082  -0.73584  0.046658  2.179498  0.061  -0.767346  0.037403  2.141238  0.051  -0.56836  -0.714484  0.050985  2.206816  0.065
