# generated using pymatgen
data_HgH16C22Br4(N3O)2
_symmetry_space_group_name_H-M   'P 1'
_cell_length_a   3.93929112
_cell_length_b   15.10501553
_cell_length_c   20.82900000
_cell_angle_alpha   90.99222713
_cell_angle_beta   90.00000000
_cell_angle_gamma   90.00000000
_symmetry_Int_Tables_number   1
_chemical_formula_structural   HgH16C22Br4(N3O)2
_chemical_formula_sum   'Hg2 H32 C44 Br8 N12 O4'
_cell_volume   1239.20325892
_cell_formula_units_Z   2
loop_
 _symmetry_equiv_pos_site_id
 _symmetry_equiv_pos_as_xyz
  1  'x, y, z'
loop_
 _atom_site_type_symbol
 _atom_site_label
 _atom_site_symmetry_multiplicity
 _atom_site_fract_x
 _atom_site_fract_y
 _atom_site_fract_z
 _atom_site_occupancy
 _atom_site_hle17_bader_spin_density
 _atom_site_hle17_ddec_charge
 _atom_site_hle17_ddec_spin_density
 _atom_site_hle17_ddec_sum_bond_order
 _atom_site_hle17_magmom
 _atom_site_hse06_10hf_bader_spin_density
 _atom_site_hse06_10hf_ddec_charge
 _atom_site_hse06_10hf_ddec_spin_density
 _atom_site_hse06_10hf_ddec_sum_bond_order
 _atom_site_hse06_10hf_magmom
 _atom_site_hse06_bader_spin_density
 _atom_site_hse06_ddec_charge
 _atom_site_hse06_ddec_spin_density
 _atom_site_hse06_ddec_sum_bond_order
 _atom_site_hse06_magmom
 _atom_site_pbe_bader_charge
 _atom_site_pbe_bader_spin_density
 _atom_site_pbe_cm5_charge
 _atom_site_pbe_ddec_charge
 _atom_site_pbe_ddec_spin_density
 _atom_site_pbe_ddec_sum_bond_order
 _atom_site_pbe_magmom
Hg  Hg0  1  0.00000000  0.00000000  0.00000000  1  0  0.61279  0  2.189135  0  0  0.472433  0  2.685135  0  0  0.521425  0  2.654414  0  0.69887  0  0.411096  0.438906  0  2.706303  0
Hg  Hg1  1  0.50000113  0.50000031  0.50000024  1  0  0.612775  0  2.18913  0  0  0.472422  0  2.685117  0  0  0.521414  0  2.654396  0  0.698832  0  0.411092  0.438895  0  2.706287  0
H  H2  1  0.59007063  0.81453904  0.77108642  1  0  0.083727  0  0.965189  0  0  0.083651  0  1.040693  0  0  0.087541  0  1.037994  0  0.094922  0  0.108464  0.080846  0  1.042748  0
H  H3  1  0.09007204  0.68545858  0.72891331  1  0  0.083736  0  0.965149  0  0  0.083648  0  1.040684  0  0  0.087539  0  1.037984  0  0.094671  0  0.108454  0.080841  0  1.042738  0
H  H4  1  0.40993162  0.18545959  0.22891405  1  0  0.083785  0  0.965145  0  0  0.083706  0  1.040643  0  0  0.087597  0  1.037943  0  0.094649  0  0.108477  0.080902  0  1.042693  0
H  H5  1  0.90992767  0.31454072  0.27108764  1  0  0.083788  0  0.965117  0  0  0.08369  0  1.040687  0  0  0.087581  0  1.037985  0  0.094709  0  0.108461  0.080889  0  1.042734  0
H  H6  1  0.68985001  0.94329373  0.84872569  1  0  0.075463  0  0.9954  0  0  0.073671  0  1.078519  0  0  0.07775  0  1.074664  0  0.140046  0  0.092718  0.070779  0  1.081284  0
H  H7  1  0.18985142  0.55670455  0.65127309  1  0  0.075512  0  0.995357  0  0  0.073677  0  1.078538  0  0  0.077753  0  1.074688  0  0.140125  0  0.092727  0.070785  0  1.081303  0
H  H8  1  0.31015479  0.05670490  0.15127382  1  0  0.075496  0  0.995313  0  0  0.073672  0  1.078456  0  0  0.077749  0  1.074605  0  0.140122  0  0.092722  0.070781  0  1.081219  0
H  H9  1  0.81015338  0.44329607  0.34872740  1  0  0.075528  0  0.995272  0  0  0.073678  0  1.078479  0  0  0.07776  0  1.07462  0  0.140103  0  0.092727  0.070786  0  1.081244  0
H  H10  1  0.17659015  0.77471054  0.97455236  1  0  0.100703  0  0.94929  0  0  0.101323  0  1.024965  0  0  0.10578  0  1.020759  0  0.126086  0  0.1143  0.098122  0  1.028014  0
H  H11  1  0.67659128  0.72528907  0.52544836  1  0  0.100693  0  0.94929  0  0  0.10131  0  1.024974  0  0  0.105767  0  1.020766  0  0.126066  0  0.114312  0.098108  0  1.028023  0
H  H12  1  0.82340957  0.22528876  0.02544859  1  0  0.100724  0  0.949284  0  0  0.101339  0  1.02495  0  0  0.105795  0  1.020744  0  0.12606  0  0.114328  0.098136  0  1.027999  0
H  H13  1  0.32340083  0.27471420  0.47455264  1  0  0.100702  0  0.949262  0  0  0.101305  0  1.024952  0  0  0.10576  0  1.020748  0  0.126031  0  0.114326  0.098105  0  1.028001  0
H  H14  1  0.88811664  0.28204664  0.77107614  1  0  0.101787  0  0.960471  0  0  0.113542  0  1.021592  0  0  0.115974  0  1.020706  0  0.078747  0  0.099961  0.11183  0  1.022215  0
H  H15  1  0.38811552  0.21795103  0.72892071  1  0  0.101741  0  0.960473  0  0  0.113533  0  1.021558  0  0  0.115969  0  1.020672  0  0.07886  0  0.099934  0.11182  0  1.022181  0
H  H16  1  0.11188307  0.71795399  0.22892291  1  0  0.101817  0  0.960448  0  0  0.113568  0  1.021576  0  0  0.116  0  1.020691  0  0.078774  0  0.099967  0.111856  0  1.0222  0
H  H17  1  0.61188674  0.78204893  0.27107881  1  0  0.101735  0  0.960456  0  0  0.113531  0  1.021539  0  0  0.115966  0  1.020654  0  0.078851  0  0.099933  0.111817  0  1.022163  0
H  H18  1  0.17434355  0.20931882  0.86265455  1  0  0.086504  0  0.983059  0  0  0.093517  0  1.05312  0  0  0.096611  0  1.051274  0  0.066489  0  0.081183  0.091245  0  1.054697  0
H  H19  1  0.67433706  0.29067884  0.63734326  1  0  0.086514  0  0.983112  0  0  0.093519  0  1.053175  0  0  0.096615  0  1.051328  0  0.06653  0  0.081189  0.091247  0  1.054753  0
H  H20  1  0.82565617  0.79068047  0.13734353  1  0  0.086511  0  0.98305  0  0  0.093501  0  1.053144  0  0  0.096594  0  1.051299  0  0.066499  0  0.081178  0.091227  0  1.05472  0
H  H21  1  0.32566265  0.70932112  0.36265625  1  0  0.086493  0  0.983156  0  0  0.093482  0  1.053239  0  0  0.096577  0  1.051392  0  0.066536  0  0.081179  0.091213  0  1.054811  0
H  H22  1  0.39206039  0.30233499  0.95469306  1  0  0.090293  0  0.959057  0  0  0.097544  0  1.026979  0  0  0.100055  0  1.025521  0  0.069597  0  0.09482  0.095757  0  1.028048  0
H  H23  1  0.89207421  0.19766333  0.54530620  1  0  0.090304  0  0.959016  0  0  0.097545  0  1.026953  0  0  0.100055  0  1.025496  0  0.069441  0  0.094815  0.095758  0  1.028021  0
H  H24  1  0.60794187  0.69766298  0.04530595  1  0  0.090333  0  0.959002  0  0  0.097575  0  1.026934  0  0  0.100087  0  1.025475  0  0.069497  0  0.094839  0.09579  0  1.027999  0
H  H25  1  0.10792805  0.80233729  0.45469333  1  0  0.09031  0  0.959015  0  0  0.097553  0  1.026951  0  0  0.100065  0  1.025492  0  0.069465  0  0.094824  0.095765  0  1.02802  0
H  H26  1  0.31345995  0.46417108  0.95540416  1  0  0.128906  0  0.955606  0  0  0.137129  0  1.01451  0  0  0.141107  0  1.011703  0  0.102185  0  0.111167  0.134269  0  1.016658  0
H  H27  1  0.81349154  0.03582725  0.54459558  1  0  0.128913  0  0.955509  0  0  0.137086  0  1.014471  0  0  0.141059  0  1.011675  0  0.102068  0  0.111193  0.134231  0  1.016611  0
H  H28  1  0.68654484  0.53582690  0.04459534  1  0  0.12898  0  0.955398  0  0  0.137092  0  1.014442  0  0  0.141068  0  1.01164  0  0.102135  0  0.111185  0.134237  0  1.01658  0
H  H29  1  0.18651071  0.96417404  0.45540396  1  0  0.128913  0  0.955443  0  0  0.137085  0  1.014406  0  0  0.141058  0  1.01161  0  0.102071  0  0.11118  0.13423  0  1.016546  0
H  H30  1  0.85966482  0.57987583  0.82531990  1  0  0.267822  0  0.95472  0  0  0.238113  0  1.047722  0  0  0.246758  0  1.039567  0  0.481102  0  0.291143  0.232004  0  1.053493  0
H  H31  1  0.35966116  0.92012511  0.67467988  1  0  0.267826  0  0.954677  0  0  0.238109  0  1.047699  0  0  0.246754  0  1.039544  0  0.481068  0  0.291144  0.232  0  1.053471  0
H  H32  1  0.14033997  0.42012480  0.17468107  1  0  0.267852  0  0.9547  0  0  0.238153  0  1.047684  0  0  0.246797  0  1.039529  0  0.48102  0  0.291172  0.232043  0  1.053454  0
H  H33  1  0.64033602  0.07987618  0.32532110  1  0  0.267855  0  0.95467  0  0  0.238135  0  1.047694  0  0  0.24678  0  1.039539  0  0.481079  0  0.291156  0.232025  0  1.053465  0
C  C34  1  0.72255132  0.80536257  0.81661859  1  0  0.076471  0  3.689859  0  0  0.055008  0  3.949572  0  0  0.055192  0  3.966748  0  0.524342  0  0.045046  0.054702  0  3.938107  0
C  C35  1  0.22255019  0.69463373  0.68338112  1  0  0.076439  0  3.68989  0  0  0.055013  0  3.949545  0  0  0.055195  0  3.966721  0  0.524547  0  0.044997  0.054715  0  3.938071  0
C  C36  1  0.27745093  0.19463541  0.18338186  1  0  0.076368  0  3.689826  0  0  0.054928  0  3.949481  0  0  0.055111  0  3.966655  0  0.524556  0  0.044987  0.054619  0  3.938026  0
C  C37  1  0.77744445  0.30536623  0.31661984  1  0  0.076332  0  3.689864  0  0  0.054863  0  3.949609  0  0  0.055049  0  3.966783  0  0.524593  0  0.044965  0.054548  0  3.938162  0
C  C38  1  0.77856140  0.87653040  0.85905824  1  0  0.068729  0  3.694629  0  0  0.041703  0  3.94942  0  0  0.045616  0  3.966836  0  0.470541  0  0.04096  0.038883  0  3.937943  0
C  C39  1  0.27856027  0.62346789  0.64094150  1  0  0.068607  0  3.694833  0  0  0.041595  0  3.949646  0  0  0.045521  0  3.967046  0  0.470376  0  0.040934  0.038774  0  3.938167  0
C  C40  1  0.22144340  0.12346824  0.14094174  1  0  0.068629  0  3.694553  0  0  0.041652  0  3.949337  0  0  0.045567  0  3.966755  0  0.470397  0  0.040964  0.038834  0  3.937856  0
C  C41  1  0.72143691  0.37653406  0.35905900  1  0  0.068646  0  3.694572  0  0  0.041669  0  3.949368  0  0  0.045579  0  3.966792  0  0.470367  0  0.040992  0.038849  0  3.937889  0
C  C42  1  0.04659468  0.78371817  0.92885723  1  0  0.078174  0  3.645749  0  0  0.043974  0  3.895853  0  0  0.047852  0  3.913091  0  0.559451  0  0.060781  0.041365  0  3.884383  0
C  C43  1  0.54659327  0.71627946  0.57114250  1  0  0.078244  0  3.645576  0  0  0.044026  0  3.895703  0  0  0.047906  0  3.912942  0  0.559487  0  0.060806  0.041413  0  3.884238  0
C  C44  1  0.95340758  0.21628113  0.07114325  1  0  0.078149  0  3.645565  0  0  0.043998  0  3.895653  0  0  0.047878  0  3.912891  0  0.559513  0  0.060769  0.041387  0  3.884188  0
C  C45  1  0.45339376  0.28372315  0.42885753  1  0  0.078239  0  3.645544  0  0  0.044018  0  3.895622  0  0  0.0479  0  3.912858  0  0.559553  0  0.060802  0.041411  0  3.884141  0
C  C46  1  0.99129257  0.71251326  0.88610121  1  0  0.07116  0  3.736283  0  0  0.076922  0  3.984508  0  0  0.074976  0  4.002856  0  0.511872  0  0.123135  0.07771  0  3.972474  0
C  C47  1  0.49128890  0.78748437  0.61389900  1  0  0.071141  0  3.7362  0  0  0.076944  0  3.984423  0  0  0.074993  0  4.002774  0  0.511791  0  0.123119  0.077725  0  3.972396  0
C  C48  1  0.00871477  0.28748538  0.11389973  1  0  0.071081  0  3.736257  0  0  0.076766  0  3.984572  0  0  0.074815  0  4.002921  0  0.511749  0  0.122993  0.077547  0  3.972535  0
C  C49  1  0.50869051  0.21251692  0.38610102  1  0  0.07106  0  3.736318  0  0  0.07698  0  3.984364  0  0  0.07503  0  4.002713  0  0.51196  0  0.123125  0.077762  0  3.972325  0
C  C50  1  0.12092785  0.62216084  0.90303656  1  0  0.511374  0  3.837147  0  0  0.464936  0  4.123348  0  0  0.49383  0  4.122449  0  1.431479  0  0.240572  0.445583  0  4.123454  0
C  C51  1  0.62092898  0.87783612  0.59696220  1  0  0.511187  0  3.837226  0  0  0.46468  0  4.12353  0  0  0.493576  0  4.122631  0  1.431449  0  0.240462  0.445334  0  4.123632  0
C  C52  1  0.87906933  0.37783780  0.09696246  1  0  0.511202  0  3.837331  0  0  0.464799  0  4.123529  0  0  0.493692  0  4.122628  0  1.431558  0  0.240537  0.445468  0  4.123596  0
C  C53  1  0.37905805  0.12216450  0.40303829  1  0  0.511209  0  3.83736  0  0  0.464693  0  4.123616  0  0  0.493587  0  4.122717  0  1.431531  0  0.240508  0.445362  0  4.123682  0
C  C54  1  0.05894969  0.46606146  0.86387622  1  0  0.203702  0  3.796071  0  0  0.192473  0  4.046694  0  0  0.199175  0  4.069366  0  0.389961  0  0.090232  0.188048  0  4.031267  0
C  C55  1  0.55896859  0.03393620  0.63612255  1  0  0.203515  0  3.796214  0  0  0.192373  0  4.046732  0  0  0.199076  0  4.069399  0  0.389481  0  0.09018  0.187944  0  4.031313  0
C  C56  1  0.94105256  0.53393784  0.13612330  1  0  0.203615  0  3.796242  0  0  0.192437  0  4.046793  0  0  0.19914  0  4.069458  0  0.390022  0  0.090133  0.188007  0  4.031369  0
C  C57  1  0.44103367  0.96606508  0.36387746  1  0  0.203705  0  3.795956  0  0  0.192458  0  4.046605  0  0  0.199161  0  4.069274  0  0.389474  0  0.090233  0.18803  0  4.03118  0
C  C58  1  0.94244621  0.41271158  0.81222348  1  0  -0.005742  0  3.69799  0  0  0.008568  0  3.961423  0  0  0.008497  0  3.983896  0  -0.098324  0  -0.024431  0.008399  0  3.946386  0
C  C59  1  0.44245778  0.08728741  0.68777530  1  0  -0.005644  0  3.697739  0  0  0.008576  0  3.961259  0  0  0.008504  0  3.983733  0  -0.098257  0  -0.024437  0.008407  0  3.946223  0
C  C60  1  0.05755604  0.58728838  0.18777555  1  0  -0.005789  0  3.697997  0  0  0.008498  0  3.961443  0  0  0.008426  0  3.983917  0  -0.098201  0  -0.024451  0.00833  0  3.946405  0
C  C61  1  0.55754701  0.91271189  0.31222469  1  0  -0.005789  0  3.697823  0  0  0.008479  0  3.961352  0  0  0.008407  0  3.983829  0  -0.098242  0  -0.024473  0.00831  0  3.946314  0
C  C62  1  0.98211579  0.32135603  0.81160195  1  0  -0.113989  0  3.799164  0  0  -0.134908  0  4.048599  0  0  -0.136281  0  4.070793  0  0.045204  0  -0.103308  -0.133755  0  4.033437  0
C  C63  1  0.48212228  0.17864097  0.68839585  1  0  -0.113853  0  3.798969  0  0  -0.13477  0  4.048391  0  0  -0.13615  0  4.070592  0  0.044772  0  -0.103234  -0.133616  0  4.033228  0
C  C64  1  0.01788393  0.67864393  0.18839661  1  0  -0.11398  0  3.799156  0  0  -0.134892  0  4.048586  0  0  -0.136266  0  4.070782  0  0.045224  0  -0.103261  -0.133738  0  4.033422  0
C  C65  1  0.51787998  0.82135899  0.31160415  1  0  -0.113787  0  3.799049  0  0  -0.13471  0  4.048459  0  0  -0.13609  0  4.070662  0  0.04478  0  -0.103217  -0.133556  0  4.033297  0
C  C66  1  0.14247995  0.28099848  0.86318022  1  0  -0.069694  0  3.768532  0  0  -0.084848  0  4.022373  0  0  -0.08933  0  4.046075  0  -0.060934  0  -0.099287  -0.08171  0  4.006103  0
C  C67  1  0.64248615  0.21899984  0.63681808  1  0  -0.069897  0  3.768641  0  0  -0.085058  0  4.022527  0  0  -0.089543  0  4.046231  0  -0.06062  0  -0.099375  -0.08192  0  4.006256  0
C  C68  1  0.85751977  0.71900082  0.13681833  1  0  -0.069753  0  3.768581  0  0  -0.0849  0  4.022469  0  0  -0.089381  0  4.046172  0  -0.060932  0  -0.099329  -0.081758  0  4.006194  0
C  C69  1  0.35751610  0.78100078  0.36318145  1  0  -0.069841  0  3.768574  0  0  -0.084987  0  4.02247  0  0  -0.089471  0  4.046175  0  -0.060619  0  -0.099329  -0.081851  0  4.006202  0
C  C70  1  0.26114597  0.33262683  0.91461593  1  0  -0.036874  0  3.751419  0  0  -0.053125  0  4.005867  0  0  -0.053482  0  4.0286  0  0.011541  0  -0.088013  -0.05264  0  3.990188  0
C  C71  1  0.76116741  0.16737017  0.58538379  1  0  -0.036772  0  3.751333  0  0  -0.053016  0  4.005777  0  0  -0.053371  0  4.028507  0  0.011763  0  -0.08795  -0.05253  0  3.990094  0
C  C72  1  0.73885375  0.66737181  0.08538309  1  0  -0.0369  0  3.751465  0  0  -0.053135  0  4.005895  0  0  -0.053492  0  4.028624  0  0.011623  0  -0.088035  -0.05265  0  3.99021  0
C  C73  1  0.23883485  0.83262979  0.41461621  1  0  -0.036815  0  3.751299  0  0  -0.053065  0  4.005743  0  0  -0.053421  0  4.028472  0  0.011759  0  -0.087997  -0.052581  0  3.990067  0
C  C74  1  0.22007259  0.42414261  0.91537054  1  0  -0.127201  0  3.662504  0  0  -0.148435  0  3.913936  0  0  -0.153043  0  3.933926  0  0.013825  0  -0.086251  -0.145383  0  3.900449  0
C  C75  1  0.72009910  0.07585439  0.58462918  1  0  -0.127162  0  3.662407  0  0  -0.148365  0  3.913823  0  0  -0.152971  0  3.933813  0  0.013713  0  -0.086252  -0.145317  0  3.900337  0
C  C76  1  0.77993220  0.57585603  0.08462896  1  0  -0.127176  0  3.662381  0  0  -0.148329  0  3.913806  0  0  -0.152936  0  3.933794  0  0.013735  0  -0.086203  -0.145277  0  3.900316  0
C  C77  1  0.27990569  0.92414490  0.41537033  1  0  -0.127228  0  3.662316  0  0  -0.14839  0  3.913755  0  0  -0.152997  0  3.933747  0  0.013727  0  -0.086264  -0.145341  0  3.900268  0
Br  Br78  1  0.60057252  0.09281819  0.93181854  1  0  -0.364767  0  1.180819  0  0  -0.310534  0  1.511807  0  0  -0.32948  0  1.492623  0  -0.397181  0  -0.188519  -0.297803  0  1.525659  0
Br  Br79  1  0.10057139  0.40718146  0.56818121  1  0  -0.364756  0  1.180812  0  0  -0.310518  0  1.511789  0  0  -0.329468  0  1.492611  0  -0.397288  0  -0.188509  -0.297791  0  1.525644  0
Br  Br80  1  0.39942973  0.90718111  0.06818049  1  0  -0.364767  0  1.18082  0  0  -0.310528  0  1.511783  0  0  -0.329477  0  1.492606  0  -0.397381  0  -0.188517  -0.297798  0  1.525638  0
Br  Br81  1  0.89942832  0.59281983  0.43181880  1  0  -0.36476  0  1.180809  0  0  -0.31052  0  1.511775  0  0  -0.329472  0  1.492599  0  -0.397193  0  -0.188511  -0.297791  0  1.525627  0
Br  Br82  1  0.72942058  0.46585024  0.73992282  1  0  -0.066962  0  1.384037  0  0  -0.053185  0  1.666233  0  0  -0.059684  0  1.659568  0  -0.091263  0  0.054148  -0.048382  0  1.671041  0
Br  Br83  1  0.22942453  0.03414808  0.76007500  1  0  -0.067005  0  1.383974  0  0  -0.05321  0  1.666208  0  0  -0.059702  0  1.659528  0  -0.091165  0  0.054136  -0.048408  0  1.671017  0
Br  Br84  1  0.27057914  0.53415104  0.26007719  1  0  -0.066941  0  1.38403  0  0  -0.053159  0  1.666221  0  0  -0.059653  0  1.659549  0  -0.091361  0  0.054162  -0.048353  0  1.671028  0
Br  Br85  1  0.77058534  0.96585121  0.23992499  1  0  -0.066974  0  1.383981  0  0  -0.053202  0  1.666217  0  0  -0.059689  0  1.659524  0  -0.091221  0  0.054135  -0.048397  0  1.671023  0
N  N86  1  0.82750929  0.72340664  0.83016523  1  0  -0.289283  0  3.091934  0  0  -0.256139  0  3.355173  0  0  -0.262255  0  3.369649  0  -1.219004  0  -0.297371  -0.251582  0  3.345455  0
N  N87  1  0.32750563  0.77659165  0.66983499  1  0  -0.289233  0  3.091814  0  0  -0.256123  0  3.355066  0  0  -0.262238  0  3.369541  0  -1.218786  0  -0.297314  -0.251571  0  3.345352  0
N  N88  1  0.17250058  0.27659134  0.16983475  1  0  -0.289189  0  3.091962  0  0  -0.256025  0  3.355209  0  0  -0.262136  0  3.369682  0  -1.21879  0  -0.297254  -0.251466  0  3.34549  0
N  N89  1  0.67248140  0.22341030  0.33016551  1  0  -0.289145  0  3.091836  0  0  -0.25605  0  3.35503  0  0  -0.262165  0  3.369504  0  -1.218819  0  -0.297294  -0.251491  0  3.34531  0
N  N90  1  0.93938983  0.86512321  0.91493928  1  0  -0.2496  0  3.201194  0  0  -0.187655  0  3.461962  0  0  -0.203114  0  3.483008  0  -1.188267  0  -0.29533  -0.17676  0  3.447248  0
N  N91  1  0.43939124  0.63487641  0.58506047  1  0  -0.249514  0  3.201181  0  0  -0.187552  0  3.461937  0  0  -0.203013  0  3.482977  0  -1.188365  0  -0.295313  -0.17666  0  3.447229  0
N  N92  1  0.06061497  0.13487543  0.08506118  1  0  -0.249486  0  3.201014  0  0  -0.187575  0  3.461798  0  0  -0.203034  0  3.48284  0  -1.188308  0  -0.295319  -0.176683  0  3.44709  0
N  N93  1  0.56060340  0.36512620  0.41493956  1  0  -0.249566  0  3.201172  0  0  -0.187634  0  3.461953  0  0  -0.203086  0  3.482982  0  -1.188507  0  -0.295405  -0.176739  0  3.447245  0
N  N94  1  0.00747596  0.55742098  0.86203584  1  0  -0.420009  0  3.420628  0  0  -0.367156  0  3.664903  0  0  -0.388997  0  3.673807  0  -1.297975  0  -0.396426  -0.352135  0  3.658285  0
N  N95  1  0.50747709  0.94257797  0.63796390  1  0  -0.419865  0  3.420606  0  0  -0.367013  0  3.664868  0  0  -0.388856  0  3.673775  0  -1.29747  0  -0.39637  -0.351994  0  3.658246  0
N  N96  1  0.99253391  0.44257898  0.13796512  1  0  -0.420002  0  3.420784  0  0  -0.367161  0  3.665012  0  0  -0.389013  0  3.673942  0  -1.29791  0  -0.396441  -0.352157  0  3.658416  0
N  N97  1  0.49252009  0.05742331  0.36203611  1  0  -0.41993  0  3.420654  0  0  -0.367049  0  3.664938  0  0  -0.388894  0  3.673848  0  -1.29748  0  -0.396365  -0.352042  0  3.65833  0
O  O98  1  0.31267047  0.61261490  0.94950174  1  0  -0.507116  0  1.918626  0  0  -0.462324  0  2.131047  0  0  -0.481782  0  2.127184  0  -1.113749  0  -0.275236  -0.448863  0  2.133286  0
O  O99  1  0.81266398  0.88738273  0.55049799  1  0  -0.50706  0  1.918747  0  0  -0.462223  0  2.131172  0  0  -0.481676  0  2.127304  0  -1.113724  0  -0.275199  -0.448745  0  2.13336  0
O  O100  1  0.68733686  0.38738374  0.05050065  1  0  -0.506951  0  1.918904  0  0  -0.462174  0  2.131332  0  0  -0.481622  0  2.127462  0  -1.1138  0  -0.275156  -0.448704  0  2.133516  0
O  O101  1  0.18733066  0.11261723  0.44950153  1  0  -0.50704  0  1.918761  0  0  -0.462228  0  2.131203  0  0  -0.48168  0  2.127335  0  -1.113882  0  -0.275236  -0.448774  0  2.133421  0
