# generated using pymatgen
data_ZnH9C16NO4F
_symmetry_space_group_name_H-M   'P 1'
_cell_length_a   10.92934862
_cell_length_b   10.96385032
_cell_length_c   14.66602089
_cell_angle_alpha   82.21119698
_cell_angle_beta   85.57090310
_cell_angle_gamma   88.57215009
_symmetry_Int_Tables_number   1
_chemical_formula_structural   ZnH9C16NO4F
_chemical_formula_sum   'Zn4 H36 C64 N4 O16 F4'
_cell_volume   1735.79747205
_cell_formula_units_Z   4
loop_
 _symmetry_equiv_pos_site_id
 _symmetry_equiv_pos_as_xyz
  1  'x, y, z'
loop_
 _atom_site_type_symbol
 _atom_site_label
 _atom_site_symmetry_multiplicity
 _atom_site_fract_x
 _atom_site_fract_y
 _atom_site_fract_z
 _atom_site_occupancy
 _atom_site_pbe_bader_charge
 _atom_site_pbe_bader_spin_density
 _atom_site_pbe_cm5_charge
 _atom_site_pbe_ddec_charge
 _atom_site_pbe_ddec_spin_density
 _atom_site_pbe_ddec_sum_bond_order
 _atom_site_pbe_magmom
Zn  Zn0  1  0.44730441  0.78368528  0.39448747  1  1.31292  0  0.686016  0.858319  0  2.351897  0
Zn  Zn1  1  0.45293528  0.82223270  0.18955688  1  1.307913  0  0.681989  0.858874  0  2.346401  0
Zn  Zn2  1  0.55269429  0.21631546  0.60551227  1  1.313015  0  0.68605  0.85838  0  2.35181  0
Zn  Zn3  1  0.54706434  0.17776711  0.81044290  1  1.307968  0  0.682018  0.858885  0  2.34643  0
H  H4  1  0.85196068  0.77011077  0.45257084  1  0.107925  0  0.101787  0.10671  0  1.007206  0
H  H5  1  0.08200383  0.78297241  0.42456320  1  0.104424  0  0.098624  0.104395  0  1.021603  0
H  H6  1  0.04837050  0.83366052  0.13214004  1  0.088835  0  0.098478  0.10361  0  1.025543  0
H  H7  1  0.81936556  0.82147906  0.16008434  1  0.09018  0  0.097761  0.103317  0  1.033361  0
H  H8  1  0.36760955  0.16350908  0.43002943  1  0.131756  0  0.104938  0.111339  0  1.020455  0
H  H9  1  0.36436976  0.38928676  0.43250109  1  0.073608  0  0.105696  0.113298  0  1.006703  0
H  H10  1  0.53045126  0.44366282  0.15474611  1  0.068076  0  0.099626  0.099793  0  1.014292  0
H  H11  1  0.53696701  0.21484820  0.15326418  1  0.077931  0  0.099695  0.101321  0  1.019158  0
H  H12  1  0.37105091  0.96042516  0.52544490  1  0.143493  0  0.124197  0.103848  0  1.003445  0
H  H13  1  0.21055688  0.97016942  0.65456898  1  0.101322  0  0.10766  0.119403  0  1.025949  0
H  H14  1  0.15265778  0.58140219  0.65334393  1  0.104151  0  0.114685  0.125004  0  0.985677  0
H  H15  1  0.31700344  0.58833218  0.52358878  1  0.135047  0  0.126571  0.103238  0  0.983515  0
H  H16  1  0.93697743  0.68631210  0.66575909  1  0.099898  0  0.109366  0.114887  0  0.986685  0
H  H17  1  0.76255270  0.70443138  0.78088948  1  0.094558  0  0.104427  0.108889  0  1.036084  0
H  H18  1  0.69553893  0.62648473  0.93631767  1  0.079563  0  0.113619  0.122893  0  0.990551  0
H  H19  1  0.52001941  0.64866009  0.05339026  1  0.128125  0  0.120712  0.094513  0  0.993499  0
H  H20  1  0.61115353  0.00735177  0.07299872  1  0.124185  0  0.12218  0.09785  0  0.991576  0
H  H21  1  0.78740422  0.00340991  0.95476321  1  0.123775  0  0.112176  0.129998  0  1.007919  0
H  H22  1  0.14803988  0.22988813  0.54742761  1  0.108254  0  0.101771  0.10669  0  1.007203  0
H  H23  1  0.91799579  0.21702742  0.57543385  1  0.104387  0  0.098632  0.104395  0  1.021652  0
H  H24  1  0.95162637  0.16633931  0.86785853  1  0.08885  0  0.098468  0.103607  0  1.025463  0
H  H25  1  0.18063219  0.17852352  0.83991459  1  0.090202  0  0.097778  0.103338  0  1.033407  0
H  H26  1  0.63239098  0.83649165  0.56997021  1  0.131758  0  0.104966  0.111392  0  1.020301  0
H  H27  1  0.63563077  0.61071397  0.56749923  1  0.073626  0  0.105734  0.113355  0  1.006616  0
H  H28  1  0.46954835  0.55633792  0.84525358  1  0.068053  0  0.099635  0.099813  0  1.014253  0
H  H29  1  0.46303352  0.78515254  0.84673546  1  0.077919  0  0.099712  0.101376  0  1.019144  0
H  H30  1  0.62895053  0.03957650  0.47455391  1  0.143516  0  0.124216  0.103837  0  1.003413  0
H  H31  1  0.78944546  0.02983315  0.34543105  1  0.101353  0  0.107679  0.119422  0  1.025931  0
H  H32  1  0.84734179  0.41860130  0.34665753  1  0.102882  0  0.114666  0.124953  0  0.9857  0
H  H33  1  0.68299617  0.41166855  0.47641296  1  0.135434  0  0.126563  0.10323  0  0.98354  0
H  H34  1  0.06302310  0.31368863  0.33424054  1  0.099899  0  0.109347  0.114892  0  0.986706  0
H  H35  1  0.23744786  0.29556752  0.21911033  1  0.09453  0  0.104423  0.1089  0  1.036088  0
H  H36  1  0.30445982  0.37351141  0.06368184  1  0.079345  0  0.113603  0.12288  0  0.990591  0
H  H37  1  0.47998022  0.35133972  0.94661020  1  0.12815  0  0.120693  0.094498  0  0.993493  0
H  H38  1  0.38884796  0.99264621  0.92699977  1  0.124143  0  0.122202  0.097921  0  0.991555  0
H  H39  1  0.21259729  0.99658622  0.04523615  1  0.123748  0  0.112128  0.129964  0  1.007941  0
C  C40  1  0.82252414  0.79451032  0.30779708  1  0.040354  0  -0.021201  -0.036474  0  3.977849  0
C  C41  1  0.89609730  0.78366522  0.38277070  1  -0.09123  0  -0.090934  -0.110726  0  4.004307  0
C  C42  1  0.02311278  0.79107472  0.36734201  1  -0.029329  0  -0.089389  -0.096445  0  3.976904  0
C  C43  1  0.07838194  0.80929184  0.27695988  1  -0.033785  0  -0.016979  -0.024244  0  3.956233  0
C  C44  1  0.00485309  0.81996991  0.20206361  1  -0.009146  0  -0.090438  -0.105837  0  3.988956  0
C  C45  1  0.87790187  0.81263129  0.21746120  1  -0.121183  0  -0.090068  -0.097159  0  3.977876  0
C  C46  1  0.68528362  0.78939837  0.32221965  1  1.528927  0  0.205155  0.578968  0  4.195645  0
C  C47  1  0.21555608  0.81578167  0.26231260  1  1.571324  0  0.207445  0.589603  0  4.174764  0
C  C48  1  0.45145488  0.17550947  0.29081942  1  -0.008444  0  -0.01718  -0.033746  0  3.970339  0
C  C49  1  0.40229378  0.22470897  0.36932948  1  -0.05836  0  -0.085259  -0.097918  0  3.97413  0
C  C50  1  0.39980039  0.35137913  0.37061449  1  0.010483  0  -0.08623  -0.101036  0  3.969255  0
C  C51  1  0.44530431  0.43045463  0.29292045  1  -0.00457  0  -0.017064  -0.028863  0  3.972795  0
C  C52  1  0.49434043  0.38113423  0.21434554  1  -0.080812  0  -0.09261  -0.111198  0  4.008805  0
C  C53  1  0.49801633  0.25445530  0.21343188  1  -0.079003  0  -0.090035  -0.105543  0  4.011961  0
C  C54  1  0.45531980  0.03924042  0.28962750  1  1.565598  0  0.218439  0.598728  0  4.15978  0
C  C55  1  0.44404773  0.56693666  0.29376165  1  1.562738  0  0.216074  0.59692  0  4.169421  0
C  C56  1  0.32052969  0.87877927  0.55611829  1  0.489423  0  0.058196  0.11367  0  3.901172  0
C  C57  1  0.23138229  0.88320776  0.62826564  1  -0.007344  0  -0.077336  -0.16555  0  3.911216  0
C  C58  1  0.16650118  0.77643673  0.66390714  1  -0.016855  0  0.016324  0.129275  0  3.991998  0
C  C59  1  0.19813490  0.66765743  0.62656582  1  -0.05715  0  -0.078394  -0.179327  0  3.936097  0
C  C60  1  0.28950831  0.67034846  0.55502437  1  0.474844  0  0.058708  0.108553  0  3.925751  0
C  C61  1  0.06477353  0.78050344  0.73561244  1  0.037937  0  -0.010209  -0.027783  0  4.033093  0
C  C62  1  0.94983757  0.73037883  0.72661728  1  -0.017228  0  -0.085216  -0.114249  0  3.990504  0
C  C63  1  0.85169598  0.74049831  0.79138221  1  -0.01982  0  -0.083814  -0.107811  0  3.975905  0
C  C64  1  0.86335744  0.80116748  0.86878088  1  0.023744  0  -0.008716  -0.022339  0  4.000905  0
C  C65  1  0.97884306  0.84806569  0.87873260  1  0.506272  0  0.097164  0.132822  0  4.059364  0
C  C66  1  0.07714238  0.83824067  0.81368862  1  0.512009  0  0.095811  0.133604  0  4.063328  0
C  C67  1  0.75849351  0.81264625  0.93680122  1  -0.046883  0  0.020826  0.138115  0  3.959601  0
C  C68  1  0.67951779  0.71321061  0.96409810  1  0.028715  0  -0.07782  -0.174273  0  3.948084  0
C  C69  1  0.58130929  0.72486710  0.02833708  1  0.421252  0  0.0505  0.09749  0  3.944603  0
C  C70  1  0.63269787  0.92561046  0.03966613  1  0.459703  0  0.056913  0.106655  0  3.922442  0
C  C71  1  0.73250490  0.92152918  0.97550565  1  0.048501  0  -0.070202  -0.153152  0  3.895743  0
C  C72  1  0.17747363  0.20549042  0.69220203  1  0.040329  0  -0.021199  -0.03645  0  3.977933  0
C  C73  1  0.10390144  0.21633184  0.61722940  1  -0.091782  0  -0.090933  -0.110769  0  4.004367  0
C  C74  1  0.97688506  0.20892142  0.63265755  1  -0.02913  0  -0.089361  -0.096357  0  3.977014  0
C  C75  1  0.92161678  0.19070707  0.72303868  1  -0.034142  0  -0.016993  -0.024321  0  3.956371  0
C  C76  1  0.99514561  0.18003084  0.79793408  1  -0.008639  0  -0.090421  -0.105818  0  3.988998  0
C  C77  1  0.12209498  0.18737037  0.78253787  1  -0.121292  0  -0.090077  -0.097163  0  3.977987  0
C  C78  1  0.31471507  0.21060237  0.67778077  1  1.528941  0  0.205104  0.578913  0  4.195605  0
C  C79  1  0.78444262  0.18421815  0.73768654  1  1.571328  0  0.207449  0.589704  0  4.17472  0
C  C80  1  0.54854567  0.82448942  0.70918245  1  -0.008435  0  -0.017175  -0.033755  0  3.970442  0
C  C81  1  0.59770676  0.77529083  0.63067161  1  -0.058364  0  -0.085242  -0.097911  0  3.974026  0
C  C82  1  0.60020103  0.64862344  0.62938560  1  0.010495  0  -0.086284  -0.101092  0  3.969226  0
C  C83  1  0.55469621  0.56954702  0.70708046  1  -0.004579  0  -0.017089  -0.02888  0  3.972842  0
C  C84  1  0.50565922  0.61886375  0.78565374  1  -0.080787  0  -0.092585  -0.111163  0  4.008611  0
C  C85  1  0.50198509  0.74554727  0.78656888  1  -0.079026  0  -0.090051  -0.105605  0  4.011952  0
C  C86  1  0.54467981  0.96076032  0.71037219  1  1.56543  0  0.218375  0.598501  0  4.159857  0
C  C87  1  0.55595462  0.43306499  0.70623779  1  1.562913  0  0.216054  0.596875  0  4.169394  0
C  C88  1  0.67946992  0.12122146  0.44388208  1  0.489402  0  0.058202  0.113749  0  3.9012  0
C  C89  1  0.76861823  0.11679389  0.37173527  1  -0.007368  0  -0.077399  -0.16564  0  3.911188  0
C  C90  1  0.83350026  0.22356493  0.33609167  1  -0.016823  0  0.016342  0.129229  0  3.992021  0
C  C91  1  0.80186561  0.33234422  0.37343509  1  -0.055896  0  -0.078358  -0.179219  0  3.935993  0
C  C92  1  0.71049130  0.32965227  0.44497668  1  0.474429  0  0.058694  0.108509  0  3.925739  0
C  C93  1  0.93522515  0.21949820  0.26438925  1  0.037874  0  -0.010193  -0.027662  0  4.033013  0
C  C94  1  0.05016021  0.26962191  0.27338251  1  -0.017198  0  -0.085227  -0.114352  0  3.990545  0
C  C95  1  0.14830550  0.25949966  0.20861696  1  -0.019856  0  -0.083816  -0.107798  0  3.976037  0
C  C96  1  0.13664313  0.19882957  0.13121980  1  0.023801  0  -0.008738  -0.022401  0  4.00122  0
C  C97  1  0.02115568  0.15193136  0.12126819  1  0.506359  0  0.097229  0.132936  0  4.059442  0
C  C98  1  0.92285816  0.16175913  0.18631247  1  0.511995  0  0.095785  0.133522  0  4.063235  0
C  C99  1  0.24150703  0.18735357  0.06319782  1  -0.046862  0  0.020793  0.138071  0  3.959619  0
C  C100  1  0.32048186  0.28678737  0.03590254  1  0.028937  0  -0.077808  -0.17425  0  3.94827  0
C  C101  1  0.41869037  0.27512994  0.97166433  1  0.421278  0  0.050547  0.09749  0  3.944632  0
C  C102  1  0.36730450  0.07438935  0.96033350  1  0.459703  0  0.056832  0.10649  0  3.922532  0
C  C103  1  0.26749659  0.07846787  0.02449362  1  0.048524  0  -0.070094  -0.153012  0  3.895528  0
N  N104  1  0.34862153  0.77439354  0.51965291  1  -1.233397  0  -0.324884  -0.220814  0  3.544576  0
N  N105  1  0.55816509  0.82908091  0.06615261  1  -1.231647  0  -0.327606  -0.229622  0  3.546344  0
N  N106  1  0.65137901  0.22560628  0.48034614  1  -1.23341  0  -0.324879  -0.220801  0  3.544648  0
N  N107  1  0.44183545  0.17091889  0.93384848  1  -1.231705  0  -0.327581  -0.22955  0  3.546453  0
O  O108  1  0.63549082  0.77794391  0.40485937  1  -1.163118  0  -0.319732  -0.544538  0  2.270428  0
O  O109  1  0.62694484  0.79803572  0.25019244  1  -1.192242  0  -0.317671  -0.572967  0  2.377142  0
O  O110  1  0.27396243  0.80393026  0.33446102  1  -1.198577  0  -0.319706  -0.577531  0  2.371264  0
O  O111  1  0.26519167  0.83203541  0.17963721  1  -1.158273  0  -0.323824  -0.547434  0  2.254711  0
O  O112  1  0.45511680  0.97222906  0.36755756  1  -1.172581  0  -0.310039  -0.550431  0  2.370123  0
O  O113  1  0.45877611  0.00204759  0.21074773  1  -1.168245  0  -0.314913  -0.54864  0  2.339671  0
O  O114  1  0.44290299  0.63363102  0.21568598  1  -1.16274  0  -0.316987  -0.555426  0  2.348885  0
O  O115  1  0.44473939  0.60414143  0.37233544  1  -1.165477  0  -0.31382  -0.54471  0  2.334168  0
O  O116  1  0.36450788  0.22205591  0.59514114  1  -1.163117  0  -0.319738  -0.544541  0  2.270316  0
O  O117  1  0.37305290  0.20196778  0.74980776  1  -1.192243  0  -0.317643  -0.572924  0  2.377141  0
O  O118  1  0.72603531  0.19607324  0.66553850  1  -1.19871  0  -0.319751  -0.577657  0  2.371237  0
O  O119  1  0.73480889  0.16796256  0.82036202  1  -1.15825  0  -0.323811  -0.547441  0  2.254734  0
O  O120  1  0.54488372  0.02777260  0.63244130  1  -1.172397  0  -0.310039  -0.550317  0  2.370074  0
O  O121  1  0.54121983  0.99795315  0.78925285  1  -1.168299  0  -0.314925  -0.548605  0  2.339756  0
O  O122  1  0.55709848  0.36636787  0.78431311  1  -1.16279  0  -0.316966  -0.555399  0  2.348907  0
O  O123  1  0.55526021  0.39586022  0.62766415  1  -1.165584  0  -0.31383  -0.544732  0  2.334165  0
F  F124  1  0.18703419  0.88301597  0.82977045  1  -0.626316  0  -0.084634  -0.111049  0  1.385279  0
F  F125  1  0.99995099  0.90080724  0.95437784  1  -0.625743  0  -0.078839  -0.109068  0  1.434992  0
F  F126  1  0.81296451  0.11698384  0.17023143  1  -0.626303  0  -0.084634  -0.111036  0  1.385301  0
F  F127  1  0.00004865  0.09919165  0.04562271  1  -0.625789  0  -0.078856  -0.109094  0  1.435019  0
