# generated using pymatgen
data_FePH3CO7
_symmetry_space_group_name_H-M   'P 1'
_cell_length_a   6.49725339
_cell_length_b   8.42652531
_cell_length_c   11.11631239
_cell_angle_alpha   104.93084184
_cell_angle_beta   89.99928081
_cell_angle_gamma   89.99987500
_symmetry_Int_Tables_number   1
_chemical_formula_structural   FePH3CO7
_chemical_formula_sum   'Fe4 P4 H12 C4 O28'
_cell_volume   588.06181093
_cell_formula_units_Z   4
loop_
 _symmetry_equiv_pos_site_id
 _symmetry_equiv_pos_as_xyz
  1  'x, y, z'
loop_
 _atom_site_type_symbol
 _atom_site_label
 _atom_site_symmetry_multiplicity
 _atom_site_fract_x
 _atom_site_fract_y
 _atom_site_fract_z
 _atom_site_occupancy
 _atom_site_hle17_ddec_charge
 _atom_site_hle17_ddec_spin_density
 _atom_site_hle17_ddec_sum_bond_order
 _atom_site_hle17_magmom
 _atom_site_hse06_10hf_ddec_charge
 _atom_site_hse06_10hf_ddec_spin_density
 _atom_site_hse06_10hf_ddec_sum_bond_order
 _atom_site_hse06_10hf_magmom
 _atom_site_hse06_ddec_charge
 _atom_site_hse06_ddec_spin_density
 _atom_site_hse06_ddec_sum_bond_order
 _atom_site_hse06_magmom
 _atom_site_pbe_cm5_charge
 _atom_site_pbe_ddec_charge
 _atom_site_pbe_ddec_spin_density
 _atom_site_pbe_ddec_sum_bond_order
 _atom_site_pbe_magmom
Fe  Fe0  1  0.80600487  0.24832170  0.42180450  1  1.582267  4.594046  2.060561  4.074  1.549123  4.620057  2.481052  4.15  1.700083  4.695106  2.369024  4.28  0.918505  1.442191  4.560308  2.556609  4.049
Fe  Fe1  1  0.30598505  0.25167693  0.07819928  1  1.582226  4.594092  2.060814  4.074  1.549022  4.620106  2.481321  4.15  1.699955  4.695142  2.369348  4.28  0.918473  1.442073  4.560346  2.556934  4.049
Fe  Fe2  1  0.19399315  0.75168245  0.57818723  1  1.582197  4.594091  2.06093  4.074  1.548982  4.620078  2.481433  4.15  1.699899  4.695115  2.369492  4.28  0.918527  1.442046  4.560332  2.556998  4.049
Fe  Fe3  1  0.69397295  0.74833048  0.92181831  1  1.582053  4.594009  2.060636  4.074  1.548876  4.620006  2.481153  4.15  1.699823  4.695057  2.369144  4.28  0.918481  1.441961  4.560235  2.55668  4.049
P  P4  1  0.55389681  0.99163854  0.19672789  1  1.834305  0.011592  4.766936  0.012  1.667486  0.018783  5.290592  0.02  1.744444  0.014457  5.225765  0.018  0.454063  1.612312  0.02266  5.335402  0.023
P  P5  1  0.05386649  0.50836982  0.30327093  1  1.834245  0.011594  4.766816  0.012  1.667325  0.018793  5.29055  0.02  1.744291  0.014461  5.225734  0.018  0.453988  1.612145  0.022665  5.335337  0.023
P  P6  1  0.44612583  0.00835947  0.80326348  1  1.834333  0.01159  4.766753  0.012  1.667474  0.018786  5.290431  0.02  1.744442  0.014459  5.225597  0.018  0.45408  1.612291  0.022662  5.335263  0.023
P  P7  1  0.94610382  0.49165979  0.69674580  1  1.834063  0.011585  4.767241  0.012  1.667215  0.018779  5.290902  0.02  1.744176  0.014454  5.226089  0.018  0.454022  1.612033  0.022656  5.33571  0.023
H  H8  1  0.36601015  0.87109153  0.31173115  1  0.442615  2.4e-05  0.846795  0.0  0.413932  0.000269  0.904404  0.001  0.426474  0.000102  0.886101  0.0  0.318727  0.404968  0.00043  0.91748  0.001
H  H9  1  0.86600154  0.62889967  0.18824665  1  0.442759  2.4e-05  0.846585  0.0  0.413968  0.000269  0.904362  0.001  0.426497  0.000102  0.886084  0.0  0.318751  0.405002  0.00043  0.91744  0.001
H  H10  1  0.63400172  0.12891034  0.68825022  1  0.442888  2.4e-05  0.846441  0.0  0.41405  0.000269  0.904274  0.001  0.42658  0.000103  0.885994  0.0  0.31871  0.405092  0.00043  0.917342  0.001
H  H11  1  0.13398416  0.37109956  0.81174497  1  0.442781  2.4e-05  0.846548  0.0  0.413907  0.000269  0.904444  0.001  0.426445  0.000103  0.886149  0.0  0.318686  0.404948  0.00043  0.917515  0.001
H  H12  1  0.41051838  0.36901596  0.49115714  1  0.47014  0.000541  0.766066  0.003  0.452689  0.001015  0.816941  0.004  0.464365  0.000725  0.804456  0.003  0.342957  0.444151  0.001288  0.82613  0.004
H  H13  1  0.91060760  0.13068901  0.00883803  1  0.470124  0.000546  0.766045  0.003  0.452627  0.001018  0.816972  0.004  0.464312  0.000728  0.804476  0.003  0.342861  0.444086  0.001291  0.82619  0.004
H  H14  1  0.58941499  0.63076864  0.50884548  1  0.470096  0.000545  0.766168  0.003  0.452613  0.001017  0.817073  0.004  0.464298  0.000727  0.804579  0.003  0.342865  0.444064  0.001291  0.826279  0.004
H  H15  1  0.08950431  0.86894412  0.99115791  1  0.469934  0.00054  0.766296  0.003  0.452497  0.001014  0.817162  0.004  0.464168  0.000724  0.804688  0.003  0.342849  0.443968  0.001287  0.826349  0.004
H  H16  1  0.42469223  0.26854286  0.34712745  1  0.455272  -0.000634  0.83374  0.0  0.425115  8.8e-05  0.897507  0.001  0.439005  -0.000261  0.877463  0.001  0.312377  0.415165  0.000404  0.911857  0.002
H  H17  1  0.92460565  0.23149946  0.15281154  1  0.455293  -0.000628  0.834074  0.0  0.425215  9.1e-05  0.897427  0.001  0.4391  -0.000257  0.877393  0.001  0.312571  0.415272  0.000408  0.911767  0.002
H  H18  1  0.57537812  0.73149378  0.65283854  1  0.455108  -0.00063  0.833786  0.0  0.424991  9.1e-05  0.89763  0.001  0.438882  -0.000258  0.877588  0.001  0.312375  0.415036  0.000407  0.911984  0.002
H  H19  1  0.07528309  0.76854646  0.84711676  1  0.45538  -0.000634  0.833707  0.0  0.425257  8.7e-05  0.89734  0.001  0.439145  -0.000261  0.877297  0.001  0.31244  0.415314  0.000404  0.911679  0.002
C  C20  1  0.90419187  0.98510038  0.53673291  1  0.575381  -0.010243  3.845468  -0.007  0.531208  -0.000675  4.145523  0.0  0.5655  -0.003194  4.140257  -0.002  0.233877  0.507731  0.001866  4.148659  0.002
C  C21  1  0.40419957  0.51493723  0.96328428  1  0.575077  -0.010254  3.845754  -0.007  0.53106  -0.000674  4.145631  0.0  0.565357  -0.003197  4.140364  -0.002  0.23372  0.507591  0.001867  4.148767  0.002
C  C22  1  0.09582154  0.01491833  0.46327259  1  0.575287  -0.010243  3.845366  -0.007  0.531321  -0.000674  4.145252  0.0  0.565621  -0.003193  4.139974  -0.002  0.233848  0.507842  0.001867  4.148395  0.002
C  C23  1  0.59582153  0.48511937  0.03673977  1  0.575255  -0.010233  3.845633  -0.007  0.531181  -0.000672  4.145581  0.0  0.565461  -0.00319  4.140346  -0.002  0.233889  0.507699  0.001871  4.148718  0.002
O  O24  1  0.43090776  0.84485130  0.22705543  1  -0.747293  0.008647  1.937551  0.019  -0.68594  0.007713  2.144975  0.018  -0.710014  0.004797  2.112841  0.012  -0.376958  -0.66812  0.010694  2.166949  0.022
O  O25  1  0.93091724  0.65516784  0.27292852  1  -0.747365  0.008651  1.937211  0.019  -0.685905  0.007716  2.144711  0.018  -0.709981  0.004799  2.11258  0.012  -0.376949  -0.668085  0.0107  2.166683  0.022
O  O26  1  0.56909795  0.15514931  0.77292749  1  -0.747551  0.008659  1.937348  0.019  -0.686036  0.007721  2.144872  0.018  -0.710111  0.004802  2.112734  0.012  -0.376922  -0.668213  0.010707  2.16685  0.022
O  O27  1  0.06909463  0.34485969  0.72706619  1  -0.747382  0.008653  1.937406  0.019  -0.685852  0.007716  2.144957  0.018  -0.709929  0.004799  2.11283  0.012  -0.376909  -0.668028  0.0107  2.166925  0.022
O  O28  1  0.64759790  0.92554426  0.06752703  1  -0.883648  0.085292  2.016424  0.154  -0.837657  0.074288  2.317413  0.129  -0.89478  0.060031  2.296056  0.11  -0.366809  -0.796972  0.085221  2.331212  0.141
O  O29  1  0.14756458  0.57448443  0.43248158  1  -0.88358  0.08535  2.016238  0.154  -0.837544  0.074324  2.317233  0.129  -0.894689  0.060055  2.295883  0.11  -0.366802  -0.796846  0.085267  2.331017  0.142
O  O30  1  0.35244936  0.07447562  0.93248231  1  -0.883606  0.085324  2.016086  0.154  -0.837613  0.0743  2.317072  0.129  -0.894783  0.060032  2.295769  0.11  -0.366826  -0.796897  0.085241  2.330849  0.142
O  O31  1  0.85240573  0.42553790  0.56752826  1  -0.88351  0.085316  2.015933  0.154  -0.837592  0.074293  2.316993  0.129  -0.894735  0.060027  2.295648  0.11  -0.366825  -0.796893  0.085232  2.330781  0.142
O  O32  1  0.40116255  0.13467477  0.19889597  1  -0.891397  0.085126  1.98262  0.155  -0.837031  0.0734  2.263233  0.129  -0.891267  0.059893  2.239772  0.111  -0.363531  -0.798443  0.083701  2.27873  0.141
O  O33  1  0.90112932  0.36535046  0.30111167  1  -0.891457  0.08515  1.982651  0.155  -0.837029  0.073414  2.263189  0.129  -0.89123  0.059901  2.23965  0.111  -0.36347  -0.79844  0.083717  2.27868  0.141
O  O34  1  0.59888010  0.86534622  0.80112079  1  -0.8913  0.08519  1.982452  0.155  -0.836963  0.073445  2.263128  0.129  -0.891176  0.059926  2.239601  0.111  -0.363494  -0.798372  0.083751  2.278625  0.141
O  O35  1  0.09884253  0.63469031  0.69890105  1  -0.891353  0.085121  1.982591  0.155  -0.837024  0.073398  2.263243  0.129  -0.891259  0.05989  2.239789  0.111  -0.363521  -0.798442  0.083695  2.278734  0.141
O  O36  1  0.72178015  0.05319493  0.29438108  1  -0.883241  0.085215  1.963741  0.153  -0.834866  0.072887  2.245827  0.126  -0.88917  0.059281  2.222806  0.108  -0.372965  -0.795967  0.083491  2.260776  0.139
O  O37  1  0.22178475  0.44680376  0.20564310  1  -0.883177  0.085215  1.963807  0.153  -0.83478  0.072884  2.245899  0.126  -0.889058  0.059276  2.222826  0.108  -0.372965  -0.795882  0.083495  2.260873  0.139
O  O38  1  0.27821940  0.94680644  0.70562987  1  -0.883182  0.085191  1.963751  0.153  -0.834789  0.072865  2.24584  0.126  -0.889067  0.059262  2.222777  0.108  -0.372971  -0.795894  0.083466  2.260813  0.139
O  O39  1  0.77821173  0.55318999  0.79438069  1  -0.883179  0.085175  1.964107  0.153  -0.834721  0.072852  2.246126  0.126  -0.889009  0.059252  2.223098  0.108  -0.37294  -0.795828  0.083456  2.261077  0.139
O  O40  1  0.76004733  0.08962905  0.54919875  1  -0.576043  0.043374  2.06771  0.082  -0.535445  0.040578  2.303932  0.075  -0.573789  0.032958  2.294581  0.066  -0.269684  -0.508796  0.046585  2.309899  0.082
O  O41  1  0.26003585  0.41038745  0.95080769  1  -0.575913  0.043396  2.067275  0.082  -0.535334  0.04059  2.303408  0.075  -0.573687  0.032967  2.294058  0.066  -0.269658  -0.508671  0.0466  2.309367  0.082
O  O42  1  0.23995685  0.91038831  0.45081367  1  -0.575876  0.04337  2.067852  0.082  -0.535311  0.040576  2.303937  0.075  -0.573658  0.032957  2.29458  0.066  -0.269635  -0.50866  0.046583  2.309903  0.082
O  O43  1  0.73993600  0.58963275  0.04918282  1  -0.575745  0.043347  2.068171  0.082  -0.53526  0.040564  2.304437  0.075  -0.573594  0.032949  2.295095  0.066  -0.269645  -0.508599  0.046567  2.310392  0.082
O  O44  1  0.90542747  0.85968881  0.57901095  1  -0.547521  0.058055  2.046085  0.109  -0.51551  0.051571  2.296847  0.095  -0.554549  0.042778  2.288073  0.084  -0.275413  -0.48866  0.057988  2.30257  0.102
O  O45  1  0.40541886  0.64034740  0.92101584  1  -0.547495  0.058058  2.046628  0.109  -0.515523  0.051577  2.29727  0.095  -0.554556  0.042784  2.288473  0.084  -0.275365  -0.488677  0.05799  2.303009  0.102
O  O46  1  0.09459209  0.14035564  0.42100251  1  -0.547672  0.058069  2.045778  0.109  -0.515822  0.051582  2.296472  0.095  -0.554868  0.042788  2.287677  0.084  -0.275534  -0.488974  0.058  2.302215  0.102
O  O47  1  0.59457762  0.35967337  0.07901348  1  -0.547612  0.058072  2.045606  0.109  -0.515597  0.051577  2.296236  0.095  -0.55464  0.042781  2.287472  0.084  -0.275436  -0.48873  0.057995  2.301956  0.102
O  O48  1  0.50373859  0.33065855  0.42117902  1  -0.83084  0.03891  1.891188  0.068  -0.793071  0.039997  2.099387  0.068  -0.826252  0.033318  2.060772  0.06  -0.555107  -0.769545  0.045332  2.126481  0.073
O  O49  1  0.00373281  0.16943416  0.07881286  1  -0.830832  0.03891  1.891706  0.068  -0.793083  0.040007  2.099583  0.068  -0.826276  0.033325  2.060933  0.06  -0.555262  -0.769568  0.045345  2.126737  0.073
O  O50  1  0.49624404  0.66940233  0.57881082  1  -0.830621  0.038914  1.891413  0.068  -0.792848  0.040005  2.099656  0.068  -0.826045  0.033323  2.061026  0.06  -0.555029  -0.769306  0.045344  2.126741  0.073
O  O51  1  0.99626982  0.83066498  0.92117400  1  -0.830692  0.038895  1.89122  0.068  -0.792985  0.039983  2.099322  0.068  -0.826151  0.033306  2.060715  0.06  -0.555016  -0.769476  0.045316  2.126413  0.073
