# generated using pymatgen
data_Zr2H10C19O16
_symmetry_space_group_name_H-M   'P 1'
_cell_length_a   14.74222507
_cell_length_b   14.78094012
_cell_length_c   14.74975683
_cell_angle_alpha   60.06767017
_cell_angle_beta   59.86299408
_cell_angle_gamma   59.96310570
_symmetry_Int_Tables_number   1
_chemical_formula_structural   Zr2H10C19O16
_chemical_formula_sum   'Zr6 H30 C57 O48'
_cell_volume   2270.82307790
_cell_formula_units_Z   3
loop_
 _symmetry_equiv_pos_site_id
 _symmetry_equiv_pos_as_xyz
  1  'x, y, z'
loop_
 _atom_site_type_symbol
 _atom_site_label
 _atom_site_symmetry_multiplicity
 _atom_site_fract_x
 _atom_site_fract_y
 _atom_site_fract_z
 _atom_site_occupancy
 _atom_site_pbe_bader_charge
 _atom_site_pbe_bader_spin_density
 _atom_site_pbe_cm5_charge
 _atom_site_pbe_ddec_charge
 _atom_site_pbe_ddec_spin_density
 _atom_site_pbe_ddec_sum_bond_order
 _atom_site_pbe_magmom
Zr  Zr0  1  0.87046657  0.88504202  0.62386196  1  2.634009  0  1.624794  2.367873  0  2.756747  0
Zr  Zr1  1  0.11295908  0.12157004  0.38209253  1  2.639675  0  1.636142  2.38109  0  2.738018  0
Zr  Zr2  1  0.10995736  0.88461067  0.62377790  1  2.627517  0  1.627677  2.377146  0  2.749581  0
Zr  Zr3  1  0.87118596  0.12415270  0.38467364  1  2.633375  0  1.626441  2.369053  0  2.757004  0
Zr  Zr4  1  0.11009461  0.88301618  0.38463422  1  2.636399  0  1.634382  2.376195  0  2.739681  0
Zr  Zr5  1  0.87101472  0.12490243  0.62322951  1  2.638706  0  1.635614  2.379961  0  2.735108  0
H  H6  1  0.08844520  0.72000423  0.59542320  1  0.601898  0  0.316315  0.403476  0  0.909092  0
H  H7  1  0.08842620  0.09490981  0.21970411  1  0.632199  0  0.318166  0.409012  0  0.904279  0
H  H8  1  0.08488115  0.09929677  0.59699955  1  0.600779  0  0.326374  0.414812  0  0.870512  0
H  H9  1  0.70723953  0.10044985  0.59980912  1  0.626032  0  0.33311  0.424817  0  0.856104  0
H  H10  1  0.82310837  0.60569557  0.62948808  1  0.129109  0  0.118848  0.129688  0  0.971419  0
H  H11  1  0.12627329  0.60213430  0.34944862  1  0.146886  0  0.117569  0.137783  0  0.99477  0
H  H12  1  0.83081704  0.43374988  0.62640357  1  0.113468  0  0.119382  0.132357  0  0.980009  0
H  H13  1  0.58893634  0.84456418  0.92815458  1  0.117689  0  0.114452  0.121728  0  0.983111  0
H  H14  1  0.58978792  0.13292799  0.93286303  1  0.162944  0  0.116367  0.138169  0  1.008634  0
H  H15  1  0.41869836  0.84345293  0.09901699  1  0.141481  0  0.115902  0.129413  0  0.989784  0
H  H16  1  0.11687526  0.83996653  0.10659003  1  0.086494  0  0.119133  0.12748  0  0.97283  0
H  H17  1  0.82963633  0.13517176  0.10620783  1  0.117968  0  0.117396  0.127565  0  0.978219  0
H  H18  1  0.11660728  0.84408691  0.93498140  1  0.117303  0  0.113365  0.12195  0  0.995792  0
H  H19  1  0.59774259  0.44274853  0.62673894  1  0.102668  0  0.118812  0.127592  0  0.974451  0
H  H20  1  0.57461920  0.41422561  0.36340416  1  0.093693  0  0.117335  0.129365  0  0.982309  0
H  H21  1  0.42800855  0.61214994  0.62546578  1  0.141255  0  0.113985  0.130525  0  1.012584  0
H  H22  1  0.57782313  0.14610826  0.35455839  1  0.110785  0  0.116962  0.126475  0  0.975069  0
H  H23  1  0.58278139  0.85468702  0.64451861  1  0.089898  0  0.116084  0.128233  0  0.985242  0
H  H24  1  0.41130285  0.14009566  0.35389904  1  0.153845  0  0.114605  0.133228  0  1.019089  0
H  H25  1  0.24554912  0.33441919  0.40972486  1  0.617323  0  0.340385  0.368212  0  0.869875  0
H  H26  1  0.30618484  0.25004905  0.04068348  1  0.586557  0  0.338069  0.371778  0  0.869179  0
H  H27  1  0.91834887  0.24663167  0.85237612  1  0.619983  0  0.312953  0.345884  0  0.947522  0
H  H28  1  0.27344747  0.52884123  0.46790290  1  0.611056  0  0.330258  0.364402  0  0.888264  0
H  H29  1  0.28780047  0.90982626  0.75534922  1  0.594772  0  0.334131  0.365474  0  0.88213  0
H  H30  1  0.04009037  0.50820394  0.18906616  1  0.656736  0  0.308634  0.363268  0  0.962272  0
H  H31  1  0.04034929  0.71973573  0.92039216  1  0.650877  0  0.318604  0.363654  0  0.931099  0
H  H32  1  0.98391138  0.18574916  0.12014805  1  0.629858  0  0.314589  0.349285  0  0.95375  0
H  H33  1  0.11833838  0.19508412  0.78807819  1  0.6352  0  0.329976  0.361236  0  0.890006  0
H  H34  1  0.07211406  0.43906755  0.63324826  1  0.613437  0  0.315744  0.354305  0  0.934715  0
H  H35  1  0.98488537  0.62560594  0.70289876  1  0.654105  0  0.310656  0.352141  0  0.97119  0
C  C36  1  0.97984462  0.70831334  0.49689304  1  1.569622  0  0.236765  0.636779  0  4.105747  0
C  C37  1  0.30212864  0.99140355  0.20604441  1  1.519621  0  0.240963  0.644992  0  4.092367  0
C  C38  1  0.98729353  0.31509830  0.49276671  1  1.565147  0  0.236556  0.634452  0  4.110416  0
C  C39  1  0.69487449  0.99527360  0.81492264  1  1.541011  0  0.241568  0.645769  0  4.082901  0
C  C40  1  0.99607576  0.69252352  0.80664225  1  1.4876  0  0.232037  0.653885  0  4.087699  0
C  C41  1  0.68768007  0.00368118  0.50247126  1  1.54364  0  0.238634  0.640835  0  4.09802  0
C  C42  1  0.99655260  0.30202921  0.19589965  1  1.577389  0  0.243163  0.683162  0  4.079277  0
C  C43  1  0.29914349  0.99920618  0.50062040  1  1.567425  0  0.234098  0.632035  0  4.117529  0
C  C44  1  0.29849453  0.70272418  0.50250566  1  1.556348  0  0.236782  0.635533  0  4.106033  0
C  C45  1  0.98461588  0.00000911  0.81397412  1  1.564735  0  0.233324  0.629172  0  4.119647  0
C  C46  1  0.69303714  0.31412139  0.49879016  1  1.553294  0  0.241468  0.64203  0  4.092866  0
C  C47  1  0.98044457  0.99367887  0.20986483  1  1.539885  0  0.243167  0.643408  0  4.086436  0
C  C48  1  0.98216555  0.42166524  0.48671031  1  -0.029493  0  -0.006658  -0.051745  0  3.927854  0
C  C49  1  0.97565925  0.61253425  0.49065765  1  -0.00613  0  -0.012597  -0.037167  0  3.971433  0
C  C50  1  0.06524668  0.47007655  0.40639335  1  -0.069867  0  -0.007833  -0.076538  0  3.98628  0
C  C51  1  0.89045130  0.56715856  0.56758353  1  -0.065548  0  -0.071369  -0.083962  0  3.938989  0
C  C52  1  0.06137655  0.56514142  0.40916439  1  -0.027662  0  -0.076003  -0.121335  0  3.932556  0
C  C53  1  0.89435496  0.47223901  0.56543360  1  -0.001452  0  -0.069114  -0.071546  0  3.928739  0
C  C54  1  0.40627359  0.99036638  0.10808448  1  0.048369  0  -0.008419  -0.06142  0  3.943164  0
C  C55  1  0.59623905  0.99132461  0.91874344  1  -0.059322  0  -0.009984  -0.029255  0  3.961988  0
C  C56  1  0.45483738  0.07199566  0.06271386  1  -0.060853  0  -0.003729  -0.062331  0  3.966765  0
C  C57  1  0.55005827  0.90806588  0.96607844  1  -0.004044  0  -0.073873  -0.084657  0  3.948945  0
C  C58  1  0.54985374  0.07189423  0.96789930  1  -0.035031  0  -0.070649  -0.11112  0  3.91179  0
C  C59  1  0.45558081  0.90771685  0.06039328  1  -0.026479  0  -0.070719  -0.074392  0  3.939944  0
C  C60  1  0.97604457  0.99452547  0.92163516  1  -0.036264  0  -0.01139  -0.064492  0  3.944863  0
C  C61  1  0.97386671  0.98817875  0.11521725  1  0.029187  0  -0.004714  -0.019881  0  3.953188  0
C  C62  1  0.89336438  0.07670310  0.97045539  1  -0.050328  0  -0.001507  -0.052575  0  3.963445  0
C  C63  1  0.05408383  0.90476276  0.06859138  1  -0.012942  0  -0.066902  -0.070332  0  3.92528  0
C  C64  1  0.89214908  0.07170031  0.06799736  1  -0.022113  0  -0.070924  -0.107222  0  3.922949  0
C  C65  1  0.05416062  0.90771567  0.97298078  1  0.024106  0  -0.073645  -0.076536  0  3.945633  0
C  C66  1  0.40214336  0.60428540  0.49851586  1  -0.026854  0  -0.010252  -0.065423  0  3.94574  0
C  C67  1  0.59448983  0.41774674  0.49642891  1  -0.040833  0  -0.007418  -0.026199  0  3.961562  0
C  C68  1  0.44382774  0.54942504  0.42290903  1  -0.053483  0  -0.007268  -0.067348  0  3.984942  0
C  C69  1  0.55412687  0.47339085  0.57010735  1  -0.037667  0  -0.067931  -0.075378  0  3.927614  0
C  C70  1  0.54068156  0.45720893  0.42166075  1  0.056252  0  -0.072258  -0.110366  0  3.931795  0
C  C71  1  0.45899668  0.56672747  0.57028394  1  0.016019  0  -0.067964  -0.067365  0  3.921193  0
C  C72  1  0.01384491  0.58391832  0.89536624  1  0.028582  0  -0.041144  -0.216995  0  3.979789  0
C  C73  1  0.02462935  0.48473538  0.88970520  1  0.069981  0  -0.021813  -0.024542  0  4.050216  0
C  C74  1  0.01534895  0.58260836  0.99017377  1  0.531391  0  0.093515  0.217096  0  4.04537  0
C  C75  1  0.04737815  0.47520894  0.78867294  1  0.48795  0  0.046863  0.128857  0  4.093779  0
C  C76  1  0.07021276  0.37509908  0.78282508  1  0.501447  0  0.042798  0.083623  0  4.167574  0
C  C77  1  0.00755352  0.39512984  0.08741302  1  0.03092  0  -0.021896  -0.164367  0  3.922495  0
C  C78  1  0.00344409  0.48982336  0.08972856  1  0.595458  0  0.087506  0.218798  0  4.032955  0
C  C79  1  0.02494150  0.38687104  0.98679113  1  0.010075  0  -0.021954  -0.045034  0  4.044355  0
C  C80  1  0.04930141  0.28465610  0.97779920  1  0.559016  0  0.054631  0.142808  0  4.049743  0
C  C81  1  0.07114204  0.27932555  0.87711722  1  0.448961  0  0.049014  0.092794  0  4.126652  0
C  C82  1  0.40012649  0.99771966  0.50235438  1  -0.041396  0  -0.012665  -0.066472  0  3.950681  0
C  C83  1  0.58776477  0.00208426  0.50145776  1  -0.008744  0  -0.009929  -0.028155  0  3.967301  0
C  C84  1  0.44886021  0.91499131  0.58451740  1  -0.065801  0  -0.008946  -0.070599  0  3.982298  0
C  C85  1  0.54032920  0.08283542  0.41896963  1  -0.055044  0  -0.071394  -0.078392  0  3.934906  0
C  C86  1  0.54276503  0.91817621  0.58292170  1  0.029028  0  -0.074876  -0.114529  0  3.93858  0
C  C87  1  0.44718054  0.08026280  0.41943114  1  0.020906  0  -0.072255  -0.075761  0  3.931231  0
C  C88  1  0.15958224  0.42944016  0.31252496  1  1.590336  0  0.251684  0.60257  0  4.089688  0
C  C89  1  0.41553799  0.15722101  0.11422501  1  1.559856  0  0.237225  0.59241  0  4.120841  0
C  C90  1  0.80912514  0.17647663  0.91962048  1  1.557771  0  0.234693  0.586647  0  4.123051  0
C  C91  1  0.39040188  0.58160808  0.34203221  1  1.538681  0  0.234618  0.590296  0  4.116052  0
C  C92  1  0.41297997  0.81617773  0.67154926  1  1.558604  0  0.236537  0.591036  0  4.115024  0
O  O93  1  0.90363069  0.74614143  0.57579795  1  -1.185527  0  -0.35427  -0.625334  0  2.298152  0
O  O94  1  0.26149890  0.06837595  0.24602584  1  -1.168257  0  -0.348557  -0.615565  0  2.349208  0
O  O95  1  0.06777607  0.27249390  0.41881768  1  -1.171545  0  -0.340936  -0.609037  0  2.304009  0
O  O96  1  0.73557661  0.91845443  0.77421591  1  -1.180136  0  -0.365018  -0.627621  0  2.281812  0
O  O97  1  0.05548121  0.74899795  0.77840330  1  -1.187313  0  -0.350708  -0.628152  0  2.299331  0
O  O98  1  0.72691728  0.08081620  0.42582761  1  -1.16762  0  -0.353233  -0.615198  0  2.28365  0
O  O99  1  0.91300119  0.26987939  0.23944547  1  -1.174277  0  -0.358636  -0.631933  0  2.255472  0
O  O100  1  0.25844618  0.92289296  0.57806354  1  -1.189078  0  -0.353568  -0.62392  0  2.337541  0
O  O101  1  0.25757346  0.74098063  0.42676772  1  -1.172017  0  -0.34617  -0.614126  0  2.329656  0
O  O102  1  0.91258019  0.08060208  0.76958974  1  -1.181462  0  -0.343509  -0.605291  0  2.330874  0
O  O103  1  0.73070499  0.27283439  0.57764036  1  -1.178327  0  -0.353962  -0.615845  0  2.277775  0
O  O104  1  0.05845240  0.91884793  0.24768269  1  -1.169903  0  -0.340967  -0.593639  0  2.283318  0
O  O105  1  0.06490089  0.92516621  0.77248898  1  -1.190054  0  -0.355332  -0.624013  0  2.300258  0
O  O106  1  0.73074724  0.27245976  0.42380424  1  -1.177203  0  -0.352344  -0.609806  0  2.280609  0
O  O107  1  0.90888953  0.07710701  0.24328380  1  -1.194635  0  -0.357846  -0.640176  0  2.310703  0
O  O108  1  0.25700803  0.74052239  0.58130834  1  -1.177116  0  -0.34975  -0.60168  0  2.268165  0
O  O109  1  0.92010338  0.72746642  0.76637843  1  -1.181422  0  -0.344937  -0.615594  0  2.26284  0
O  O110  1  0.25902028  0.07703804  0.42492946  1  -1.176881  0  -0.343604  -0.594079  0  2.29713  0
O  O111  1  0.07161621  0.26225759  0.23761833  1  -1.161562  0  -0.35133  -0.611427  0  2.307878  0
O  O112  1  0.72571013  0.92829608  0.58092463  1  -1.181014  0  -0.355621  -0.615494  0  2.291571  0
O  O113  1  0.73070934  0.07542851  0.77230333  1  -1.174693  0  -0.346437  -0.603362  0  2.276972  0
O  O114  1  0.06152178  0.74250556  0.42529904  1  -1.175329  0  -0.347119  -0.602415  0  2.309383  0
O  O115  1  0.25923374  0.91803645  0.24223153  1  -1.169977  0  -0.349808  -0.602231  0  2.263382  0
O  O116  1  0.91310176  0.27353482  0.57318376  1  -1.176251  0  -0.346407  -0.604408  0  2.28839  0
O  O117  1  0.78789540  0.07265811  0.57252795  1  -1.254063  0  -0.694481  -1.070064  0  2.364753  0
O  O118  1  0.05886191  0.07160196  0.57035446  1  -1.232064  0  -0.693734  -1.070143  0  2.373466  0
O  O119  1  0.05980279  0.06777286  0.30078303  1  -1.25887  0  -0.698266  -1.07426  0  2.364629  0
O  O120  1  0.05805275  0.80051856  0.57206054  1  -1.236614  0  -0.69798  -1.071436  0  2.367954  0
O  O121  1  0.14028200  0.95255747  0.45476003  1  -1.195015  0  -0.791806  -1.150521  0  2.134005  0
O  O122  1  0.93976096  0.95449460  0.45517775  1  -1.199139  0  -0.792717  -1.147417  0  2.133479  0
O  O123  1  0.94256216  0.15236263  0.45353867  1  -1.197883  0  -0.791495  -1.1478  0  2.129604  0
O  O124  1  0.94101565  0.95488211  0.65263667  1  -1.199054  0  -0.793143  -1.149391  0  2.133843  0
O  O125  1  0.25579469  0.35622076  0.33174592  1  -1.099243  0  -0.310842  -0.439281  0  2.241669  0
O  O126  1  0.15611050  0.46856739  0.21883639  1  -1.110721  0  -0.246756  -0.426586  0  2.136608  0
O  O127  1  0.33767627  0.25556411  0.08157917  1  -1.075753  0  -0.328824  -0.464454  0  2.227669  0
O  O128  1  0.45828607  0.14374454  0.17410789  1  -1.104122  0  -0.26656  -0.43653  0  2.088121  0
O  O129  1  0.84331596  0.26694926  0.85386639  1  -1.112368  0  -0.339531  -0.477732  0  2.217899  0
O  O130  1  0.71611498  0.18272617  0.93985639  1  -1.109277  0  -0.263283  -0.4327  0  2.100785  0
O  O131  1  0.29984540  0.54915838  0.38713630  1  -1.106739  0  -0.339829  -0.490975  0  2.261933  0
O  O132  1  0.42928781  0.62174238  0.24225182  1  -1.108615  0  -0.27226  -0.436128  0  2.042346  0
O  O133  1  0.32671667  0.83083133  0.76621160  1  -1.092176  0  -0.334159  -0.474002  0  2.237195  0
O  O134  1  0.46547033  0.72386378  0.66436523  1  -1.109151  0  -0.268605  -0.439596  0  2.069205  0
O  O135  1  0.97931639  0.49722083  0.18792288  1  -1.158327  0  -0.366492  -0.454357  0  2.305603  0
O  O136  1  0.01922460  0.66829553  0.99706244  1  -1.140643  0  -0.342173  -0.414615  0  2.286404  0
O  O137  1  0.05854333  0.18639863  0.06610611  1  -1.165312  0  -0.37055  -0.454925  0  2.34572  0
O  O138  1  0.09000151  0.18251303  0.86774057  1  -1.138711  0  -0.34938  -0.42227  0  2.309447  0
O  O139  1  0.09266790  0.36394887  0.68567882  1  -1.143206  0  -0.372997  -0.462688  0  2.318288  0
O  O140  1  0.05305438  0.56143039  0.68857639  1  -1.198581  0  -0.374891  -0.481962  0  2.364373  0
