# generated using pymatgen
data_NiH16(C12N5)2
_symmetry_space_group_name_H-M   'P 1'
_cell_length_a   9.06346698
_cell_length_b   15.88217549
_cell_length_c   15.93099512
_cell_angle_alpha   73.21017518
_cell_angle_beta   73.81684625
_cell_angle_gamma   76.03711760
_symmetry_Int_Tables_number   1
_chemical_formula_structural   NiH16(C12N5)2
_chemical_formula_sum   'Ni3 H48 C72 N30'
_cell_volume   2075.98592362
_cell_formula_units_Z   3
loop_
 _symmetry_equiv_pos_site_id
 _symmetry_equiv_pos_as_xyz
  1  'x, y, z'
loop_
 _atom_site_type_symbol
 _atom_site_label
 _atom_site_symmetry_multiplicity
 _atom_site_fract_x
 _atom_site_fract_y
 _atom_site_fract_z
 _atom_site_occupancy
 _atom_site_pbe_bader_charge
 _atom_site_pbe_bader_spin_density
 _atom_site_pbe_cm5_charge
 _atom_site_pbe_ddec_charge
 _atom_site_pbe_ddec_spin_density
 _atom_site_pbe_ddec_sum_bond_order
 _atom_site_pbe_magmom
Ni  Ni0  1  0.50000038  0.00000062  0.49999964  1  1.086436  1.506259  0.676965  0.466168  1.745699  2.821341  1.492
Ni  Ni1  1  0.49999992  0.49999997  0.49999987  1  1.090637  1.501138  0.677578  0.464268  1.739569  2.838543  1.487
Ni  Ni2  1  0.00000003  0.99999936  0.00000076  1  1.089925  1.50326  0.6835  0.456046  1.743359  2.866786  1.488
H  H3  1  0.47488461  0.20936920  0.44216715  1  0.131113  0.002015  0.112753  0.076473  0.00067  1.064793  0.002
H  H4  1  0.66493581  0.31524907  0.36263272  1  0.075054  0.001086  0.102261  0.105171  0.000475  1.04608  0.001
H  H5  1  0.94764546  0.25191483  0.31322028  1  0.082045  4e-06  0.108915  0.104913  -5.8e-05  0.97434  0.0
H  H6  1  0.02888526  0.08332300  0.34548404  1  0.129502  0.0009  0.108314  0.116112  0.00043  1.041973  0.001
H  H7  1  0.14710530  0.52655851  0.53692726  1  0.124763  0.002178  0.115896  0.089435  0.000842  1.005044  0.001
H  H8  1  0.92038232  0.64961523  0.52007566  1  0.094658  0.001039  0.103079  0.107495  0.000474  1.059173  0.001
H  H9  1  0.24623239  0.83164353  0.39312531  1  0.136218  0.001035  0.10794  0.119444  0.000481  1.026714  0.001
H  H10  1  0.46095574  0.70072378  0.41285101  1  0.097671  0.001961  0.11617  0.086602  0.000647  1.027983  0.001
H  H11  1  0.08668114  0.90581893  0.83646236  1  0.114837  0.002009  0.111985  0.075789  0.000696  1.051913  0.002
H  H12  1  0.31995693  0.80224364  0.77103459  1  0.085612  0.001092  0.09523  0.097218  0.000476  1.053706  0.001
H  H13  1  0.55302037  0.75623162  0.84072976  1  0.04834  -4.4e-05  0.102022  0.092541  -8.3e-05  1.001253  0.0
H  H14  1  0.54383638  0.81620446  0.97311746  1  0.088622  0.001096  0.113855  0.12847  0.000516  0.985864  0.001
H  H15  1  0.60946531  0.87645601  0.37163265  1  0.108842  0.002211  0.114092  0.083858  0.000837  1.032621  0.001
H  H16  1  0.53897676  0.86070075  0.23629866  1  0.108672  0.001138  0.108148  0.12021  0.000518  1.016129  0.001
H  H17  1  0.22880046  0.11320244  0.23363542  1  0.087126  0.001241  0.106861  0.108271  0.000577  1.011281  0.001
H  H18  1  0.31355829  0.12023011  0.36797440  1  0.080343  0.002155  0.112976  0.081263  0.000784  1.027495  0.001
H  H19  1  0.31167779  0.35906584  0.48891613  1  0.144511  0.001968  0.116005  0.079437  0.0007  1.054728  0.002
H  H20  1  0.26096136  0.31218361  0.36347933  1  0.07703  0.001248  0.104254  0.104327  0.000596  1.029307  0.001
H  H21  1  0.38184983  0.38408587  0.20294235  1  0.062685  -6.1e-05  0.108024  0.100358  -0.000106  0.988189  0.0
H  H22  1  0.55343282  0.49708552  0.17650587  1  0.110385  0.001051  0.115168  0.128406  0.00051  0.98198  0.001
H  H23  1  0.97737558  0.90591026  0.20408268  1  0.101316  0.002086  0.117199  0.091523  0.000743  1.003977  0.001
H  H24  1  0.87908790  0.77192101  0.31245022  1  0.07158  0.001193  0.104953  0.11428  0.000526  1.025694  0.001
H  H25  1  0.76228652  0.71472161  0.09248443  1  0.096763  0.001175  0.106875  0.116454  0.000573  1.009534  0.001
H  H26  1  0.86670726  0.85086944  0.99233811  1  0.108975  0.002072  0.114988  0.083056  0.000739  1.031149  0.001
H  H27  1  0.52511523  0.79063074  0.55783133  1  0.131253  0.002015  0.112756  0.076455  0.00067  1.064835  0.002
H  H28  1  0.33506653  0.68475020  0.63736556  1  0.075035  0.001086  0.102256  0.105129  0.000475  1.04611  0.001
H  H29  1  0.05235707  0.74808377  0.68678004  1  0.082055  4e-06  0.108916  0.104919  -5.8e-05  0.974334  0.0
H  H30  1  0.97111517  0.91667493  0.65451868  1  0.129498  0.0009  0.108311  0.116076  0.00043  1.04198  0.001
H  H31  1  0.85289684  0.47344143  0.46307086  1  0.124774  0.002178  0.115867  0.089433  0.000842  1.005064  0.001
H  H32  1  0.07961867  0.35038472  0.47992012  1  0.094673  0.001039  0.103099  0.107506  0.000474  1.059186  0.001
H  H33  1  0.75376610  0.16835708  0.60687508  1  0.136294  0.001035  0.107936  0.11943  0.000481  1.026738  0.001
H  H34  1  0.53904389  0.29927682  0.58714920  1  0.097686  0.001961  0.116164  0.086573  0.000647  1.027955  0.001
H  H35  1  0.91331964  0.09418168  0.16353767  1  0.114821  0.002009  0.111989  0.075772  0.000696  1.051883  0.002
H  H36  1  0.68004135  0.19775764  0.22896501  1  0.085551  0.001092  0.095245  0.097247  0.000476  1.053619  0.001
H  H37  1  0.44698041  0.24376898  0.15926964  1  0.048345  -4.4e-05  0.102022  0.092555  -8.3e-05  1.001225  0.0
H  H38  1  0.45616596  0.18379480  0.02688207  1  0.08863  0.001096  0.11385  0.128482  0.000516  0.985805  0.001
H  H39  1  0.39053641  0.12354526  0.62836704  1  0.108844  0.002211  0.114086  0.083809  0.000837  1.032633  0.001
H  H40  1  0.46102476  0.13930119  0.76370087  1  0.108619  0.001138  0.108177  0.120222  0.000518  1.016122  0.001
H  H41  1  0.77119823  0.88679750  0.76636576  1  0.087139  0.001241  0.106857  0.108278  0.000577  1.011282  0.001
H  H42  1  0.68643904  0.87977050  0.63202554  1  0.080388  0.002155  0.112956  0.081236  0.000785  1.027419  0.001
H  H43  1  0.68832205  0.64093409  0.51108549  1  0.144542  0.001967  0.115998  0.079435  0.0007  1.054699  0.002
H  H44  1  0.73903867  0.68781565  0.63652370  1  0.077032  0.001248  0.104271  0.104307  0.000596  1.029213  0.001
H  H45  1  0.61814445  0.61591340  0.79705971  1  0.062675  -6.1e-05  0.107985  0.100306  -0.000106  0.988299  0.0
H  H46  1  0.44655992  0.50291509  0.82349480  1  0.110426  0.001051  0.115171  0.128413  0.00051  0.981972  0.001
H  H47  1  0.02262426  0.09408968  0.79591769  1  0.101266  0.002086  0.11722  0.091576  0.000743  1.003986  0.001
H  H48  1  0.12091099  0.22807826  0.68754923  1  0.07162  0.001193  0.104956  0.114287  0.000526  1.025719  0.001
H  H49  1  0.23771311  0.28527900  0.90751515  1  0.096745  0.001175  0.106877  0.116477  0.000573  1.009493  0.001
H  H50  1  0.13329331  0.14913183  0.00766113  1  0.108913  0.002072  0.11497  0.083037  0.00074  1.031215  0.001
C  C51  1  0.59878567  0.18533864  0.41840746  1  0.42594  -0.003597  0.046213  0.086027  -0.004182  3.936871  -0.002
C  C52  1  0.70481406  0.24347758  0.37428893  1  -0.001306  0.00526  -0.092402  -0.142817  0.003  3.995981  0.004
C  C53  1  0.86223748  0.20785098  0.34698698  1  -0.084138  -0.0061  -0.070026  -0.034382  -0.006748  3.99055  -0.004
C  C54  1  0.90837340  0.11569186  0.36416199  1  0.00514  0.004348  -0.075047  -0.136214  0.002573  3.909222  0.003
C  C55  1  0.79510983  0.06172873  0.40795799  1  0.508075  -0.00369  0.130081  0.17839  -0.004611  3.977666  -0.003
C  C56  1  0.83216149  0.96516320  0.42981927  1  0.955371  -0.000795  0.19759  0.21112  -0.002102  4.105105  0.001
C  C57  1  0.94033893  0.83077306  0.45239004  1  0.926067  0.003771  0.190754  0.231656  0.002287  4.085108  0.005
C  C58  1  0.16419891  0.59523704  0.50483588  1  0.424075  -0.002873  0.040391  0.084873  -0.003657  3.952503  -0.002
C  C59  1  0.03793866  0.66441581  0.49597058  1  -0.006691  0.004714  -0.09046  -0.17643  0.002718  3.954245  0.004
C  C60  1  0.06395516  0.75248947  0.45703884  1  -0.045849  -0.004281  0.014651  0.079074  -0.004943  3.996956  -0.003
C  C61  1  0.22004735  0.76474527  0.42462189  1  -0.040239  0.005656  -0.082951  -0.156978  0.003261  3.930551  0.004
C  C62  1  0.33927376  0.69208573  0.43582503  1  0.474855  -0.002797  0.04042  0.08676  -0.003518  3.9432  -0.002
C  C63  1  0.19124165  0.88379620  0.86397020  1  0.458518  -0.003209  0.044451  0.092611  -0.003839  3.931475  -0.002
C  C64  1  0.32063920  0.82609722  0.82846381  1  0.01112  0.005215  -0.095963  -0.14055  0.002949  3.986947  0.004
C  C65  1  0.44959884  0.80049129  0.86767868  1  -0.102361  -0.006108  -0.077214  -0.043639  -0.006785  4.031016  -0.004
C  C66  1  0.44611094  0.83293990  0.94056730  1  0.059842  0.004201  -0.079458  -0.149342  0.002482  3.933874  0.003
C  C67  1  0.31235435  0.89072681  0.97232231  1  0.461845  -0.003608  0.131118  0.180186  -0.004538  3.976935  -0.003
C  C68  1  0.29605723  0.93028719  0.04643222  1  0.983251  -0.000536  0.193912  0.208316  -0.001808  4.093338  0.001
C  C69  1  0.31870724  0.97463071  0.15285583  1  0.935085  0.003987  0.190544  0.23559  0.002429  4.088608  0.005
C  C70  1  0.52562370  0.92765545  0.33899985  1  0.434214  -0.0028  0.040879  0.081103  -0.003623  3.946819  -0.002
C  C71  1  0.48620660  0.91884109  0.26422332  1  -0.021017  0.00525  -0.079757  -0.154068  0.003093  3.916388  0.004
C  C72  1  0.37353296  0.98459212  0.22607974  1  0.072396  -0.004304  0.019958  0.090925  -0.004983  3.996038  -0.003
C  C73  1  0.31259534  0.05924682  0.26325184  1  -0.061696  0.004562  -0.085445  -0.172507  0.00264  3.988323  0.004
C  C74  1  0.35977426  0.06346771  0.33719054  1  0.467841  -0.002714  0.03594  0.078454  -0.00352  3.965724  -0.002
C  C75  1  0.36095042  0.38820066  0.41830624  1  0.426417  -0.003237  0.049024  0.090866  -0.003858  3.927259  -0.002
C  C76  1  0.33274665  0.36312054  0.34789559  1  0.027507  0.005566  -0.091836  -0.147673  0.003202  3.995706  0.004
C  C77  1  0.40144276  0.40229567  0.25944920  1  -0.044098  -0.005956  -0.071162  -0.031241  -0.006639  4.002455  -0.004
C  C78  1  0.49652192  0.46457687  0.24393992  1  -0.088979  0.004386  -0.07679  -0.149499  0.002569  3.932231  0.003
C  C79  1  0.51989581  0.48625644  0.31795518  1  0.508621  -0.003612  0.125574  0.169743  -0.004475  3.994229  -0.003
C  C80  1  0.61481592  0.55079942  0.30989218  1  0.960961  0.00046  0.188332  0.202661  -0.001049  4.123987  0.002
C  C81  1  0.74116791  0.65576060  0.26847021  1  0.915951  0.004913  0.191543  0.241912  0.003021  4.073386  0.005
C  C82  1  0.92932240  0.86158977  0.18171946  1  0.528655  -0.002972  0.043863  0.090984  -0.003589  3.930462  -0.002
C  C83  1  0.87499534  0.78666726  0.24187407  1  -0.043154  0.005707  -0.084954  -0.168711  0.003246  3.932411  0.004
C  C84  1  0.81225482  0.73183631  0.21069111  1  -0.031022  -0.00461  0.013525  0.074978  -0.005294  3.994584  -0.003
C  C85  1  0.81141185  0.75520801  0.11876724  1  0.039602  0.005526  -0.084087  -0.161311  0.003274  3.950283  0.004
C  C86  1  0.86847911  0.83060442  0.06352673  1  0.425879  -0.00326  0.040366  0.086013  -0.004168  3.958809  -0.002
C  C87  1  0.40121416  0.81466131  0.58159103  1  0.42578  -0.003596  0.046154  0.085957  -0.004182  3.936961  -0.002
C  C88  1  0.29518712  0.75652169  0.62571015  1  -0.001233  0.00526  -0.092355  -0.14269  0.003  3.996004  0.004
C  C89  1  0.13776506  0.79214762  0.65301334  1  -0.084238  -0.006099  -0.070062  -0.03448  -0.006747  3.990514  -0.004
C  C90  1  0.09162663  0.88430740  0.63583979  1  0.005337  0.004348  -0.075032  -0.136112  0.002573  3.909065  0.003
C  C91  1  0.20489115  0.93827120  0.59204282  1  0.508065  -0.00369  0.130097  0.178384  -0.004611  3.977649  -0.003
C  C92  1  0.16784104  0.03483539  0.57018168  1  0.955008  -0.000795  0.197553  0.211067  -0.002102  4.105106  0.001
C  C93  1  0.05966111  0.16922621  0.54760860  1  0.926079  0.003771  0.190795  0.231722  0.002287  4.085052  0.005
C  C94  1  0.83580343  0.40476223  0.49516177  1  0.424089  -0.002873  0.040425  0.084855  -0.003657  3.952559  -0.002
C  C95  1  0.96206139  0.33558346  0.50402680  1  -0.006756  0.004714  -0.090495  -0.176468  0.002718  3.954361  0.004
C  C96  1  0.93604603  0.24750980  0.54295836  1  -0.045842  -0.004282  0.014645  0.079087  -0.004945  3.997006  -0.003
C  C97  1  0.77995208  0.23525600  0.57537690  1  -0.040289  0.005656  -0.08293  -0.15698  0.003261  3.930777  0.004
C  C98  1  0.66072838  0.30791420  0.56417435  1  0.474846  -0.002797  0.040423  0.086834  -0.003518  3.94326  -0.002
C  C99  1  0.80875913  0.11620440  0.13603045  1  0.458509  -0.003209  0.044501  0.092752  -0.003839  3.931411  -0.002
C  C100  1  0.67936158  0.17390338  0.17153622  1  0.011148  0.005214  -0.096004  -0.140618  0.002949  3.986851  0.004
C  C101  1  0.55040214  0.19950864  0.13232150  1  -0.102389  -0.006108  -0.077173  -0.043614  -0.006785  4.030978  -0.004
C  C102  1  0.55389004  0.16706004  0.05943289  1  0.059925  0.004201  -0.079468  -0.149399  0.002482  3.933834  0.003
C  C103  1  0.68764684  0.10927246  0.02767740  1  0.461657  -0.003609  0.131099  0.180211  -0.004538  3.976971  -0.003
C  C104  1  0.70394395  0.06971207  0.95357001  1  0.983652  -0.000536  0.193883  0.208261  -0.001808  4.093261  0.001
C  C105  1  0.68129280  0.02536856  0.84714469  1  0.935043  0.003987  0.190553  0.235598  0.002429  4.088688  0.005
C  C106  1  0.47437782  0.07234649  0.66100157  1  0.434359  -0.0028  0.040872  0.081194  -0.003623  3.946646  -0.002
C  C107  1  0.51379493  0.08116085  0.73577621  1  -0.02096  0.00525  -0.079729  -0.1541  0.003093  3.916437  0.004
C  C108  1  0.62646687  0.01540782  0.77392252  1  0.072404  -0.004305  0.019931  0.090958  -0.004985  3.996064  -0.003
C  C109  1  0.68740335  0.94075312  0.73674682  1  -0.061257  0.004561  -0.085455  -0.172593  0.00264  3.988383  0.004
C  C110  1  0.64022496  0.93653423  0.66281124  1  0.467383  -0.002712  0.035958  0.078519  -0.003519  3.965738  -0.002
C  C111  1  0.63905036  0.61179994  0.58169567  1  0.426804  -0.00324  0.049046  0.090847  -0.003859  3.927262  -0.002
C  C112  1  0.66724920  0.63687739  0.65210597  1  0.027145  0.005567  -0.091813  -0.147608  0.003201  3.995713  0.004
C  C113  1  0.59855572  0.59770493  0.74055244  1  -0.044151  -0.005958  -0.071151  -0.031163  -0.006641  4.00258  -0.004
C  C114  1  0.50347238  0.53542241  0.75606025  1  -0.088461  0.004386  -0.076786  -0.14957  0.002569  3.932361  0.003
C  C115  1  0.48010382  0.51374416  0.68204565  1  0.508121  -0.003611  0.125534  0.169719  -0.004475  3.994291  -0.003
C  C116  1  0.38518412  0.44919985  0.69010709  1  0.960631  0.000459  0.188337  0.202668  -0.001049  4.123985  0.002
C  C117  1  0.25883443  0.34423867  0.73152869  1  0.916211  0.004913  0.191528  0.241925  0.003021  4.073429  0.005
C  C118  1  0.07067514  0.13841017  0.81828127  1  0.528688  -0.002972  0.043878  0.090963  -0.003589  3.930502  -0.002
C  C119  1  0.12500335  0.21333268  0.75812585  1  -0.043203  0.005707  -0.084983  -0.168734  0.003246  3.932425  0.004
C  C120  1  0.18774502  0.26816362  0.78930863  1  -0.030979  -0.004609  0.013516  0.074956  -0.005293  3.994614  -0.003
C  C121  1  0.18858778  0.24479260  0.88123171  1  0.039627  0.005526  -0.084106  -0.161338  0.003273  3.950272  0.004
C  C122  1  0.13152052  0.16939619  0.93647285  1  0.425973  -0.00326  0.040389  0.086039  -0.004167  3.958897  -0.002
N  N123  1  0.78526303  0.82954011  0.48845777  1  -0.665394  0.006202  -0.234296  -0.280598  0.003003  3.171009  0.005
N  N124  1  0.71688603  0.91671091  0.47332347  1  -0.725873  0.07259  -0.240684  -0.209842  0.044036  3.534411  0.065
N  N125  1  0.97380516  0.91433010  0.41500355  1  -1.187943  0.000574  -0.339367  -0.406868  -0.000306  3.180997  0.0
N  N126  1  0.64254068  0.09631973  0.43473792  1  -1.189307  0.076614  -0.317643  -0.233553  0.045371  3.545468  0.069
N  N127  1  0.31350995  0.60813500  0.47668877  1  -1.192123  0.080906  -0.32506  -0.215391  0.047871  3.573578  0.073
N  N128  1  0.17812921  0.01960370  0.13530695  1  -0.666886  0.004921  -0.2311  -0.27533  0.001888  3.19914  0.003
N  N129  1  0.16466011  0.98987461  0.06743874  1  -0.713779  0.071715  -0.247706  -0.198858  0.043564  3.611105  0.065
N  N130  1  0.39591247  0.91788274  0.09911491  1  -1.152809  0.000737  -0.33984  -0.408551  -0.000203  3.149966  0.0
N  N131  1  0.18678315  0.91540195  0.93435713  1  -1.203444  0.07847  -0.310662  -0.22969  0.046396  3.512787  0.071
N  N132  1  0.46226495  0.99804080  0.37645577  1  -1.225591  0.080207  -0.327658  -0.21222  0.047234  3.586486  0.072
N  N133  1  0.71913349  0.63135184  0.35978778  1  -0.663945  0.005834  -0.231993  -0.271177  0.002342  3.175466  0.004
N  N134  1  0.63773083  0.56378193  0.38556874  1  -0.709084  0.071611  -0.248409  -0.208859  0.043417  3.581063  0.065
N  N135  1  0.67855802  0.60647482  0.23480560  1  -1.164442  0.000378  -0.349609  -0.426516  -0.000667  3.187045  0.0
N  N136  1  0.45203028  0.44852669  0.40392708  1  -1.19269  0.07686  -0.314728  -0.235809  0.045524  3.525138  0.07
N  N137  1  0.92564576  0.88415112  0.09389621  1  -1.213507  0.082749  -0.319796  -0.207926  0.04884  3.563362  0.075
N  N138  1  0.21473701  0.17045916  0.51154087  1  -0.665371  0.006201  -0.234363  -0.280683  0.003003  3.171062  0.005
N  N139  1  0.28311516  0.08328836  0.52667625  1  -0.725725  0.07259  -0.240638  -0.209786  0.044036  3.534372  0.065
N  N140  1  0.02619623  0.08566850  0.58499695  1  -1.187898  0.000574  -0.339349  -0.406853  -0.000306  3.180925  0.0
N  N141  1  0.35745936  0.90367954  0.56526197  1  -1.189299  0.076613  -0.317643  -0.23356  0.045371  3.545523  0.069
N  N142  1  0.68649103  0.39186494  0.52331079  1  -1.192108  0.080906  -0.32505  -0.215385  0.04787  3.573551  0.073
N  N143  1  0.82187042  0.98039690  0.86469326  1  -0.66687  0.00492  -0.231095  -0.275347  0.001888  3.199136  0.003
N  N144  1  0.83534067  0.01012599  0.93256129  1  -0.713849  0.071712  -0.247746  -0.198895  0.043563  3.611098  0.065
N  N145  1  0.60408737  0.08211720  0.90088545  1  -1.153085  0.000737  -0.339765  -0.408444  -0.000203  3.149836  0.0
N  N146  1  0.81321783  0.08459798  0.06564306  1  -1.203374  0.078471  -0.310693  -0.229793  0.046397  3.512898  0.071
N  N147  1  0.53773657  0.00196114  0.62354439  1  -1.22577  0.080207  -0.327692  -0.212276  0.047234  3.586276  0.072
N  N148  1  0.28086864  0.36864810  0.64021097  1  -0.663906  0.005835  -0.231992  -0.271211  0.002343  3.175495  0.004
N  N149  1  0.36226901  0.43621801  0.61443099  1  -0.708927  0.071612  -0.248394  -0.208809  0.043418  3.581138  0.065
N  N150  1  0.32144452  0.39352379  0.76519347  1  -1.164719  0.000379  -0.349588  -0.426508  -0.000666  3.187045  0.0
N  N151  1  0.54796746  0.55147258  0.59607318  1  -1.192645  0.076858  -0.31473  -0.235781  0.045523  3.525081  0.07
N  N152  1  0.07435387  0.11584948  0.90610400  1  -1.213518  0.082751  -0.319805  -0.207952  0.048841  3.563419  0.075
