# generated using pymatgen
data_Al3H10C45I15O14
_symmetry_space_group_name_H-M   'P 1'
_cell_length_a   16.51010256
_cell_length_b   16.62390905
_cell_length_c   26.54943117
_cell_angle_alpha   89.80852267
_cell_angle_beta   90.34280645
_cell_angle_gamma   120.78026172
_symmetry_Int_Tables_number   1
_chemical_formula_structural   Al3H10C45I15O14
_chemical_formula_sum   'Al6 H20 C90 I30 O28'
_cell_volume   6260.26027877
_cell_formula_units_Z   2
loop_
 _symmetry_equiv_pos_site_id
 _symmetry_equiv_pos_as_xyz
  1  'x, y, z'
loop_
 _atom_site_type_symbol
 _atom_site_label
 _atom_site_symmetry_multiplicity
 _atom_site_fract_x
 _atom_site_fract_y
 _atom_site_fract_z
 _atom_site_occupancy
 _atom_site_pbe_bader_charge
 _atom_site_pbe_bader_spin_density
 _atom_site_pbe_cm5_charge
 _atom_site_pbe_ddec_charge
 _atom_site_pbe_ddec_spin_density
 _atom_site_pbe_ddec_sum_bond_order
 _atom_site_pbe_magmom
Al  Al0  1  0.51606965  0.26610673  0.50862486  1  2.479429  0  0.432132  1.683676  0  2.530315  0
Al  Al1  1  0.71002761  0.26246899  0.50174273  1  2.477007  0  0.494729  1.643291  0  2.527088  0
Al  Al2  1  0.71787525  0.44684222  0.50224905  1  2.477949  0  0.497749  1.639924  0  2.53581  0
Al  Al3  1  0.25406892  0.51710699  0.99980431  1  2.487452  0  0.414999  1.68862  0  2.525329  0
Al  Al4  1  0.26353305  0.71380845  0.00219053  1  2.479994  0  0.499144  1.64691  0  2.528359  0
Al  Al5  1  0.44573873  0.71607805  0.00217355  1  2.477613  0  0.497933  1.645402  0  2.530951  0
H  H6  1  0.00845462  0.70446867  0.71900166  1  0.070167  0  0.094644  0.142692  0  0.988311  0
H  H7  1  0.96557338  0.67865759  0.78189766  1  0.03745  0  0.096915  0.146732  0  0.979984  0
H  H8  1  0.08916954  0.73417197  0.77023134  1  0.080005  0  0.085371  0.132375  0  1.029698  0
H  H9  1  0.29558745  0.30657043  0.72629641  1  0.076385  0  0.095833  0.143081  0  0.988558  0
H  H10  1  0.32520799  0.29000680  0.78854017  1  0.048393  0  0.098536  0.148023  0  0.977919  0
H  H11  1  0.27016462  0.35729518  0.77848367  1  0.074519  0  0.089117  0.138727  0  1.01428  0
H  H12  1  0.69951243  0.99171766  0.73021672  1  0.09177  0  0.095147  0.14312  0  0.987798  0
H  H13  1  0.71439898  0.03612692  0.79266411  1  0.067774  0  0.097578  0.147239  0  0.978624  0
H  H14  1  0.64790254  0.91277523  0.78171715  1  0.058794  0  0.085642  0.134172  0  1.026738  0
H  H15  1  0.70794255  0.00965459  0.21868294  1  0.068092  0  0.093875  0.140587  0  0.990203  0
H  H16  1  0.73762968  0.08948818  0.26985310  1  0.073832  0  0.085999  0.1323  0  1.026785  0
H  H17  1  0.68261977  0.96675076  0.28166422  1  0.049309  0  0.097109  0.146442  0  0.980216  0
H  H18  1  0.30414845  0.29583666  0.22634259  1  0.071184  0  0.095435  0.142218  0  0.989242  0
H  H19  1  0.35639006  0.27082737  0.27840969  1  0.067603  0  0.088766  0.136912  0  1.013574  0
H  H20  1  0.28807022  0.32476919  0.28857860  1  0.057983  0  0.097262  0.145643  0  0.980823  0
H  H21  1  0.99116840  0.69841852  0.22940580  1  0.04773  0  0.094946  0.142641  0  0.988008  0
H  H22  1  0.91189122  0.64638121  0.28077301  1  0.07776  0  0.085034  0.132945  0  1.030778  0
H  H23  1  0.03612383  0.71273473  0.29192037  1  0.080719  0  0.09769  0.147416  0  0.978751  0
H  H24  1  0.36343296  0.19371461  0.47540243  1  0.584088  0  0.300834  0.395391  0  0.905336  0
H  H25  1  0.15859171  0.36237035  0.02743903  1  0.59854  0  0.296777  0.390263  0  0.912799  0
C  C26  1  0.59528879  0.44641173  0.56931452  1  1.654806  0  0.287181  0.709852  0  4.148164  0
C  C27  1  0.56448639  0.15700710  0.57389600  1  1.655317  0  0.283551  0.710776  0  4.157761  0
C  C28  1  0.83621206  0.39599769  0.56696472  1  1.626551  0  0.28304  0.71299  0  4.142051  0
C  C29  1  0.44313741  0.59306931  0.06778960  1  1.662007  0  0.274325  0.692548  0  4.168138  0
C  C30  1  0.15308594  0.56491044  0.07195995  1  1.690682  0  0.27738  0.711667  0  4.156138  0
C  C31  1  0.39660036  0.83690286  0.06736568  1  1.633784  0  0.279519  0.708696  0  4.149399  0
C  C32  1  0.56675465  0.41217335  0.43452427  1  1.678064  0  0.276254  0.712175  0  4.160546  0
C  C33  1  0.59534502  0.14061707  0.43432634  1  1.627562  0  0.25942  0.674578  0  4.207582  0
C  C34  1  0.83720670  0.43712429  0.43655881  1  1.637858  0  0.277866  0.706053  0  4.158066  0
C  C35  1  0.40991752  0.56949563  0.93242236  1  1.69278  0  0.280259  0.705273  0  4.166574  0
C  C36  1  0.14399519  0.59093190  0.93448741  1  1.650542  0  0.278997  0.698727  0  4.159603  0
C  C37  1  0.43524901  0.83766756  0.93718177  1  1.633644  0  0.280329  0.710071  0  4.152021  0
C  C38  1  0.06524663  0.55752605  0.71635417  1  -0.158138  0  -0.035524  -0.006318  0  3.533006  0
C  C39  1  0.44556080  0.51165449  0.72120521  1  -0.139336  0  -0.036135  -0.005187  0  3.534365  0
C  C40  1  0.49256646  0.92931463  0.72316961  1  -0.14165  0  -0.038618  -0.008896  0  3.537958  0
C  C41  1  0.55878621  0.06488273  0.21602043  1  -0.146584  0  -0.035917  -0.004465  0  3.529163  0
C  C42  1  0.51030881  0.44465250  0.22103289  1  -0.155497  0  -0.037006  -0.007082  0  3.536722  0
C  C43  1  0.92937410  0.49295488  0.22257613  1  -0.139533  0  -0.03797  -0.006723  0  3.532615  0
C  C44  1  0.00897023  0.58744555  0.75226446  1  0.046796  0  0.002673  0.128459  0  3.65615  0
C  C45  1  0.41649133  0.42596578  0.75786987  1  0.036063  0  0.003705  0.128232  0  3.654189  0
C  C46  1  0.57801969  0.98739496  0.76068789  1  0.018576  0  0.003477  0.129577  0  3.649934  0
C  C47  1  0.58998104  0.00912042  0.25180100  1  0.0409  0  0.002162  0.125932  0  3.661457  0
C  C48  1  0.42447304  0.41613351  0.25761903  1  0.045901  0  0.003002  0.12899  0  3.653996  0
C  C49  1  0.98749565  0.57768015  0.26005404  1  0.026457  0  0.003587  0.128828  0  3.651648  0
C  C50  1  0.08912497  0.57110177  0.88904185  1  0.104586  0  -0.027694  -0.167816  0  3.926595  0
C  C51  1  0.43974845  0.53574891  0.89078679  1  0.00206  0  -0.026499  -0.164502  0  3.918338  0
C  C52  1  0.47138227  0.89863900  0.89424027  1  0.249414  0  -0.032121  -0.182472  0  3.923757  0
C  C53  1  0.57867961  0.08744507  0.38862075  1  -0.24678  0  -0.02957  -0.157214  0  3.930841  0
C  C54  1  0.53414038  0.44016510  0.39137948  1  -0.2787  0  -0.03185  -0.174493  0  3.930598  0
C  C55  1  0.89813816  0.47253841  0.39351534  1  -0.264158  0  -0.032101  -0.179819  0  3.922296  0
C  C56  1  0.89723415  0.42075173  0.61017896  1  -0.353312  0  -0.029513  -0.174673  0  3.913931  0
C  C57  1  0.57532012  0.48383196  0.61289172  1  0.196826  0  -0.026754  -0.169169  0  3.923154  0
C  C58  1  0.53048480  0.09453722  0.61644445  1  0.229181  0  -0.022658  -0.156371  0  3.907356  0
C  C59  1  0.42190425  0.89765365  0.11031615  1  -0.263146  0  -0.029352  -0.173833  0  3.916716  0
C  C60  1  0.47987763  0.57224763  0.11202158  1  -0.246765  0  -0.026126  -0.157139  0  3.921904  0
C  C61  1  0.09374591  0.53203694  0.11577099  1  0.15143  0  -0.02734  -0.162017  0  3.915863  0
C  C62  1  0.07922701  0.50305244  0.76079823  1  -0.138532  0  -0.044134  0.001177  0  3.588225  0
C  C63  1  0.50385219  0.58220600  0.76443643  1  -0.13987  0  -0.043092  0.004389  0  3.582809  0
C  C64  1  0.42035231  0.91351757  0.76579865  1  -0.148099  0  -0.043398  0.004275  0  3.582057  0
C  C65  1  0.50445378  0.07792530  0.26064861  1  -0.136393  0  -0.0444  0.002659  0  3.584835  0
C  C66  1  0.58186694  0.50248061  0.26414873  1  -0.138298  0  -0.043456  0.003704  0  3.583154  0
C  C67  1  0.91398880  0.42109681  0.26535487  1  -0.143237  0  -0.044237  0.002213  0  3.58458  0
C  C68  1  0.02306546  0.53265574  0.79712924  1  0.090641  0  -0.000869  0.066403  0  3.804399  0
C  C69  1  0.47553200  0.49695619  0.80174759  1  0.081746  0  0.000936  0.067977  0  3.798845  0
C  C70  1  0.50525106  0.97154590  0.80393858  1  0.11201  0  0.000413  0.061318  0  3.792543  0
C  C71  1  0.53549116  0.02242054  0.29681828  1  0.071607  0  -0.001093  0.07136  0  3.80871  0
C  C72  1  0.49645286  0.47476725  0.30131632  1  0.071474  0  -5e-06  0.06533  0  3.806789  0
C  C73  1  0.97191878  0.50527402  0.30347895  1  0.0947  0  0.000301  0.061831  0  3.792253  0
C  C74  1  0.98553740  0.41119266  0.74550225  1  -0.129519  0  -0.042437  0.006203  0  3.570313  0
C  C75  1  0.59458301  0.58111927  0.74814864  1  -0.128448  0  -0.042193  0.0071  0  3.571141  0
C  C76  1  0.42155440  0.00504162  0.74936044  1  -0.131626  0  -0.042563  0.004575  0  3.573813  0
C  C77  1  0.41207606  0.98468160  0.24548662  1  -0.140653  0  -0.042273  0.007931  0  3.56732  0
C  C78  1  0.58095859  0.59272525  0.24733229  1  -0.132605  0  -0.042014  0.007449  0  3.568324  0
C  C79  1  0.00647296  0.42313354  0.24930378  1  -0.135739  0  -0.042675  0.005481  0  3.571783  0
C  C80  1  0.97119669  0.46499291  0.70035015  1  0.10854  0  -0.003723  0.079353  0  3.826734  0
C  C81  1  0.53687721  0.51122075  0.70410478  1  0.114905  0  -0.004886  0.078851  0  3.843092  0
C  C82  1  0.49325144  0.02055924  0.70603156  1  0.144293  0  -0.004051  0.084112  0  3.843103  0
C  C83  1  0.46576147  0.97120958  0.20020111  1  0.106619  0  -0.003824  0.078027  0  3.827254  0
C  C84  1  0.50982877  0.53526374  0.20340422  1  0.141825  0  -0.003823  0.084828  0  3.840025  0
C  C85  1  0.02177482  0.49450879  0.20581379  1  0.09408  0  -0.004834  0.084563  0  3.839972  0
C  C86  1  0.92888854  0.44027223  0.78167489  1  -0.138605  0  -0.04116  0.007297  0  3.570625  0
C  C87  1  0.56636419  0.49567907  0.78489507  1  -0.144859  0  -0.042543  0.006947  0  3.576551  0
C  C88  1  0.50644706  0.06351694  0.78702318  1  -0.132536  0  -0.040921  0.008406  0  3.575552  0
C  C89  1  0.44250760  0.92863881  0.28160438  1  -0.138732  0  -0.041283  0.006713  0  3.569442  0
C  C90  1  0.49542125  0.56513822  0.28402468  1  -0.132873  0  -0.042445  0.007245  0  3.577367  0
C  C91  1  0.06487941  0.50723087  0.28700886  1  -0.129004  0  -0.040182  0.010045  0  3.573374  0
C  C92  1  0.91564834  0.49499331  0.73712226  1  -0.156924  0  -0.03889  -0.010695  0  3.543734  0
C  C93  1  0.50765226  0.42579378  0.74133820  1  -0.138063  0  -0.037929  -0.010381  0  3.540833  0
C  C94  1  0.57783894  0.07817629  0.74422793  1  -0.150544  0  -0.038835  -0.007942  0  3.546964  0
C  C95  1  0.49707046  0.91618262  0.23691011  1  -0.148082  0  -0.038775  -0.01035  0  3.543719  0
C  C96  1  0.42448625  0.50684929  0.24065640  1  -0.156564  0  -0.038632  -0.010969  0  3.542523  0
C  C97  1  0.07923500  0.57828025  0.24400655  1  -0.152761  0  -0.039736  -0.009452  0  3.550567  0
C  C98  1  0.05445684  0.55950567  0.84712914  1  -0.311162  0  -0.03336  -0.016772  0  4.061796  0
C  C99  1  0.45115910  0.50531336  0.85145870  1  -0.216214  0  -0.034455  -0.019739  0  4.047734  0
C  C100  1  0.49746528  0.93849566  0.85377156  1  -0.475064  0  -0.024637  0.001762  0  4.041552  0
C  C101  1  0.56451923  0.05333416  0.34665498  1  0.053843  0  -0.043097  -0.038692  0  4.082654  0
C  C102  1  0.50455872  0.45089501  0.35129370  1  0.063024  0  -0.03341  -0.016037  0  4.057444  0
C  C103  1  0.93846400  0.49759721  0.35314485  1  0.043302  0  -0.025338  -0.000314  0  4.043044  0
C  C104  1  0.93716420  0.43621124  0.65086883  1  0.169454  0  -0.026708  -0.007619  0  4.059992  0
C  C105  1  0.56267778  0.50672701  0.65427643  1  -0.416534  0  -0.028198  -0.01048  0  4.076308  0
C  C106  1  0.50126691  0.05363461  0.65636530  1  -0.443275  0  -0.037322  -0.028338  0  4.073425  0
C  C107  1  0.43657279  0.93752320  0.15075726  1  0.077228  0  -0.028059  -0.008875  0  4.058692  0
C  C108  1  0.50443532  0.56043055  0.15336835  1  0.00556  0  -0.037487  -0.030904  0  4.086613  0
C  C109  1  0.05443980  0.50285279  0.15609751  1  -0.374657  0  -0.038759  -0.030594  0  4.079169  0
C  C110  1  0.01895590  0.68161655  0.75612642  1  -0.065128  0  -0.242587  -0.414511  0  3.958739  0
C  C111  1  0.32138509  0.34041317  0.76315998  1  -0.074487  0  -0.240058  -0.41377  0  3.957846  0
C  C112  1  0.66455863  0.98127910  0.76678878  1  -0.08072  0  -0.241482  -0.414087  0  3.959252  0
C  C113  1  0.68507259  0.01970412  0.25573764  1  -0.064824  0  -0.24229  -0.412032  0  3.961699  0
C  C114  1  0.33865125  0.32149403  0.26315371  1  -0.069705  0  -0.240387  -0.412304  0  3.960667  0
C  C115  1  0.98087487  0.66332880  0.26598580  1  -0.06363  0  -0.242577  -0.413907  0  3.960157  0
I  I116  1  0.16745560  0.64304226  0.66308476  1  0.128975  0  0.064628  -0.02358  0  1.465561  0
I  I117  1  0.35865824  0.52594885  0.66807720  1  0.129093  0  0.066153  -0.024033  0  1.489105  0
I  I118  1  0.47939861  0.83061043  0.66936651  1  0.12792  0  0.063576  -0.02684  0  1.501716  0
I  I119  1  0.64328927  0.16720272  0.16258705  1  0.123195  0  0.060876  -0.028276  0  1.45934  0
I  I120  1  0.52356411  0.35761419  0.16855209  1  0.129341  0  0.067267  -0.021695  0  1.49047  0
I  I121  1  0.82940705  0.47951606  0.16854637  1  0.128396  0  0.062049  -0.029004  0  1.499062  0
I  I122  1  0.79011370  0.48584827  0.71276663  1  0.145195  0  0.085858  -0.003186  0  1.712147  0
I  I123  1  0.50991264  0.30680775  0.71743288  1  0.15161  0  0.093631  0.00719  0  1.669962  0
I  I124  1  0.69523997  0.20413946  0.72078705  1  0.143633  0  0.083621  -0.009927  0  1.741677  0
I  I125  1  0.48900923  0.79238905  0.21253284  1  0.144861  0  0.086852  -0.000937  0  1.705541  0
I  I126  1  0.30540490  0.51098156  0.21665688  1  0.146592  0  0.087063  0.000211  0  1.677823  0
I  I127  1  0.20560289  0.69564144  0.22076131  1  0.145048  0  0.084217  -0.007915  0  1.743571  0
I  I128  1  0.83011225  0.35839037  0.83687215  1  0.143528  0  0.068058  -0.017286  0  1.550862  0
I  I129  1  0.65328540  0.48052474  0.83726704  1  0.138315  0  0.059215  -0.031021  0  1.529873  0
I  I130  1  0.52003699  0.16471114  0.83887607  1  0.14151  0  0.063115  -0.025587  0  1.510521  0
I  I131  1  0.36126446  0.83009936  0.33696794  1  0.141534  0  0.06687  -0.017143  0  1.546745  0
I  I132  1  0.48110864  0.65178136  0.33602544  1  0.137695  0  0.058701  -0.031909  0  1.539019  0
I  I133  1  0.16697598  0.52100114  0.33931873  1  0.139746  0  0.061295  -0.027448  0  1.511428  0
I  I134  1  0.97276459  0.27932017  0.73969789  1  0.13364  0  0.067622  -0.012513  0  1.405398  0
I  I135  1  0.72857945  0.70108905  0.74007716  1  0.128946  0  0.060798  -0.021629  0  1.387736  0
I  I136  1  0.30183270  0.01681843  0.74010371  1  0.134753  0  0.069776  -0.007399  0  1.380801  0
I  I137  1  0.27873081  0.97109258  0.23989537  1  0.127615  0  0.061924  -0.019565  0  1.404686  0
I  I138  1  0.70176891  0.72575136  0.23906567  1  0.126265  0  0.060296  -0.021408  0  1.38624  0
I  I139  1  0.01836176  0.30418221  0.24062767  1  0.128568  0  0.064  -0.015464  0  1.390457  0
I  I140  1  0.20392071  0.51157557  0.78555074  1  0.161237  0  0.101344  0.014608  0  1.717047  0
I  I141  1  0.49537508  0.69752634  0.78799871  1  0.151805  0  0.093234  -0.002264  0  1.736468  0
I  I142  1  0.30359480  0.78599449  0.78798791  1  0.152378  0  0.090864  -0.005114  0  1.736391  0
I  I143  1  0.51223138  0.20119236  0.28519997  1  0.153431  0  0.093705  0.005519  0  1.713969  0
I  I144  1  0.69740288  0.49288584  0.28836972  1  0.150541  0  0.093201  -0.000742  0  1.733303  0
I  I145  1  0.78646907  0.30411045  0.28750130  1  0.156203  0  0.092377  -0.000953  0  1.747208  0
O  O146  1  0.51910352  0.19800018  0.56476063  1  -1.22997  0  -0.20413  -0.540161  0  2.306506  0
O  O147  1  0.80639950  0.31385990  0.54850407  1  -1.239872  0  -0.224745  -0.57668  0  2.229854  0
O  O148  1  0.68070486  0.49488126  0.55272983  1  -1.247686  0  -0.23038  -0.583672  0  2.226828  0
O  O149  1  0.18765616  0.51526944  0.05917267  1  -1.234082  0  -0.213889  -0.577423  0  2.323933  0
O  O150  1  0.31370888  0.80846909  0.04880359  1  -1.254026  0  -0.229098  -0.583168  0  2.22597  0
O  O151  1  0.49430351  0.67948611  0.05242315  1  -1.261642  0  -0.242668  -0.599284  0  2.213427  0
O  O152  1  0.53091350  0.36892193  0.55183329  1  -1.222591  0  -0.198939  -0.55635  0  2.2655  0
O  O153  1  0.63716740  0.16848796  0.55037184  1  -1.24808  0  -0.231704  -0.596621  0  2.256161  0
O  O154  1  0.81292952  0.45384420  0.55136857  1  -1.223124  0  -0.219555  -0.578823  0  2.251758  0
O  O155  1  0.36624017  0.53127086  0.04897037  1  -1.192867  0  -0.206794  -0.535158  0  2.216196  0
O  O156  1  0.16823273  0.64063859  0.05058999  1  -1.252725  0  -0.234923  -0.595242  0  2.238179  0
O  O157  1  0.45343015  0.81237480  0.05199048  1  -1.214634  0  -0.21789  -0.572216  0  2.24012  0
O  O158  1  0.53213032  0.15218141  0.45183989  1  -1.143288  0  -0.229156  -0.518428  0  2.127125  0
O  O159  1  0.80954485  0.35496861  0.45206136  1  -1.220052  0  -0.21686  -0.566888  0  2.241793  0
O  O160  1  0.64546827  0.47183555  0.45501277  1  -1.247095  0  -0.23475  -0.596122  0  2.243439  0
O  O161  1  0.15954989  0.52988972  0.95238522  1  -1.195426  0  -0.200096  -0.534871  0  2.231848  0
O  O162  1  0.35265735  0.81126578  0.95255060  1  -1.219223  0  -0.218783  -0.572932  0  2.24064  0
O  O163  1  0.47051503  0.64570504  0.95435609  1  -1.248362  0  -0.235574  -0.600233  0  2.250059  0
O  O164  1  0.51382771  0.32754608  0.44790726  1  -1.238469  0  -0.215478  -0.578654  0  2.314905  0
O  O165  1  0.68124692  0.17727402  0.45256824  1  -1.258885  0  -0.254807  -0.615258  0  2.200948  0
O  O166  1  0.81173983  0.49271236  0.45511163  1  -1.244947  0  -0.232791  -0.587725  0  2.22448  0
O  O167  1  0.32303916  0.52011792  0.94255690  1  -1.231599  0  -0.202762  -0.536042  0  2.307234  0
O  O168  1  0.17645034  0.67505736  0.95208066  1  -1.251993  0  -0.239968  -0.597925  0  2.214242  0
O  O169  1  0.49033878  0.81101001  0.95565161  1  -1.24663  0  -0.229545  -0.584192  0  2.230411  0
O  O170  1  0.64809756  0.32338932  0.50223592  1  -1.616313  0  -0.38485  -1.254912  0  2.286653  0
O  O171  1  0.32172716  0.64994298  0.00170993  1  -1.618474  0  -0.388565  -1.26636  0  2.309257  0
O  O172  1  0.39445318  0.19188921  0.50602720  1  -1.35973  0  -0.563838  -0.983371  0  1.785385  0
O  O173  1  0.19524573  0.39513362  0.99811223  1  -1.376398  0  -0.568951  -0.988714  0  1.791102  0
