# generated using pymatgen
data_AgH5C7N4
_symmetry_space_group_name_H-M   'P 1'
_cell_length_a   4.77246229
_cell_length_b   14.29845383
_cell_length_c   12.22106834
_cell_angle_alpha   113.04205444
_cell_angle_beta   89.99479430
_cell_angle_gamma   89.99497355
_symmetry_Int_Tables_number   1
_chemical_formula_structural   AgH5C7N4
_chemical_formula_sum   'Ag4 H20 C28 N16'
_cell_volume   767.41694813
_cell_formula_units_Z   4
loop_
 _symmetry_equiv_pos_site_id
 _symmetry_equiv_pos_as_xyz
  1  'x, y, z'
loop_
 _atom_site_type_symbol
 _atom_site_label
 _atom_site_symmetry_multiplicity
 _atom_site_fract_x
 _atom_site_fract_y
 _atom_site_fract_z
 _atom_site_occupancy
 _atom_site_hle17_bader_spin_density
 _atom_site_hle17_ddec_charge
 _atom_site_hle17_ddec_spin_density
 _atom_site_hle17_ddec_sum_bond_order
 _atom_site_hle17_magmom
 _atom_site_hse06_10hf_bader_spin_density
 _atom_site_hse06_10hf_ddec_charge
 _atom_site_hse06_10hf_ddec_spin_density
 _atom_site_hse06_10hf_ddec_sum_bond_order
 _atom_site_hse06_10hf_magmom
 _atom_site_hse06_bader_spin_density
 _atom_site_hse06_ddec_charge
 _atom_site_hse06_ddec_spin_density
 _atom_site_hse06_ddec_sum_bond_order
 _atom_site_hse06_magmom
 _atom_site_pbe_bader_spin_density
 _atom_site_pbe_cm5_charge
 _atom_site_pbe_ddec_charge
 _atom_site_pbe_ddec_spin_density
 _atom_site_pbe_ddec_sum_bond_order
 _atom_site_pbe_magmom
Ag  Ag0  1  0.90997728  0.56214593  0.16745860  1  0  0.47438  0  1.461671  0  0  0.311453  0  1.91583  0  0  0.337621  0  1.873392  0  0  0.494383  0.293595  0  1.945174  0
Ag  Ag1  1  0.41003406  0.43789322  0.33255491  1  0  0.474441  0  1.461335  0  0  0.311465  0  1.915485  0  0  0.337631  0  1.87306  0  0  0.494365  0.293601  0  1.94484  0
Ag  Ag2  1  0.09004610  0.43785642  0.83254199  1  0  0.474378  0  1.46158  0  0  0.311454  0  1.915739  0  0  0.337619  0  1.8733  0  0  0.494381  0.293596  0  1.945075  0
Ag  Ag3  1  0.58997466  0.56211344  0.66744403  1  0  0.474418  0  1.461477  0  0  0.311508  0  1.915609  0  0  0.337677  0  1.873169  0  0  0.494385  0.293641  0  1.944964  0
H  H4  1  0.80828998  0.74476326  0.77646327  1  0  0.083762  0  0.987326  0  0  0.0906  0  1.061646  0  0  0.094037  0  1.058747  0  0  0.090783  0.088052  0  1.063835  0
H  H5  1  0.30839007  0.25519918  0.72353756  1  0  0.083672  0  0.987129  0  0  0.090454  0  1.061587  0  0  0.093896  0  1.058682  0  0  0.09066  0.087907  0  1.063773  0
H  H6  1  0.19165378  0.25523513  0.22352271  1  0  0.083745  0  0.987261  0  0  0.090554  0  1.061622  0  0  0.094049  0  1.05866  0  0  0.090778  0.088005  0  1.063819  0
H  H7  1  0.69164589  0.74480177  0.27646415  1  0  0.083695  0  0.987086  0  0  0.090448  0  1.061568  0  0  0.093885  0  1.058673  0  0  0.090651  0.08791  0  1.063746  0
H  H8  1  0.00186193  0.88803873  0.94878493  1  0  0.084265  0  0.957858  0  0  0.098632  0  1.013075  0  0  0.100791  0  1.012845  0  0  0.1003  0.097043  0  1.01337  0
H  H9  1  0.50199400  0.11190773  0.55124489  1  0  0.084211  0  0.957971  0  0  0.0987  0  1.013026  0  0  0.100861  0  1.012792  0  0  0.100413  0.09712  0  1.013307  0
H  H10  1  0.99806088  0.11195796  0.05121930  1  0  0.084343  0  0.957875  0  0  0.098773  0  1.012989  0  0  0.10093  0  1.01276  0  0  0.100414  0.097189  0  1.013277  0
H  H11  1  0.49800843  0.88809018  0.44875569  1  0  0.084206  0  0.958025  0  0  0.098705  0  1.013067  0  0  0.100863  0  1.012836  0  0  0.100404  0.097125  0  1.013349  0
H  H12  1  0.40428165  0.98821825  0.92216609  1  0  0.079011  0  0.969992  0  0  0.091394  0  1.029389  0  0  0.094048  0  1.028128  0  0  0.097833  0.089481  0  1.030368  0
H  H13  1  0.90439364  0.01169949  0.57783314  1  0  0.079258  0  0.970038  0  0  0.091553  0  1.029472  0  0  0.094202  0  1.028223  0  0  0.097904  0.089642  0  1.030451  0
H  H14  1  0.59566001  0.01177774  0.07784936  1  0  0.078955  0  0.970014  0  0  0.091335  0  1.029416  0  0  0.093987  0  1.028162  0  0  0.097797  0.089426  0  1.030395  0
H  H15  1  0.09559203  0.98829231  0.42215365  1  0  0.079196  0  0.970188  0  0  0.091569  0  1.029532  0  0  0.094221  0  1.02828  0  0  0.097928  0.089658  0  1.03051  0
H  H16  1  0.62176398  0.94018375  0.72333199  1  0  0.083317  0  0.986435  0  0  0.094206  0  1.046625  0  0  0.09585  0  1.048066  0  0  0.095419  0.093006  0  1.045722  0
H  H17  1  0.12189899  0.05975999  0.77666899  1  0  0.083315  0  0.986228  0  0  0.094243  0  1.046378  0  0  0.095883  0  1.04782  0  0  0.095502  0.093031  0  1.045489  0
H  H18  1  0.37820912  0.05981976  0.27669613  1  0  0.083406  0  0.986364  0  0  0.094321  0  1.046505  0  0  0.095966  0  1.047941  0  0  0.095474  0.093099  0  1.045628  0
H  H19  1  0.87812230  0.94023146  0.22331275  1  0  0.083343  0  0.986157  0  0  0.094278  0  1.046302  0  0  0.095919  0  1.047744  0  0  0.095498  0.093063  0  1.045419  0
H  H20  1  0.42593819  0.79634533  0.54924625  1  0  0.098465  0  0.963702  0  0  0.106979  0  1.027624  0  0  0.109971  0  1.026281  0  0  0.10195  0.104858  0  1.028607  0
H  H21  1  0.92603759  0.20364142  0.95073189  1  0  0.098461  0  0.963849  0  0  0.107023  0  1.027676  0  0  0.11  0  1.026351  0  0  0.101958  0.104901  0  1.028656  0
H  H22  1  0.57404957  0.20366728  0.45076394  1  0  0.098422  0  0.96361  0  0  0.106996  0  1.027463  0  0  0.109955  0  1.026157  0  0  0.101957  0.104872  0  1.028455  0
H  H23  1  0.07399628  0.79635149  0.04926024  1  0  0.098412  0  0.96393  0  0  0.106981  0  1.027754  0  0  0.109957  0  1.02643  0  0  0.10197  0.104863  0  1.028727  0
C  C24  1  0.98518933  0.68328172  0.54395399  1  0  0.26302  0  3.792269  0  0  0.243997  0  4.054589  0  0  0.252916  0  4.072594  0  0  0.215106  0.237908  0  4.042545  0
C  C25  1  0.48525359  0.31671180  0.95604196  1  0  0.262334  0  3.792342  0  0  0.243147  0  4.054916  0  0  0.252068  0  4.072927  0  0  0.21472  0.237057  0  4.042876  0
C  C26  1  0.01479633  0.31672861  0.45604468  1  0  0.262742  0  3.792319  0  0  0.243715  0  4.054634  0  0  0.252634  0  4.072644  0  0  0.215034  0.237627  0  4.042587  0
C  C27  1  0.51476561  0.68328279  0.04395327  1  0  0.262526  0  3.79223  0  0  0.243444  0  4.054625  0  0  0.252366  0  4.072633  0  0  0.214913  0.237353  0  4.042586  0
C  C28  1  0.10524643  0.76108565  0.65097574  1  0  -0.006487  0  3.809792  0  0  0.013836  0  4.038215  0  0  0.012092  0  4.061128  0  0  -0.010347  0.014945  0  4.022768  0
C  C29  1  0.60533298  0.23888574  0.84901506  1  0  -0.006332  0  3.80952  0  0  0.014097  0  4.037897  0  0  0.012355  0  4.060809  0  0  -0.010303  0.015203  0  4.022454  0
C  C30  1  0.89472248  0.23891629  0.34902963  1  0  -0.006478  0  3.809705  0  0  0.013815  0  4.038148  0  0  0.012069  0  4.061072  0  0  -0.01038  0.014925  0  4.022704  0
C  C31  1  0.39471345  0.76111119  0.15098187  1  0  -0.006275  0  3.809264  0  0  0.014187  0  4.037532  0  0  0.012445  0  4.060441  0  0  -0.010282  0.015294  0  4.022093  0
C  C32  1  0.98912034  0.78628287  0.76440940  1  0  -0.090458  0  3.744641  0  0  -0.110964  0  3.990464  0  0  -0.113188  0  4.011442  0  0  -0.086939  -0.10925  0  3.976204  0
C  C33  1  0.48921580  0.21367629  0.73559235  1  0  -0.090014  0  3.744286  0  0  -0.110521  0  3.990122  0  0  -0.112747  0  4.0111  0  0  -0.086746  -0.108814  0  3.975878  0
C  C34  1  0.01083600  0.21371406  0.23558753  1  0  -0.090374  0  3.744393  0  0  -0.110835  0  3.990175  0  0  -0.113103  0  4.011127  0  0  -0.086898  -0.109121  0  3.975927  0
C  C35  1  0.51082016  0.78632891  0.26440686  1  0  -0.090064  0  3.744138  0  0  -0.110553  0  3.989946  0  0  -0.112774  0  4.010919  0  0  -0.086721  -0.108853  0  3.9757  0
C  C36  1  0.09754404  0.86738102  0.86151860  1  0  -0.062896  0  3.776188  0  0  -0.07812  0  4.028888  0  0  -0.080307  0  4.050943  0  0  -0.089586  -0.076561  0  4.013758  0
C  C37  1  0.59767014  0.13256332  0.63849524  1  0  -0.063006  0  3.77673  0  0  -0.078286  0  4.029349  0  0  -0.080471  0  4.051406  0  0  -0.08965  -0.076729  0  4.014225  0
C  C38  1  0.90240182  0.13261643  0.13848591  1  0  -0.06305  0  3.776168  0  0  -0.078307  0  4.028839  0  0  -0.080497  0  4.050911  0  0  -0.089697  -0.076748  0  4.013715  0
C  C39  1  0.40234906  0.86743897  0.36150452  1  0  -0.06299  0  3.776717  0  0  -0.078294  0  4.029376  0  0  -0.080474  0  4.051428  0  0  -0.089652  -0.076736  0  4.014252  0
C  C40  1  0.32323469  0.92330173  0.84695409  1  0  -0.071968  0  3.769921  0  0  -0.086779  0  4.018539  0  0  -0.088374  0  4.039055  0  0  -0.09097  -0.085536  0  4.00448  0
C  C41  1  0.82335026  0.07662883  0.65304886  1  0  -0.072318  0  3.771027  0  0  -0.087053  0  4.019731  0  0  -0.08865  0  4.040249  0  0  -0.091043  -0.085813  0  4.005677  0
C  C42  1  0.67671954  0.07669479  0.15305828  1  0  -0.071863  0  3.770036  0  0  -0.086676  0  4.01869  0  0  -0.08827  0  4.039202  0  0  -0.090954  -0.085436  0  4.004634  0
C  C43  1  0.17666893  0.92336897  0.34693937  1  0  -0.07225  0  3.771099  0  0  -0.087033  0  4.019829  0  0  -0.088631  0  4.040344  0  0  -0.091031  -0.085789  0  4.005772  0
C  C44  1  0.44415042  0.89716930  0.73470100  1  0  -0.070774  0  3.796548  0  0  -0.078702  0  4.0385  0  0  -0.081253  0  4.061408  0  0  -0.094012  -0.076937  0  4.022899  0
C  C45  1  0.94427406  0.10277477  0.76529474  1  0  -0.070571  0  3.796156  0  0  -0.078564  0  4.038103  0  0  -0.081114  0  4.061019  0  0  -0.09411  -0.076787  0  4.022499  0
C  C46  1  0.55582058  0.10283200  0.26531643  1  0  -0.070964  0  3.796658  0  0  -0.078952  0  4.038659  0  0  -0.081501  0  4.061552  0  0  -0.094079  -0.077168  0  4.023074  0
C  C47  1  0.05577447  0.89722198  0.23468899  1  0  -0.070748  0  3.796296  0  0  -0.078763  0  4.038309  0  0  -0.081323  0  4.061248  0  0  -0.094247  -0.076981  0  4.022701  0
C  C48  1  0.33598263  0.81689583  0.63745046  1  0  -0.095163  0  3.724402  0  0  -0.118292  0  3.970283  0  0  -0.12037  0  3.990952  0  0  -0.0887  -0.116744  0  3.956219  0
C  C49  1  0.83607554  0.18307287  0.86254157  1  0  -0.095315  0  3.723963  0  0  -0.11845  0  3.969856  0  0  -0.120519  0  3.990528  0  0  -0.088721  -0.116892  0  3.955788  0
C  C50  1  0.66400094  0.18310932  0.36255857  1  0  -0.095026  0  3.72438  0  0  -0.118184  0  3.970282  0  0  -0.120234  0  3.990962  0  0  -0.088709  -0.116634  0  3.956214  0
C  C51  1  0.16396880  0.81692359  0.13744861  1  0  -0.095251  0  3.724037  0  0  -0.118405  0  3.969934  0  0  -0.12047  0  3.990607  0  0  -0.088702  -0.116849  0  3.955865  0
N  N52  1  0.04868336  0.67777429  0.43399875  1  0  -0.288177  0  2.925243  0  0  -0.266961  0  3.189532  0  0  -0.276645  0  3.204696  0  0  -0.218123  -0.260345  0  3.179331  0
N  N53  1  0.54874920  0.32224230  0.06600857  1  0  -0.288021  0  2.925295  0  0  -0.26678  0  3.189665  0  0  -0.276465  0  3.204835  0  0  -0.218006  -0.260165  0  3.179464  0
N  N54  1  0.95132116  0.32223558  0.56600385  1  0  -0.287983  0  2.925126  0  0  -0.26676  0  3.189389  0  0  -0.276443  0  3.204552  0  0  -0.21798  -0.260143  0  3.179186  0
N  N55  1  0.45128257  0.67775672  0.93398667  1  0  -0.288098  0  2.92518  0  0  -0.266879  0  3.189501  0  0  -0.276564  0  3.204667  0  0  -0.218038  -0.260259  0  3.179286  0
N  N56  1  0.89464486  0.60132892  0.36035134  1  0  -0.097099  0  3.323715  0  0  -0.033459  0  3.635611  0  0  -0.039595  0  3.646053  0  0  -0.136222  -0.029216  0  3.62853  0
N  N57  1  0.39467582  0.39870217  0.13965906  1  0  -0.096876  0  3.323543  0  0  -0.033225  0  3.635369  0  0  -0.039363  0  3.645818  0  0  -0.136139  -0.028983  0  3.628291  0
N  N58  1  0.10537014  0.39867651  0.63965124  1  0  -0.097107  0  3.323736  0  0  -0.033493  0  3.635677  0  0  -0.039627  0  3.646119  0  0  -0.13632  -0.029251  0  3.628598  0
N  N59  1  0.60535594  0.60129994  0.86033817  1  0  -0.096799  0  3.323528  0  0  -0.033154  0  3.635372  0  0  -0.03929  0  3.645817  0  0  -0.136172  -0.028912  0  3.62829  0
N  N60  1  0.74134114  0.56049407  0.42081521  1  0  -0.099396  0  3.195965  0  0  -0.058404  0  3.504149  0  0  -0.062403  0  3.515711  0  0  -0.132768  -0.055585  0  3.496322  0
N  N61  1  0.24134539  0.43952721  0.07919381  1  0  -0.099679  0  3.195912  0  0  -0.058681  0  3.504114  0  0  -0.06268  0  3.515673  0  0  -0.132867  -0.055864  0  3.49629  0
N  N62  1  0.25867177  0.43951131  0.57918652  1  0  -0.099516  0  3.195984  0  0  -0.058575  0  3.504194  0  0  -0.062576  0  3.515755  0  0  -0.132793  -0.055756  0  3.49637  0
N  N63  1  0.75868219  0.56047106  0.92080116  1  0  -0.099758  0  3.195827  0  0  -0.058775  0  3.50409  0  0  -0.062774  0  3.515648  0  0  -0.132895  -0.055957  0  3.496264  0
N  N64  1  0.79501869  0.61089646  0.53717656  1  0  -0.283786  0  3.210199  0  0  -0.219417  0  3.512846  0  0  -0.23519  0  3.526965  0  0  -0.248043  -0.208715  0  3.503187  0
N  N65  1  0.29503987  0.38910439  0.96283193  1  0  -0.283498  0  3.209786  0  0  -0.219085  0  3.512465  0  0  -0.234858  0  3.526586  0  0  -0.247981  -0.208386  0  3.502807  0
N  N66  1  0.20497745  0.38911101  0.46282350  1  0  -0.28367  0  3.20993  0  0  -0.219205  0  3.512473  0  0  -0.234979  0  3.526603  0  0  -0.24798  -0.208504  0  3.502813  0
N  N67  1  0.70497932  0.61089038  0.03716583  1  0  -0.283602  0  3.209887  0  0  -0.219271  0  3.512627  0  0  -0.235043  0  3.526745  0  0  -0.248073  -0.208574  0  3.502973  0
