# generated using pymatgen
data_Na2Zn3H24(C5O6)4
_symmetry_space_group_name_H-M   'P 1'
_cell_length_a   7.45843481
_cell_length_b   10.32560558
_cell_length_c   21.21300000
_cell_angle_alpha   88.75673185
_cell_angle_beta   86.55577817
_cell_angle_gamma   68.82853929
_symmetry_Int_Tables_number   1
_chemical_formula_structural   Na2Zn3H24(C5O6)4
_chemical_formula_sum   'Na4 Zn6 H48 C40 O48'
_cell_volume   1520.65532549
_cell_formula_units_Z   2
loop_
 _symmetry_equiv_pos_site_id
 _symmetry_equiv_pos_as_xyz
  1  'x, y, z'
loop_
 _atom_site_type_symbol
 _atom_site_label
 _atom_site_symmetry_multiplicity
 _atom_site_fract_x
 _atom_site_fract_y
 _atom_site_fract_z
 _atom_site_occupancy
 _atom_site_hle17_bader_spin_density
 _atom_site_hle17_ddec_charge
 _atom_site_hle17_ddec_spin_density
 _atom_site_hle17_ddec_sum_bond_order
 _atom_site_hle17_magmom
 _atom_site_hse06_10hf_bader_spin_density
 _atom_site_hse06_10hf_ddec_charge
 _atom_site_hse06_10hf_ddec_spin_density
 _atom_site_hse06_10hf_ddec_sum_bond_order
 _atom_site_hse06_10hf_magmom
 _atom_site_hse06_bader_spin_density
 _atom_site_hse06_ddec_charge
 _atom_site_hse06_ddec_spin_density
 _atom_site_hse06_ddec_sum_bond_order
 _atom_site_hse06_magmom
 _atom_site_pbe_bader_charge
 _atom_site_pbe_bader_spin_density
 _atom_site_pbe_cm5_charge
 _atom_site_pbe_ddec_charge
 _atom_site_pbe_ddec_spin_density
 _atom_site_pbe_ddec_sum_bond_order
 _atom_site_pbe_magmom
Na  Na0  1  0.78363873  0.75762204  0.69273988  1  0  0.900843  0  0.392521  0  0  0.858044  0  0.546267  0  0  0.868197  0  0.524453  0  0.882162  0  0.674873  0.850584  0  0.561937  0
Na  Na1  1  0.45872794  0.75760023  0.80727769  1  0  0.900844  0  0.392147  0  0  0.857927  0  0.545945  0  0  0.868084  0  0.524122  0  0.882391  0  0.674141  0.85054  0  0.561413  0
Na  Na2  1  0.21636053  0.24237832  0.30726023  1  0  0.900843  0  0.392519  0  0  0.858042  0  0.546265  0  0  0.868195  0  0.524451  0  0.882155  0  0.674878  0.850582  0  0.561935  0
Na  Na3  1  0.54127079  0.24240117  0.19272242  1  0  0.900849  0  0.39214  0  0  0.85794  0  0.545932  0  0  0.8681  0  0.524102  0  0.882393  0  0.674142  0.850553  0  0.561398  0
Zn  Zn4  1  0.02537065  0.94913454  0.74999947  1  0  1.203863  0  1.687301  0  0  1.052549  0  2.127582  0  0  1.098445  0  2.06812  0  1.366131  0  0.672663  1.020023  0  2.168654  0
Zn  Zn5  1  0.97462860  0.05086582  0.25000111  1  0  1.203933  0  1.687204  0  0  1.052626  0  2.12748  0  0  1.09852  0  2.068018  0  1.366132  0  0.67269  1.020101  0  2.168552  0
Zn  Zn6  1  0.18234742  0.50076820  0.41950466  1  0  1.154822  0  1.710147  0  0  0.982757  0  2.18275  0  0  1.033291  0  2.119081  0  1.321256  0  0.687668  0.946708  0  2.227177  0
Zn  Zn7  1  0.31700161  0.50076404  0.08044819  1  0  1.158672  0  1.706077  0  0  0.987335  0  2.177543  0  0  1.037635  0  2.114031  0  1.319188  0  0.688324  0.947861  0  2.225319  0
Zn  Zn8  1  0.81765183  0.49923216  0.58049545  1  0  1.15483  0  1.710152  0  0  0.982752  0  2.182776  0  0  1.033287  0  2.119105  0  1.321167  0  0.687674  0.946703  0  2.227203  0
Zn  Zn9  1  0.68299630  0.49923631  0.91955194  1  0  1.158674  0  1.706061  0  0  0.987343  0  2.177531  0  0  1.037644  0  2.114018  0  1.319203  0  0.688341  0.947869  0  2.225308  0
H  H10  1  0.49499629  0.51238974  0.35740288  1  0  0.427896  0  0.878277  0  0  0.392291  0  0.947395  0  0  0.404137  0  0.93068  0  0.656284  0  0.29545  0.383941  0  0.959149  0
H  H11  1  0.99284277  0.51237936  0.14253500  1  0  0.428022  0  0.877915  0  0  0.391699  0  0.948138  0  0  0.403547  0  0.931429  0  0.662667  0  0.294792  0.383222  0  0.960084  0
H  H12  1  0.50500297  0.48761061  0.64259723  1  0  0.427897  0  0.878275  0  0  0.392286  0  0.947405  0  0  0.404132  0  0.930688  0  0.656285  0  0.295447  0.383935  0  0.959159  0
H  H13  1  0.00715514  0.48762100  0.85746513  1  0  0.428041  0  0.877889  0  0  0.391725  0  0.948101  0  0  0.403573  0  0.931393  0  0.662673  0  0.294805  0.383249  0  0.960045  0
H  H14  1  0.32061929  0.66168352  0.35076671  1  0  0.440707  0  0.857901  0  0  0.404527  0  0.928561  0  0  0.415749  0  0.912423  0  0.648507  0  0.297367  0.396548  0  0.940019  0
H  H15  1  0.01789446  0.66167417  0.14922411  1  0  0.440068  0  0.858895  0  0  0.404225  0  0.929223  0  0  0.415473  0  0.913043  0  0.656203  0  0.296808  0.396033  0  0.940994  0
H  H16  1  0.67938182  0.33831580  0.64923336  1  0  0.440698  0  0.857912  0  0  0.404532  0  0.928552  0  0  0.415755  0  0.912413  0  0.6485  0  0.297369  0.396553  0  0.940011  0
H  H17  1  0.98210427  0.33832722  0.85077600  1  0  0.440068  0  0.858895  0  0  0.40423  0  0.929215  0  0  0.415477  0  0.913036  0  0.656206  0  0.296813  0.396039  0  0.940985  0
H  H18  1  0.12061991  0.15575158  0.67793185  1  0  0.446262  0  0.848763  0  0  0.412879  0  0.914811  0  0  0.424562  0  0.89789  0  0.660782  0  0.292865  0.404637  0  0.926732  0
H  H19  1  0.72364611  0.15574950  0.82207587  1  0  0.446933  0  0.847904  0  0  0.41336  0  0.914274  0  0  0.425025  0  0.897383  0  0.683744  0  0.292671  0.405026  0  0.926326  0
H  H20  1  0.87937986  0.84424774  0.32206826  1  0  0.44628  0  0.848742  0  0  0.412892  0  0.914797  0  0  0.424576  0  0.897876  0  0.660783  0  0.292872  0.40465  0  0.92672  0
H  H21  1  0.27635232  0.84424982  0.17792379  1  0  0.446928  0  0.847913  0  0  0.413359  0  0.914275  0  0  0.425024  0  0.897385  0  0.683741  0  0.292672  0.405024  0  0.926328  0
H  H22  1  0.13161019  0.15241986  0.75593505  1  0  0.419512  0  0.884063  0  0  0.387272  0  0.947929  0  0  0.399573  0  0.929995  0  0.653772  0  0.293946  0.378625  0  0.96051  0
H  H23  1  0.71589256  0.15242505  0.74407318  1  0  0.420242  0  0.88301  0  0  0.388059  0  0.946791  0  0  0.400354  0  0.928865  0  0.649122  0  0.294331  0.37936  0  0.959475  0
H  H24  1  0.86838906  0.84758050  0.24406458  1  0  0.419511  0  0.884067  0  0  0.387277  0  0.947923  0  0  0.399577  0  0.929989  0  0.653726  0  0.293947  0.378629  0  0.960505  0
H  H25  1  0.28410804  0.84757531  0.25592642  1  0  0.420235  0  0.88303  0  0  0.388039  0  0.946828  0  0  0.400335  0  0.928901  0  0.64896  0  0.294331  0.37934  0  0.959512  0
H  H26  1  0.24899395  0.70360418  0.69392478  1  0  0.4336  0  0.86341  0  0  0.401022  0  0.928426  0  0  0.413024  0  0.910885  0  0.652198  0  0.30283  0.39255  0  0.940789  0
H  H27  1  0.04737019  0.70356159  0.80614006  1  0  0.432638  0  0.864652  0  0  0.400276  0  0.929353  0  0  0.412289  0  0.911817  0  0.634419  0  0.302615  0.39173  0  0.941856  0
H  H28  1  0.75100664  0.29639618  0.30607530  1  0  0.433583  0  0.86343  0  0  0.401002  0  0.928451  0  0  0.413005  0  0.91091  0  0.65194  0  0.302817  0.39253  0  0.940815  0
H  H29  1  0.95262907  0.29643876  0.19386004  1  0  0.432638  0  0.864654  0  0  0.400275  0  0.929357  0  0  0.412288  0  0.91182  0  0.634417  0  0.302606  0.391728  0  0.941861  0
H  H30  1  0.36052137  0.80226270  0.67937490  1  0  0.434506  0  0.862264  0  0  0.406766  0  0.921109  0  0  0.416929  0  0.906451  0  0.652532  0  0.304091  0.399536  0  0.931528  0
H  H31  1  0.83720241  0.80223777  0.82066585  1  0  0.434077  0  0.862758  0  0  0.405851  0  0.922231  0  0  0.416015  0  0.907585  0  0.641956  0  0.303869  0.398572  0  0.93273  0
H  H32  1  0.63947788  0.19773766  0.32062473  1  0  0.434516  0  0.862251  0  0  0.406769  0  0.921108  0  0  0.416936  0  0.906442  0  0.652538  0  0.30409  0.39954  0  0.931528  0
H  H33  1  0.16279736  0.19776155  0.17933426  1  0  0.434063  0  0.862776  0  0  0.405837  0  0.922248  0  0  0.416  0  0.907602  0  0.641954  0  0.30386  0.398559  0  0.932746  0
H  H34  1  0.68534401  0.99013502  0.39455112  1  0  0.107879  0  0.953883  0  0  0.116159  0  1.018871  0  0  0.120056  0  1.01518  0  0.116105  0  0.11193  0.113259  0  1.021622  0
H  H35  1  0.32456444  0.99008413  0.10540103  1  0  0.108281  0  0.952273  0  0  0.116624  0  1.017175  0  0  0.120528  0  1.013539  0  0.120786  0  0.112119  0.113753  0  1.020121  0
H  H36  1  0.31465659  0.00986533  0.60544943  1  0  0.107904  0  0.953846  0  0  0.116182  0  1.018837  0  0  0.120078  0  1.015146  0  0.116101  0  0.111947  0.113276  0  1.021594  0
H  H37  1  0.67543720  0.00991415  0.89459811  1  0  0.108256  0  0.952285  0  0  0.116603  0  1.017179  0  0  0.120509  0  1.01354  0  0.120782  0  0.112131  0.113732  0  1.020125  0
H  H38  1  0.55361244  0.24738628  0.55980548  1  0  0.106591  0  0.946858  0  0  0.113309  0  1.014912  0  0  0.117601  0  1.010412  0  0.099432  0  0.109488  0.110273  0  1.017993  0
H  H39  1  0.19891026  0.24742782  0.94017862  1  0  0.105848  0  0.947651  0  0  0.11251  0  1.015809  0  0  0.116785  0  1.011371  0  0.100206  0  0.109412  0.109643  0  1.018549  0
H  H40  1  0.44638950  0.75261408  0.44019457  1  0  0.106639  0  0.946806  0  0  0.113318  0  1.014902  0  0  0.117611  0  1.010402  0  0.09967  0  0.109501  0.110282  0  1.017982  0
H  H41  1  0.80109003  0.75257046  0.05982149  1  0  0.105842  0  0.947634  0  0  0.112503  0  1.015798  0  0  0.116777  0  1.011361  0  0.100187  0  0.109405  0.109636  0  1.018539  0
H  H42  1  0.96348157  0.82798588  0.56617277  1  0  0.114077  0  0.945447  0  0  0.119187  0  1.014272  0  0  0.123521  0  1.010345  0  0.100737  0  0.113569  0.116046  0  1.017096  0
H  H43  1  0.20848310  0.82800354  0.93377636  1  0  0.114187  0  0.945343  0  0  0.119194  0  1.014306  0  0  0.123569  0  1.01029  0  0.1374  0  0.1137  0.116152  0  1.016921  0
H  H44  1  0.03651903  0.17201447  0.43382731  1  0  0.114059  0  0.945431  0  0  0.119169  0  1.014264  0  0  0.123503  0  1.010337  0  0.100738  0  0.113565  0.116029  0  1.017087  0
H  H45  1  0.79151451  0.17199474  0.06622286  1  0  0.114199  0  0.945367  0  0  0.119229  0  1.01429  0  0  0.123602  0  1.010277  0  0.137423  0  0.113717  0.116176  0  1.016917  0
H  H46  1  0.76831470  0.55613620  0.41930270  1  0  0.021743  0  0.92973  0  0  0.032161  0  0.998068  0  0  0.03238  0  0.993373  0  0.117276  0  0.117838  0.031571  0  1.001733  0
H  H47  1  0.67564814  0.55625148  0.08060926  1  0  0.021924  0  0.928447  0  0  0.031963  0  0.99739  0  0  0.032133  0  0.992681  0  0.119495  0  0.118084  0.03153  0  1.00081  0
H  H48  1  0.23168403  0.44386520  0.58069741  1  0  0.021729  0  0.929766  0  0  0.032145  0  0.998107  0  0  0.032365  0  0.993409  0  0.116884  0  0.117837  0.031555  0  1.001771  0
H  H49  1  0.32435111  0.44374888  0.91939085  1  0  0.021944  0  0.928421  0  0  0.031977  0  0.997373  0  0  0.032147  0  0.992664  0  0.1195  0  0.118088  0.031544  0  1.000794  0
H  H50  1  0.40835443  0.00117566  0.73279694  1  0  0.422989  0  0.876957  0  0  0.396852  0  0.933246  0  0  0.40694  0  0.918196  0  0.63756  0  0.290773  0.389651  0  0.943994  0
H  H51  1  0.59039466  0.00115073  0.76715734  1  0  0.422918  0  0.87696  0  0  0.397061  0  0.932791  0  0  0.407132  0  0.917761  0  0.637789  0  0.290769  0.389851  0  0.943562  0
H  H52  1  0.59164348  0.99882470  0.26720319  1  0  0.423005  0  0.876942  0  0  0.396843  0  0.93326  0  0  0.40693  0  0.918212  0  0.637578  0  0.290795  0.389644  0  0.944004  0
H  H53  1  0.40960273  0.99885066  0.23284279  1  0  0.422876  0  0.877011  0  0  0.397027  0  0.932831  0  0  0.407098  0  0.917802  0  0.637784  0  0.290741  0.389818  0  0.943602  0
H  H54  1  0.68993815  0.51932736  0.71815272  1  0  0.425167  0  0.870609  0  0  0.399889  0  0.924261  0  0  0.41006  0  0.909045  0  0.637113  0  0.292345  0.392587  0  0.935188  0
H  H55  1  0.79086713  0.51931594  0.78188903  1  0  0.424881  0  0.871093  0  0  0.39981  0  0.924309  0  0  0.409966  0  0.90914  0  0.613653  0  0.292554  0.392498  0  0.935275  0
H  H56  1  0.31006110  0.48067300  0.28184692  1  0  0.425157  0  0.870625  0  0  0.39989  0  0.924258  0  0  0.410063  0  0.909041  0  0.63715  0  0.292358  0.392589  0  0.935184  0
H  H57  1  0.20913160  0.48068546  0.21811107  1  0  0.425014  0  0.870897  0  0  0.399884  0  0.924229  0  0  0.410043  0  0.909053  0  0.613647  0  0.292589  0.392571  0  0.935197  0
C  C58  1  0.76146340  0.03989649  0.57048724  1  0  -0.092965  0  3.757414  0  0  -0.068046  0  4.000641  0  0  -0.080238  0  4.024598  0  0.050161  0  -0.017738  -0.060402  0  3.984723  0
C  C59  1  0.19854662  0.03993803  0.92948464  1  0  -0.093878  0  3.75821  0  0  -0.067645  0  4.000281  0  0  -0.079871  0  4.024254  0  -0.007712  0  -0.017885  -0.059974  0  3.983754  0
C  C60  1  0.23853854  0.96010387  0.42951281  1  0  -0.093073  0  3.75755  0  0  -0.068066  0  4.000645  0  0  -0.080258  0  4.024601  0  0.050177  0  -0.017711  -0.060422  0  3.984727  0
C  C61  1  0.80145264  0.96006232  0.07051499  1  0  -0.09385  0  3.758064  0  0  -0.067645  0  4.000128  0  0  -0.079869  0  4.024099  0  -0.007658  0  -0.017888  -0.059973  0  3.983597  0
C  C62  1  0.70919451  0.00402236  0.44360362  1  0  -0.03718  0  3.66946  0  0  -0.076895  0  3.917359  0  0  -0.071633  0  3.935484  0  -0.047869  0  -0.064187  -0.079773  0  3.904899  0
C  C63  1  0.28684658  0.00398601  0.05634597  1  0  -0.035992  0  3.66513  0  0  -0.076023  0  3.912923  0  0  -0.07091  0  3.93118  0  -0.047215  0  -0.063835  -0.079813  0  3.901977  0
C  C64  1  0.29080609  0.99597799  0.55639598  1  0  -0.037225  0  3.669453  0  0  -0.076931  0  3.917345  0  0  -0.071668  0  3.935469  0  -0.047868  0  -0.064188  -0.079805  0  3.904888  0
C  C65  1  0.71315557  0.99601123  0.94365411  1  0  -0.035941  0  3.665047  0  0  -0.075947  0  3.912872  0  0  -0.070834  0  3.931124  0  -0.046959  0  -0.063827  -0.079738  0  3.901926  0
C  C66  1  0.46784328  0.24512117  0.43730036  1  0  0.670614  0  3.895476  0  0  0.619141  0  4.186487  0  0  0.653671  0  4.180227  0  1.557411  0  0.216593  0.595691  0  4.190026  0
C  C67  1  0.28713531  0.24505782  0.06268647  1  0  0.672629  0  3.895291  0  0  0.621116  0  4.185993  0  0  0.655628  0  4.179619  0  1.580152  0  0.2173  0.597197  0  4.189986  0
C  C68  1  0.53215545  0.75488023  0.56269975  1  0  0.670663  0  3.895467  0  0  0.619179  0  4.186491  0  0  0.653709  0  4.180232  0  1.55719  0  0.216582  0.595729  0  4.19003  0
C  C69  1  0.71286580  0.75494150  0.93731360  1  0  0.672519  0  3.895334  0  0  0.621028  0  4.186011  0  0  0.655539  0  4.179638  0  1.580132  0  0.217253  0.597109  0  4.190001  0
C  C70  1  0.60802697  0.13098906  0.47322817  1  0  -0.078852  0  3.757009  0  0  -0.050036  0  3.991521  0  0  -0.061993  0  4.01597  0  -0.001999  0  -0.015743  -0.042501  0  3.975137  0
C  C71  1  0.26103127  0.13095687  0.02674011  1  0  -0.080909  0  3.757157  0  0  -0.051838  0  3.991674  0  0  -0.063832  0  4.016221  0  -0.02579  0  -0.015917  -0.04432  0  3.976068  0
C  C72  1  0.39197311  0.86901233  0.52677191  1  0  -0.078787  0  3.756939  0  0  -0.049973  0  3.991453  0  0  -0.06193  0  4.015902  0  -0.001846  0  -0.015702  -0.042438  0  3.975066  0
C  C73  1  0.73896985  0.86904245  0.97325950  1  0  -0.080818  0  3.757079  0  0  -0.051751  0  3.991577  0  0  -0.063743  0  4.016122  0  -0.025819  0  -0.015916  -0.044232  0  3.975971  0
C  C74  1  0.83722616  0.89445719  0.47686010  1  0  -0.081792  0  3.764821  0  0  -0.05336  0  4.001407  0  0  -0.065934  0  4.026545  0  0.029399  0  -0.016727  -0.045426  0  3.984649  0
C  C75  1  0.26834988  0.89444992  0.02308143  1  0  -0.080016  0  3.760637  0  0  -0.050775  0  3.995824  0  0  -0.063262  0  4.021006  0  0.009283  0  -0.016739  -0.042987  0  3.979866  0
C  C76  1  0.16277309  0.10554317  0.52314001  1  0  -0.081833  0  3.76487  0  0  -0.053401  0  4.00146  0  0  -0.065975  0  4.026598  0  0.029396  0  -0.016751  -0.045467  0  3.984701  0
C  C77  1  0.73165041  0.10554836  0.97691820  1  0  -0.080034  0  3.760508  0  0  -0.05088  0  3.995847  0  0  -0.063369  0  4.021029  0  0.009015  0  -0.01673  -0.043086  0  3.979891  0
C  C78  1  0.78940851  0.05749498  0.63861366  1  0  0.682194  0  3.861545  0  0  0.628988  0  4.155099  0  0  0.663888  0  4.147733  0  1.547331  0  0.224049  0.605272  0  4.159532  0
C  C79  1  0.15292211  0.05757495  0.86137650  1  0  0.680773  0  3.862161  0  0  0.626828  0  4.156293  0  0  0.661713  0  4.148966  0  1.56508  0  0.222966  0.602982  0  4.160801  0
C  C80  1  0.21059395  0.94250434  0.36138639  1  0  0.682192  0  3.861468  0  0  0.628956  0  4.155004  0  0  0.663855  0  4.147641  0  1.547339  0  0.224027  0.60524  0  4.159437  0
C  C81  1  0.84707714  0.94242541  0.13862407  1  0  0.68081  0  3.86208  0  0  0.626956  0  4.156091  0  0  0.66184  0  4.148763  0  1.565151  0  0.223037  0.60311  0  4.160598  0
C  C82  1  0.94466585  0.75986223  0.44396343  1  0  0.648257  0  3.906342  0  0  0.595862  0  4.200678  0  0  0.630144  0  4.195651  0  1.539888  0  0.206999  0.57256  0  4.203438  0
C  C83  1  0.29549782  0.75984665  0.05598116  1  0  0.649472  0  3.904624  0  0  0.597556  0  4.19791  0  0  0.631709  0  4.192957  0  1.547161  0  0.208146  0.573887  0  4.20095  0
C  C84  1  0.05533340  0.24013813  0.55603667  1  0  0.648287  0  3.906422  0  0  0.595897  0  4.200744  0  0  0.63018  0  4.195716  0  1.539895  0  0.206982  0.572596  0  4.203507  0
C  C85  1  0.70450195  0.24015267  0.94401847  1  0  0.649563  0  3.904455  0  0  0.597627  0  4.19782  0  0  0.631781  0  4.192864  0  1.547171  0  0.208148  0.573941  0  4.200884  0
C  C86  1  0.63433801  0.14871530  0.53677690  1  0  -0.028815  0  3.662705  0  0  -0.070354  0  3.915311  0  0  -0.064465  0  3.93189  0  0.010041  0  -0.063764  -0.073751  0  3.903946  0
C  C87  1  0.21692517  0.14872153  0.96320233  1  0  -0.02686  0  3.662012  0  0  -0.068793  0  3.914403  0  0  -0.062842  0  3.930949  0  -0.0637  0  -0.063351  -0.071521  0  3.902323  0
C  C88  1  0.36566392  0.85128506  0.46322362  1  0  -0.028821  0  3.662711  0  0  -0.070357  0  3.915299  0  0  -0.06447  0  3.931879  0  0.009766  0  -0.063794  -0.073755  0  3.903938  0
C  C89  1  0.78307512  0.85127675  0.03679731  1  0  -0.026985  0  3.662022  0  0  -0.068918  0  3.914424  0  0  -0.062966  0  3.930966  0  -0.06369  0  -0.063405  -0.071646  0  3.902343  0
C  C90  1  0.86305083  0.91276398  0.54029747  1  0  -0.030087  0  3.650055  0  0  -0.071088  0  3.903202  0  0  -0.065066  0  3.920234  0  -0.098613  0  -0.060662  -0.074634  0  3.891658  0
C  C91  1  0.22416255  0.91278267  0.95965250  1  0  -0.032418  0  3.65158  0  0  -0.074299  0  3.905117  0  0  -0.068229  0  3.922154  0  -0.017338  0  -0.061156  -0.077093  0  3.892869  0
C  C92  1  0.13694977  0.08723638  0.45970260  1  0  -0.030028  0  3.650073  0  0  -0.071064  0  3.903211  0  0  -0.065042  0  3.920242  0  -0.098604  0  -0.060672  -0.07461  0  3.891667  0
C  C93  1  0.77583618  0.08721872  0.04034666  1  0  -0.032476  0  3.651541  0  0  -0.074338  0  3.905099  0  0  -0.068269  0  3.922134  0  -0.01737  0  -0.061196  -0.077123  0  3.892854  0
C  C94  1  0.83203243  0.47333449  0.38356660  1  0  0.621968  0  3.845234  0  0  0.546567  0  4.149255  0  0  0.580925  0  4.139589  0  1.53559  0  0.165732  0.523298  0  4.15527  0
C  C95  1  0.69479157  0.47341862  0.11633924  1  0  0.623608  0  3.844123  0  0  0.548608  0  4.148118  0  0  0.583027  0  4.1383  0  1.548076  0  0.166167  0.525161  0  4.154238  0
C  C96  1  0.16796682  0.52666586  0.61643303  1  0  0.621995  0  3.845278  0  0  0.546602  0  4.149285  0  0  0.580959  0  4.139618  0  1.535976  0  0.165733  0.523333  0  4.155301  0
C  C97  1  0.30520768  0.52658174  0.88366087  1  0  0.623501  0  3.844287  0  0  0.548501  0  4.14828  0  0  0.582921  0  4.138461  0  1.548077  0  0.166111  0.525053  0  4.154401  0
O  O98  1  0.89493448  0.94805443  0.66710637  1  0  -0.709722  0  2.08543  0  0  -0.644623  0  2.357864  0  0  -0.672788  0  2.34378  0  -1.1994  0  -0.366948  -0.624935  0  2.36701  0
O  O99  1  0.15672681  0.94815621  0.83289351  1  0  -0.70818  0  2.085021  0  0  -0.643054  0  2.357893  0  0  -0.671077  0  2.343584  0  -1.193908  0  -0.365602  -0.623359  0  2.367161  0
O  O100  1  0.10506611  0.05194593  0.33289371  1  0  -0.70973  0  2.085368  0  0  -0.644642  0  2.357807  0  0  -0.672806  0  2.343723  0  -1.199384  0  -0.366952  -0.624954  0  2.366953  0
O  O101  1  0.84327162  0.05184311  0.16710615  1  0  -0.708199  0  2.085033  0  0  -0.643122  0  2.357899  0  0  -0.67114  0  2.343578  0  -1.193905  0  -0.365626  -0.623433  0  2.367179  0
O  O102  1  0.35001322  0.55890293  0.35391743  1  0  -0.856384  0  1.957286  0  0  -0.774855  0  2.173248  0  0  -0.799732  0  2.133198  0  -1.269967  0  -0.554009  -0.757214  0  2.201121  0
O  O103  1  0.09129905  0.55889151  0.14606314  1  0  -0.855641  0  1.957125  0  0  -0.773935  0  2.17289  0  0  -0.798934  0  2.132905  0  -1.28112  0  -0.552711  -0.756184  0  2.201439  0
O  O104  1  0.64998789  0.44109638  0.64608265  1  0  -0.85638  0  1.957284  0  0  -0.774834  0  2.173213  0  0  -0.799711  0  2.133164  0  -1.269963  0  -0.554002  -0.757192  0  2.201086  0
O  O105  1  0.90870206  0.44110781  0.85393694  1  0  -0.855614  0  1.957125  0  0  -0.773951  0  2.172881  0  0  -0.798949  0  2.132901  0  -1.281129  0  -0.552719  -0.756198  0  2.201423  0
O  O106  1  0.15871777  0.09529772  0.71637965  1  0  -0.86445  0  1.930813  0  0  -0.792773  0  2.124599  0  0  -0.816288  0  2.087071  0  -1.296097  0  -0.56276  -0.776057  0  2.150402  0
O  O107  1  0.74592640  0.09531746  0.78362896  1  0  -0.865657  0  1.929754  0  0  -0.793945  0  2.123361  0  0  -0.817434  0  2.085847  0  -1.314446  0  -0.562898  -0.777268  0  2.149524  0
O  O108  1  0.84128096  0.90470367  0.28361999  1  0  -0.86448  0  1.930793  0  0  -0.792806  0  2.12459  0  0  -0.816321  0  2.087059  0  -1.29605  0  -0.562767  -0.776088  0  2.150392  0
O  O109  1  0.25407286  0.90468290  0.21637114  1  0  -0.865638  0  1.929768  0  0  -0.79393  0  2.123384  0  0  -0.817413  0  2.085855  0  -1.314272  0  -0.562895  -0.777253  0  2.149547  0
O  O110  1  0.27511784  0.78223189  0.71308514  1  0  -0.875561  0  1.901309  0  0  -0.815059  0  2.107049  0  0  -0.836855  0  2.070803  0  -1.287862  0  -0.611943  -0.799676  0  2.132269  0
O  O111  1  0.94265920  0.78219138  0.78695766  1  0  -0.874029  0  1.901525  0  0  -0.813367  0  2.107834  0  0  -0.835205  0  2.071684  0  -1.258343  0  -0.611464  -0.797927  0  2.133228  0
O  O112  1  0.72488275  0.21776847  0.28691447  1  0  -0.87557  0  1.901302  0  0  -0.815064  0  2.107046  0  0  -0.83686  0  2.070797  0  -1.287618  0  -0.611939  -0.79968  0  2.132266  0
O  O113  1  0.05734191  0.21780794  0.21304195  1  0  -0.874024  0  1.901519  0  0  -0.813351  0  2.107814  0  0  -0.835196  0  2.071677  0  -1.258335  0  -0.611449  -0.797909  0  2.133207  0
O  O114  1  0.01540686  0.42151319  0.37543304  1  0  -0.669698  0  2.13832  0  0  -0.599542  0  2.436189  0  0  -0.627997  0  2.416666  0  -1.170305  0  -0.372544  -0.57967  0  2.449019  0
O  O115  1  0.56317099  0.42168144  0.12455154  1  0  -0.671369  0  2.137965  0  0  -0.60112  0  2.435328  0  0  -0.629631  0  2.415812  0  -1.186432  0  -0.373036  -0.581121  0  2.448331  0
O  O116  1  0.98459374  0.57848716  0.62456704  1  0  -0.669722  0  2.138381  0  0  -0.599568  0  2.436248  0  0  -0.628025  0  2.416728  0  -1.170241  0  -0.37255  -0.579696  0  2.449078  0
O  O117  1  0.43682826  0.57831891  0.87544857  1  0  -0.671327  0  2.138058  0  0  -0.60107  0  2.435425  0  0  -0.62958  0  2.415909  0  -1.186423  0  -0.373017  -0.581071  0  2.448431  0
O  O118  1  0.36547894  0.35404072  0.46922819  1  0  -0.643905  0  2.03533  0  0  -0.571523  0  2.303983  0  0  -0.601779  0  2.288904  0  -1.161436  0  -0.317364  -0.550321  0  2.313762  0
O  O119  1  0.28060016  0.35396802  0.03077105  1  0  -0.646287  0  2.035178  0  0  -0.574007  0  2.303834  0  0  -0.604076  0  2.288649  0  -1.160236  0  -0.318107  -0.551564  0  2.314924  0
O  O120  1  0.63452032  0.64595964  0.53077191  1  0  -0.643947  0  2.035324  0  0  -0.571554  0  2.303979  0  0  -0.601811  0  2.288901  0  -1.161387  0  -0.317377  -0.550351  0  2.313758  0
O  O121  1  0.71939961  0.64603130  0.96922858  1  0  -0.646259  0  2.035204  0  0  -0.574004  0  2.303866  0  0  -0.604075  0  2.288686  0  -1.160244  0  -0.318115  -0.551562  0  2.314954  0
O  O122  1  0.05011726  0.65826041  0.47766782  1  0  -0.647818  0  2.016739  0  0  -0.577132  0  2.287569  0  0  -0.607176  0  2.273433  0  -1.162134  0  -0.320666  -0.555992  0  2.296876  0
O  O123  1  0.29176583  0.65821887  0.02226697  1  0  -0.649644  0  2.014438  0  0  -0.579731  0  2.285642  0  0  -0.609615  0  2.271528  0  -1.161855  0  -0.321957  -0.55746  0  2.296227  0
O  O124  1  0.94988251  0.34173891  0.52233276  1  0  -0.647841  0  2.016823  0  0  -0.577161  0  2.287665  0  0  -0.607206  0  2.273528  0  -1.162157  0  -0.320673  -0.556022  0  2.296973  0
O  O125  1  0.70823394  0.34178045  0.97773314  1  0  -0.649661  0  2.014356  0  0  -0.579733  0  2.285577  0  0  -0.609612  0  2.27145  0  -1.161839  0  -0.321951  -0.557455  0  2.296167  0
O  O126  1  0.70853173  0.17528388  0.66516294  1  0  -0.636316  0  2.003351  0  0  -0.571288  0  2.214007  0  0  -0.596979  0  2.20213  0  -1.193333  0  -0.308619  -0.553491  0  2.221887  0
O  O127  1  0.11605765  0.17536385  0.83482764  1  0  -0.635493  0  2.003726  0  0  -0.570387  0  2.214769  0  0  -0.596025  0  2.202835  0  -1.192205  0  -0.308168  -0.552373  0  2.222596  0
O  O128  1  0.29147259  0.82471440  0.33483756  1  0  -0.636322  0  2.003283  0  0  -0.571236  0  2.213901  0  0  -0.596927  0  2.202026  0  -1.193346  0  -0.308604  -0.553438  0  2.221777  0
O  O129  1  0.88394429  0.82463651  0.16517288  1  0  -0.635464  0  2.003705  0  0  -0.570399  0  2.214727  0  0  -0.596039  0  2.202792  0  -1.192287  0  -0.308177  -0.552384  0  2.222553  0
O  O130  1  0.45318091  0.23072769  0.37890714  1  0  -0.692102  0  1.986057  0  0  -0.637858  0  2.222528  0  0  -0.661677  0  2.211022  0  -1.215891  0  -0.371316  -0.621188  0  2.230044  0
O  O131  1  0.31616912  0.23060618  0.12107418  1  0  -0.693142  0  1.98531  0  0  -0.639033  0  2.22219  0  0  -0.662866  0  2.21078  0  -1.217755  0  -0.371598  -0.621687  0  2.229284  0
O  O132  1  0.54681834  0.76927267  0.62109297  1  0  -0.692125  0  1.986084  0  0  -0.637878  0  2.222555  0  0  -0.661696  0  2.211052  0  -1.215829  0  -0.371308  -0.621208  0  2.23007  0
O  O133  1  0.68383013  0.76939418  0.87892546  1  0  -0.693095  0  1.985348  0  0  -0.638975  0  2.222191  0  0  -0.66281  0  2.210783  0  -1.21774  0  -0.371547  -0.621631  0  2.229286  0
O  O134  1  0.93197746  0.74719173  0.38540944  1  0  -0.64021  0  1.982856  0  0  -0.582327  0  2.206152  0  0  -0.608057  0  2.196129  0  -1.185872  0  -0.314677  -0.564402  0  2.212517  0
O  O135  1  0.32068658  0.74725300  0.11454454  1  0  -0.641714  0  1.983462  0  0  -0.584064  0  2.20678  0  0  -0.609712  0  2.196752  0  -1.187151  0  -0.315107  -0.565335  0  2.212801  0
O  O136  1  0.06802179  0.25280863  0.61458973  1  0  -0.640199  0  1.982858  0  0  -0.582326  0  2.20616  0  0  -0.608055  0  2.196136  0  -1.185857  0  -0.314667  -0.564399  0  2.212521  0
O  O137  1  0.67931268  0.25274735  0.88545510  1  0  -0.641756  0  1.98345  0  0  -0.584085  0  2.206785  0  0  -0.609733  0  2.196755  0  -1.187186  0  -0.315104  -0.565351  0  2.212814  0
O  O138  1  0.72028255  0.43436129  0.35312180  1  0  -0.579878  0  2.053552  0  0  -0.508951  0  2.268877  0  0  -0.535333  0  2.256891  0  -1.190728  0  -0.293813  -0.490668  0  2.276612  0
O  O139  1  0.84567377  0.43432286  0.14670608  1  0  -0.580283  0  2.05459  0  0  -0.509189  0  2.270006  0  0  -0.535601  0  2.257952  0  -1.192285  0  -0.293793  -0.491017  0  2.278108  0
O  O140  1  0.27971670  0.56563907  0.64687831  1  0  -0.579886  0  2.053532  0  0  -0.508961  0  2.268857  0  0  -0.535343  0  2.256872  0  -1.190729  0  -0.293811  -0.490678  0  2.276592  0
O  O141  1  0.15432548  0.56567750  0.85329403  1  0  -0.580252  0  2.054672  0  0  -0.509163  0  2.270083  0  0  -0.535576  0  2.258029  0  -1.192291  0  -0.293772  -0.490991  0  2.278185  0
O  O142  1  0.53032597  0.93928790  0.74996299  1  0  -0.912062  0  1.788629  0  0  -0.869489  0  1.959462  0  0  -0.885654  0  1.927979  0  -1.30887  0  -0.697734  -0.858079  0  1.98175  0
O  O143  1  0.46967142  0.06071350  0.25003761  1  0  -0.912039  0  1.788669  0  0  -0.869438  0  1.95954  0  0  -0.885604  0  1.928056  0  -1.30888  0  -0.697729  -0.858028  0  1.981825  0
O  O144  1  0.70997273  0.58030673  0.75000871  1  0  -0.920218  0  1.786984  0  0  -0.879822  0  1.953259  0  0  -0.894946  0  1.91947  0  -1.28257  0  -0.70531  -0.869183  0  1.977311  0
O  O145  1  0.29002652  0.41969363  0.24999140  1  0  -0.920327  0  1.786819  0  0  -0.879915  0  1.953115  0  0  -0.895041  0  1.91932  0  -1.282599  0  -0.70536  -0.869274  0  1.977165  0
