# generated using pymatgen
data_Mn2P2H10C5NO12
_symmetry_space_group_name_H-M   'P 1'
_cell_length_a   5.68010214
_cell_length_b   14.85547975
_cell_length_c   14.86206834
_cell_angle_alpha   89.98418955
_cell_angle_beta   90.00534553
_cell_angle_gamma   90.00146982
_symmetry_Int_Tables_number   1
_chemical_formula_structural   Mn2P2H10C5NO12
_chemical_formula_sum   'Mn8 P8 H40 C20 N4 O48'
_cell_volume   1254.07081850
_cell_formula_units_Z   4
loop_
 _symmetry_equiv_pos_site_id
 _symmetry_equiv_pos_as_xyz
  1  'x, y, z'
loop_
 _atom_site_type_symbol
 _atom_site_label
 _atom_site_symmetry_multiplicity
 _atom_site_fract_x
 _atom_site_fract_y
 _atom_site_fract_z
 _atom_site_occupancy
 _atom_site_hle17_ddec_charge
 _atom_site_hle17_ddec_spin_density
 _atom_site_hle17_ddec_sum_bond_order
 _atom_site_hle17_magmom
 _atom_site_hse06_10hf_ddec_charge
 _atom_site_hse06_10hf_ddec_spin_density
 _atom_site_hse06_10hf_ddec_sum_bond_order
 _atom_site_hse06_10hf_magmom
 _atom_site_hse06_ddec_charge
 _atom_site_hse06_ddec_spin_density
 _atom_site_hse06_ddec_sum_bond_order
 _atom_site_hse06_magmom
 _atom_site_pbe_cm5_charge
 _atom_site_pbe_ddec_charge
 _atom_site_pbe_ddec_spin_density
 _atom_site_pbe_ddec_sum_bond_order
 _atom_site_pbe_magmom
Mn  Mn0  1  0.01329811  0.70310519  0.66067337  1  1.279631  4.790945  1.687057  4.689  1.119765  4.718136  2.175662  4.557  1.177086  4.758381  2.10499  4.613  0.612958  1.073955  4.677484  2.227919  4.503
Mn  Mn1  1  0.01354613  0.29685574  0.33950570  1  1.280066  4.786898  1.688567  4.69  1.120082  4.716092  2.177533  4.56  1.177254  4.754906  2.106945  4.614  0.613109  1.074501  4.677851  2.229494  4.508
Mn  Mn2  1  0.51324188  0.33940114  0.70306935  1  1.279847  -4.786998  1.689143  -4.69  1.119739  -4.71417  2.178525  -4.559  1.177133  -4.755169  2.107652  -4.613  0.612704  1.073918  -4.673341  2.230699  -4.506
Mn  Mn3  1  0.51366888  0.66068200  0.29702307  1  1.279949  4.788315  1.68837  4.691  1.119573  4.717433  2.177548  4.561  1.176762  4.755643  2.106854  4.615  0.612949  1.074123  4.680334  2.229425  4.51
Mn  Mn4  1  0.36964837  0.81730495  0.80142295  1  1.313796  -4.799697  1.609794  -4.693  1.151099  -4.730054  2.096024  -4.563  1.210761  -4.770772  2.023385  -4.618  0.617264  1.102894  -4.688894  2.149876  -4.509
Mn  Mn5  1  0.36978514  0.18262127  0.19843074  1  1.314452  4.797394  1.6117  4.694  1.151848  4.730642  2.098303  4.565  1.211205  4.768273  2.025749  4.619  0.617836  1.104279  4.693496  2.151822  4.514
Mn  Mn6  1  0.86988004  0.19838418  0.81750498  1  1.314572  -4.796035  1.611671  -4.694  1.151872  -4.727651  2.098423  -4.565  1.211268  -4.766887  2.025812  -4.619  0.617767  1.104222  -4.68895  2.151997  -4.514
Mn  Mn7  1  0.87019745  0.80158614  0.18245586  1  1.314549  4.79629  1.61106  4.694  1.152065  4.729477  2.097655  4.565  1.211419  4.76699  2.025095  4.619  0.617933  1.104515  4.692543  2.151159  4.514
P  P8  1  0.50608535  0.79467424  0.57907060  1  1.473072  0.003217  4.805134  0.003  1.300892  0.006088  5.311588  0.005  1.352929  0.004415  5.274413  0.004  0.367312  1.263875  0.007862  5.336592  0.006
P  P9  1  0.50613201  0.20539067  0.42092399  1  1.474284  0.008486  4.80367  0.007  1.302113  0.015521  5.309939  0.011  1.354131  0.011891  5.272706  0.009  0.367595  1.265132  0.018972  5.335092  0.013
P  P10  1  0.00606204  0.42081195  0.79464696  1  1.473799  -0.008474  4.805802  -0.007  1.30129  -0.015475  5.312266  -0.011  1.353367  -0.01188  5.275013  -0.009  0.367459  1.264186  -0.018899  5.337428  -0.013
P  P11  1  0.00646908  0.57917652  0.20547870  1  1.473864  0.008716  4.804976  0.007  1.301304  0.016504  5.311365  0.011  1.353294  0.012338  5.274182  0.009  0.367155  1.264332  0.02061  5.336423  0.013
P  P12  1  0.86318916  0.72642339  0.87381484  1  1.485615  -0.00582  4.764465  -0.005  1.315484  -0.008506  5.270909  -0.006  1.367784  -0.006713  5.233318  -0.005  0.3829  1.27829  -0.010294  5.29618  -0.007
P  P13  1  0.86337449  0.27355294  0.12608587  1  1.486734  0.011386  4.763767  0.009  1.316752  0.019214  5.270039  0.013  1.369086  0.014853  5.232423  0.011  0.383409  1.279469  0.023385  5.29541  0.015
P  P14  1  0.36331791  0.12602879  0.72645792  1  1.486283  -0.011168  4.763136  -0.009  1.316644  -0.019368  5.26909  -0.013  1.368915  -0.014753  5.231478  -0.011  0.383576  1.279508  -0.023868  5.294452  -0.015
P  P15  1  0.36361936  0.87395524  0.27348570  1  1.48574  0.011238  4.764932  0.009  1.316039  0.019485  5.271194  0.013  1.368334  0.014832  5.23362  0.011  0.383056  1.278869  0.024048  5.296518  0.015
H  H16  1  0.43895187  0.89479456  0.42562114  1  0.45948  -6.2e-05  0.839162  0.0  0.419863  -2.3e-05  0.915118  0.0  0.432696  -5.4e-05  0.896879  0.0  0.308337  0.410946  1.5e-05  0.927755  0.0
H  H17  1  0.43861473  0.10523736  0.57435686  1  0.459914  0.000162  0.838427  0.0  0.420004  0.000205  0.914955  0.0  0.432824  0.000175  0.896727  0.0  0.308435  0.411084  0.000237  0.927601  0.0
H  H18  1  0.93896175  0.57425082  0.89468790  1  0.45959  -8.4e-05  0.838974  0.0  0.419694  -0.000189  0.915437  0.0  0.432526  -0.000134  0.8972  0.0  0.30824  0.410749  -0.00025  0.928118  0.0
H  H19  1  0.93907981  0.42567780  0.10528489  1  0.459408  -3.2e-05  0.839186  0.0  0.419851  3.4e-05  0.915098  0.0  0.432674  -2.1e-05  0.896869  0.0  0.308381  0.410916  9.8e-05  0.927766  0.0
H  H20  1  0.81340064  0.68708480  0.46336579  1  0.390719  -0.000434  0.889888  0.001  0.362981  9.1e-05  0.964832  0.002  0.374729  -0.000203  0.951647  0.001  0.305316  0.354481  0.000414  0.974158  0.002
H  H21  1  0.81347469  0.31292936  0.53674504  1  0.390762  -0.000649  0.890156  -0.001  0.362995  -0.00097  0.965045  -0.001  0.374728  -0.000827  0.951899  -0.001  0.305469  0.354491  -0.001108  0.974385  -0.002
H  H22  1  0.31332041  0.53678063  0.68722131  1  0.390199  0.000666  0.890131  0.001  0.362731  0.001007  0.964658  0.001  0.374451  0.000858  0.951529  0.001  0.305381  0.354218  0.00115  0.973995  0.002
H  H23  1  0.31365566  0.46328970  0.31297682  1  0.390949  -0.000459  0.889631  0.001  0.363075  5.4e-05  0.964658  0.002  0.374792  -0.000234  0.951535  0.001  0.305646  0.354583  0.000372  0.973982  0.002
H  H24  1  0.70059784  0.57979150  0.07511916  1  0.33205  -0.000252  0.8985  0.0  0.308539  -0.000253  0.965098  0.0  0.316853  -0.000276  0.958862  0.0  0.307861  0.3027  -0.000217  0.96946  0.0
H  H25  1  0.70011079  0.42016966  0.92510595  1  0.331848  0.000264  0.899321  0.0  0.308785  0.000268  0.965175  0.0  0.317112  0.00029  0.958925  0.0  0.307931  0.302934  0.000232  0.969546  0.0
H  H26  1  0.19998956  0.92519207  0.58004256  1  0.331918  2.7e-05  0.898689  0.0  0.30861  4.8e-05  0.964875  0.0  0.316924  3.8e-05  0.958621  0.0  0.307975  0.302764  6.4e-05  0.969245  0.0
H  H27  1  0.20006099  0.07493771  0.41998252  1  0.332264  -0.000259  0.898805  0.0  0.308782  -0.000257  0.965194  0.0  0.317102  -0.000282  0.958941  0.0  0.307991  0.302931  -0.000221  0.969574  0.0
H  H28  1  0.55687640  0.81624277  0.00697182  1  0.380032  0.000333  0.902081  0.001  0.35184  0.000624  0.978764  0.001  0.363893  0.00052  0.965377  0.001  0.30076  0.343062  0.000732  0.988342  0.001
H  H29  1  0.55697995  0.18369208  0.99288469  1  0.379881  -0.000354  0.902281  -0.001  0.351639  -0.000638  0.979065  -0.001  0.363683  -0.000537  0.965724  -0.001  0.30077  0.342834  -0.000742  0.988714  -0.001
H  H30  1  0.05690088  0.99273559  0.81630852  1  0.380101  0.00063  0.902045  -0.001  0.351664  0.000261  0.979137  -0.001  0.36371  0.000434  0.965806  -0.001  0.300842  0.34286  5.7e-05  0.988756  -0.001
H  H31  1  0.05714423  0.00719956  0.18361782  1  0.380752  -0.000647  0.901215  0.001  0.352145  -0.000285  0.97841  0.001  0.364198  -0.000458  0.965081  0.001  0.30097  0.343358  -8e-05  0.988003  0.001
H  H32  1  0.51441146  0.63441100  0.55332151  1  0.120215  -6.6e-05  0.946207  0.0  0.124278  0.000273  1.005323  0.001  0.128254  6.9e-05  1.002798  0.0  0.126027  0.121399  0.000502  1.007327  0.001
H  H33  1  0.51463834  0.36566408  0.44671040  1  0.120042  -0.000499  0.946243  0.0  0.124272  -0.000566  1.005298  0.0  0.128216  -0.000548  1.002798  0.0  0.126205  0.12143  -0.000589  1.007318  0.0
H  H34  1  0.01460006  0.44670035  0.63448813  1  0.12017  0.000369  0.945693  0.0  0.12422  0.000479  1.004904  0.0  0.128122  0.000427  1.002481  0.0  0.126038  0.121395  0.000543  1.006843  0.0
H  H35  1  0.01477407  0.55330705  0.36565667  1  0.11986  -0.000366  0.946202  0.0  0.124133  3.1e-05  1.005176  0.001  0.128012  -0.000195  1.00278  0.0  0.126015  0.121275  0.000286  1.00715  0.001
H  H36  1  0.85976235  0.87741191  0.92963247  1  0.121619  0.000358  0.935045  0.0  0.126076  0.000567  0.993398  0.0  0.129548  0.000518  0.991538  0.0  0.127707  0.123569  0.000618  0.994936  0.0
H  H37  1  0.85984544  0.12256573  0.07025264  1  0.12165  -0.00056  0.935103  0.0  0.126158  -0.000691  0.99337  0.0  0.129598  -0.00065  0.991522  0.0  0.12785  0.123629  -0.000731  0.994942  0.0
H  H38  1  0.35991681  0.07008611  0.87733633  1  0.121276  0.000349  0.935557  0.0  0.125686  0.0001  0.993973  0.0  0.129098  0.000235  0.992159  0.0  0.127649  0.123162  -5.7e-05  0.995589  -0.001
H  H39  1  0.36023888  0.92986962  0.12259304  1  0.121269  -0.000341  0.935291  0.0  0.125648  -8.4e-05  0.993639  0.0  0.129097  -0.000224  0.991809  0.0  0.127684  0.123122  7.9e-05  0.995226  0.001
H  H40  1  0.57814903  0.32855606  0.97194917  1  0.319795  0.000264  0.879266  0.0  0.301106  0.000213  0.941087  0.0  0.308319  0.000235  0.935404  0.0  0.317119  0.29592  0.000187  0.945237  0.0
H  H41  1  0.57900942  0.67152502  0.02834480  1  0.319676  -0.000289  0.880169  0.0  0.300791  -0.000256  0.942213  0.0  0.308076  -0.00027  0.936454  0.0  0.316939  0.295546  -0.000238  0.946431  0.0
H  H42  1  0.07836241  0.02795613  0.32842759  1  0.319436  -0.000478  0.880218  0.0  0.300721  -0.000439  0.942042  0.0  0.307941  -0.000485  0.936353  0.0  0.317027  0.295527  -0.000375  0.946197  0.0
H  H43  1  0.07765377  0.97216773  0.67144835  1  0.319573  0.000453  0.880269  0.0  0.300923  0.000395  0.941919  0.0  0.308132  0.000441  0.936247  0.0  0.317045  0.295747  0.000338  0.946047  0.0
H  H44  1  0.42757019  0.38655825  0.89202143  1  0.342031  0.000509  0.896832  0.0  0.320471  0.00027  0.957593  0.0  0.328889  0.00037  0.951543  0.0  0.311143  0.314506  0.000167  0.961905  0.0
H  H45  1  0.42819402  0.61353007  0.10820714  1  0.341741  -0.000505  0.897192  0.0  0.319908  -0.000263  0.958332  0.0  0.328328  -0.000364  0.952278  0.0  0.311122  0.313952  -0.000157  0.962645  0.0
H  H46  1  0.92743407  0.10784294  0.38634720  1  0.342238  -0.000497  0.895846  0.0  0.320677  -0.00025  0.956685  0.0  0.329096  -0.000353  0.950636  0.0  0.311303  0.314709  -0.000144  0.961011  0.0
H  H47  1  0.92748819  0.89202027  0.61359759  1  0.342246  -0.000309  0.896095  0.0  0.320309  -2.9e-05  0.957515  0.0  0.32873  -0.000124  0.951474  0.0  0.311273  0.314334  6.5e-05  0.961842  0.0
H  H48  1  0.53013749  0.44373858  0.07934443  1  0.087375  -0.000213  0.92521  0.0  0.101339  -0.000222  0.98448  0.0  0.102471  -0.000247  0.984206  0.0  0.120173  0.100336  -0.000185  0.984948  0.0
H  H49  1  0.53054909  0.55635885  0.92088990  1  0.087176  0.000181  0.925522  0.0  0.101042  0.000175  0.984884  0.0  0.102174  0.000202  0.984609  0.0  0.119941  0.100026  0.00014  0.985366  0.0
H  H50  1  0.03129847  0.92060068  0.44390899  1  0.087727  -0.000195  0.92621  0.0  0.101218  -0.0002  0.985499  0.0  0.102345  -0.000225  0.985231  0.0  0.120329  0.100207  -0.000163  0.986  0.0
H  H51  1  0.02954865  0.07935576  0.55597398  1  0.087737  0.000147  0.925104  0.0  0.101562  0.000153  0.984556  0.0  0.102698  0.000164  0.984264  0.0  0.120224  0.100548  0.000151  0.98503  0.0
H  H52  1  0.25304433  0.42674164  0.02837844  1  0.093716  2e-05  0.965038  0.0  0.10366  3.7e-05  1.028203  0.0  0.105298  1.9e-05  1.027536  0.0  0.115458  0.102383  6.6e-05  1.028835  0.0
H  H53  1  0.25352018  0.57360072  0.97178583  1  0.093658  -1.8e-05  0.964553  0.0  0.103641  -4.5e-05  1.027579  0.0  0.105278  -2.3e-05  1.026906  0.0  0.115512  0.102363  -7.6e-05  1.028215  0.0
H  H54  1  0.75375864  0.97110526  0.42645260  1  0.093515  -2.6e-05  0.965385  0.0  0.103033  -3.5e-05  1.028601  0.0  0.104675  -4.6e-05  1.027888  0.0  0.115026  0.101765  -1.3e-05  1.029243  0.0
H  H55  1  0.75258707  0.02824129  0.57298662  1  0.093844  -2.8e-05  0.964822  0.0  0.104111  -3.6e-05  1.027641  0.0  0.105736  -2.3e-05  1.026974  0.0  0.115567  0.102846  -5.9e-05  1.028255  0.0
C  C56  1  0.48243847  0.69199103  0.50815159  1  -0.22154  -0.000292  3.683834  0.0  -0.224467  0.001309  3.944314  0.001  -0.230931  0.000559  3.947456  0.001  -0.010943  -0.220212  0.002063  3.942318  0.002
C  C57  1  0.48261424  0.30807835  0.49186703  1  -0.221013  -0.000113  3.681759  0.0  -0.224243  -0.000699  3.94254  0.0  -0.230636  -0.00052  3.945586  0.0  -0.011108  -0.220172  -0.000862  3.94082  0.0
C  C58  1  0.98247827  0.49184911  0.69203125  1  -0.221061  0.000107  3.682036  0.0  -0.223992  0.000745  3.942551  0.0  -0.230447  0.000538  3.945772  0.0  -0.010755  -0.219752  0.000936  3.940501  0.0
C  C59  1  0.98277654  0.50814791  0.30810529  1  -0.220641  0.00173  3.682249  0.002  -0.223864  0.003814  3.943088  0.004  -0.230259  0.002503  3.946185  0.003  -0.010974  -0.219615  0.005188  3.941071  0.004
C  C60  1  0.23983729  0.68087621  0.46746930  1  0.701996  0.005642  3.835364  0.007  0.640472  0.011538  4.140169  0.012  0.676295  0.008551  4.132388  0.009  0.230465  0.615249  0.01467  4.145118  0.014
C  C61  1  0.24002696  0.31920888  0.53253101  1  0.702156  -0.001472  3.833665  -0.001  0.640422  -0.0026  4.138745  -0.002  0.676286  -0.002073  4.130958  -0.001  0.230863  0.615137  -0.003169  4.143742  -0.002
C  C62  1  0.73988755  0.53253203  0.68087866  1  0.702107  0.001387  3.834702  0.001  0.640558  0.002501  4.139381  0.002  0.676455  0.00199  4.131566  0.001  0.230813  0.615224  0.003046  4.144375  0.002
C  C63  1  0.74016647  0.46745042  0.31920593  1  0.701159  0.005749  3.834943  0.007  0.639414  0.01185  4.140083  0.012  0.67524  0.008696  4.132304  0.009  0.230181  0.614177  0.015204  4.145035  0.014
C  C64  1  0.88953483  0.81233586  0.96333056  1  -0.215368  0.001876  3.664208  0.002  -0.219867  0.002799  3.923565  0.002  -0.226507  0.002185  3.927256  0.002  -0.007322  -0.215669  0.003455  3.921525  0.002
C  C65  1  0.88964230  0.18763602  0.03654420  1  -0.216194  0.000698  3.664421  0.001  -0.220568  0.000384  3.923696  0.001  -0.227088  0.000332  3.927249  0.001  -0.007716  -0.21639  0.000447  3.921732  0.001
C  C66  1  0.38962049  0.03638230  0.81230690  1  -0.214906  -0.001228  3.662959  -0.002  -0.219253  -0.002863  3.922323  -0.003  -0.22564  -0.001765  3.925629  -0.002  -0.007593  -0.215293  -0.004032  3.920702  -0.004
C  C67  1  0.38990913  0.96358719  0.18762625  1  -0.214831  0.001251  3.66412  0.002  -0.219231  0.002916  3.923179  0.003  -0.225769  0.001795  3.926784  0.002  -0.007543  -0.215141  0.004106  3.921351  0.004
C  C68  1  0.13254050  0.81468651  0.00550148  1  0.701982  0.002773  3.835622  0.002  0.643895  0.004518  4.138389  0.004  0.679505  0.003529  4.130801  0.003  0.227168  0.618857  0.005562  4.1432  0.005
C  C69  1  0.13259344  0.18525480  0.99437043  1  0.701564  -0.002671  3.835946  -0.002  0.643194  -0.004134  4.139279  -0.003  0.678774  -0.003373  4.131721  -0.003  0.226787  0.618138  -0.004889  4.144101  -0.004
C  C70  1  0.63254354  0.99417929  0.81460107  1  0.700144  -0.004885  3.838928  -0.006  0.64168  -0.010129  4.142469  -0.01  0.67724  -0.007346  4.134866  -0.008  0.226111  0.616678  -0.013172  4.147338  -0.013
C  C71  1  0.63282595  0.00580344  0.18535646  1  0.699386  0.004934  3.838514  0.006  0.641314  0.010212  4.141407  0.01  0.676886  0.007404  4.133844  0.008  0.226116  0.616329  0.013286  4.146226  0.013
C  C72  1  0.43121129  0.45127920  0.01655421  1  0.049262  -9.6e-05  3.502432  0.0  -0.00742  -8.9e-05  3.757573  0.0  -0.003749  -0.000124  3.766373  0.0  -0.060073  -0.009815  -1.6e-05  3.751671  0.0
C  C73  1  0.43152991  0.54891483  0.98366437  1  0.049766  7.2e-05  3.501506  0.0  -0.006651  6e-05  3.756359  0.0  -0.002952  9.3e-05  3.765124  0.0  -0.059596  -0.009  -1.3e-05  3.750376  0.0
C  C74  1  0.93163728  0.98327676  0.45112636  1  0.048918  -4.9e-05  3.504167  0.0  -0.005973  -4.8e-05  3.757199  0.0  -0.002261  -9.6e-05  3.76598  0.0  -0.059879  -0.00845  3.7e-05  3.75141  0.0
C  C75  1  0.93089220  0.01645929  0.54860059  1  0.049008  -4e-06  3.503513  0.0  -0.008182  1e-06  3.758358  0.0  -0.004487  2.1e-05  3.767129  0.0  -0.060053  -0.010564  -2.8e-05  3.752477  0.0
N  N76  1  0.54108729  0.39214174  0.94796985  1  -0.504622  0.000342  3.212438  0.0  -0.457374  0.00023  3.424663  0.0  -0.472827  0.000398  3.422579  0.0  -0.619001  -0.446712  6.2e-05  3.426269  0.0
N  N77  1  0.54168692  0.60793696  0.05226758  1  -0.504528  -0.000351  3.2117  0.0  -0.456986  -0.000243  3.424608  0.0  -0.472498  -0.000414  3.422524  0.0  -0.619179  -0.446309  -6.7e-05  3.426284  0.0
N  N78  1  0.04117421  0.05194652  0.39195307  1  -0.504799  -0.000459  3.212659  0.0  -0.457692  -0.000307  3.424873  0.0  -0.473169  -0.00051  3.422795  0.0  -0.619041  -0.446982  -9e-05  3.426472  0.0
N  N79  1  0.04085563  0.94803358  0.60794509  1  -0.504192  3.4e-05  3.213151  0.0  -0.456565  6.7e-05  3.42606  0.0  -0.472008  4.4e-05  3.423982  0.0  -0.618645  -0.445886  8e-05  3.427619  0.0
O  O80  1  0.42880428  0.87493766  0.52103844  1  -0.833373  0.001404  1.953835  0.002  -0.747112  0.002065  2.194829  0.003  -0.773743  0.001503  2.175734  0.002  -0.366174  -0.728282  0.002685  2.207778  0.003
O  O81  1  0.42845107  0.12515743  0.47891899  1  -0.83374  0.002579  1.953204  0.003  -0.747362  0.003844  2.194415  0.005  -0.773922  0.002819  2.175229  0.004  -0.366291  -0.728634  0.004951  2.207526  0.006
O  O82  1  0.92875051  0.47884221  0.87486330  1  -0.833339  -0.002513  1.954398  -0.003  -0.747079  -0.00378  2.195582  -0.005  -0.773702  -0.002759  2.176435  -0.004  -0.366407  -0.72828  -0.004882  2.208681  -0.006
O  O83  1  0.92917700  0.52113812  0.12526186  1  -0.833138  0.002399  1.953938  0.003  -0.747074  0.003716  2.195313  0.005  -0.773608  0.002616  2.176119  0.004  -0.366316  -0.728355  0.004926  2.208435  0.006
O  O84  1  0.76284340  0.80022011  0.61010318  1  -0.852348  0.036313  2.018017  0.022  -0.76087  0.044503  2.298176  0.027  -0.791555  0.039895  2.276103  0.023  -0.356433  -0.737738  0.04877  2.312901  0.031
O  O85  1  0.76293868  0.19973160  0.39001387  1  -0.853109  0.03565  2.017676  0.022  -0.761877  0.043992  2.297942  0.027  -0.792534  0.039354  2.27584  0.023  -0.356451  -0.738759  0.048281  2.312575  0.03
O  O86  1  0.26281060  0.38977478  0.80025482  1  -0.853114  -0.035613  2.017749  -0.022  -0.761413  -0.043865  2.297544  -0.027  -0.792072  -0.039271  2.27542  -0.023  -0.356327  -0.738334  -0.04809  2.31234  -0.03
O  O87  1  0.26322537  0.61020282  0.19991456  1  -0.853643  0.035741  2.018993  0.022  -0.761131  0.044384  2.298189  0.027  -0.791756  0.039536  2.276093  0.023  -0.356094  -0.738137  0.048921  2.31295  0.031
O  O88  1  0.33364868  0.78251065  0.65967838  1  -0.900154  0.00049  2.037407  0.001  -0.798251  0.001183  2.356101  0.001  -0.832994  0.001121  2.328113  0.001  -0.359445  -0.771379  0.001168  2.374895  0.001
O  O89  1  0.33401501  0.21763397  0.34024866  1  -0.900497  0.06767  2.040167  0.037  -0.798228  0.084439  2.359244  0.046  -0.83292  0.076751  2.331138  0.04  -0.359559  -0.771484  0.091336  2.378042  0.051
O  O90  1  0.83375613  0.34017012  0.78247321  1  -0.900305  -0.067599  2.04116  -0.037  -0.797929  -0.084302  2.36031  -0.046  -0.83264  -0.076664  2.332172  -0.04  -0.359246  -0.771144  -0.09113  2.37913  -0.051
O  O91  1  0.83415895  0.65982809  0.21759867  1  -0.900336  0.068072  2.040364  0.038  -0.798201  0.085334  2.359706  0.047  -0.832896  0.07739  2.331633  0.041  -0.359421  -0.771523  0.092542  2.378524  0.053
O  O92  1  0.65151162  0.69614281  0.43698097  1  -0.538726  0.023601  2.190051  0.014  -0.483282  0.032539  2.436577  0.02  -0.501509  0.029055  2.42119  0.017  -0.369692  -0.469192  0.035806  2.446918  0.023
O  O93  1  0.65158431  0.30389798  0.56309027  1  -0.539016  -0.023512  2.189504  -0.013  -0.48331  -0.031992  2.435926  -0.019  -0.501558  -0.028922  2.420518  -0.017  -0.369802  -0.469161  -0.034769  2.446369  -0.021
O  O94  1  0.15141151  0.56312240  0.69623562  1  -0.538234  0.023985  2.189698  0.013  -0.482909  0.032679  2.436004  0.019  -0.501157  0.02955  2.420667  0.017  -0.369486  -0.46872  0.035511  2.446331  0.022
O  O95  1  0.15177636  0.43691869  0.30393236  1  -0.539108  0.024332  2.189104  0.015  -0.48355  0.033548  2.435999  0.021  -0.501726  0.02982  2.420587  0.018  -0.369964  -0.46949  0.037098  2.44634  0.025
O  O96  1  0.21984167  0.67954264  0.38303807  1  -0.612281  0.033915  2.067059  0.024  -0.541755  0.039744  2.326329  0.026  -0.572123  0.035396  2.314384  0.022  -0.287187  -0.519603  0.043986  2.33394  0.03
O  O97  1  0.22003386  0.32063447  0.61697091  1  -0.611908  -0.029119  2.066782  -0.018  -0.54196  -0.031719  2.327313  -0.017  -0.572446  -0.029213  2.315317  -0.015  -0.287373  -0.519623  -0.034022  2.334961  -0.019
O  O98  1  0.71990631  0.61699524  0.67938082  1  -0.611971  0.029917  2.067855  0.018  -0.541869  0.032597  2.327998  0.017  -0.572336  0.030149  2.315972  0.015  -0.287317  -0.519562  0.034839  2.335721  0.019
O  O99  1  0.72009911  0.38298703  0.32050118  1  -0.612118  0.03404  2.067117  0.024  -0.541604  0.039905  2.326786  0.027  -0.571985  0.035522  2.314869  0.023  -0.287175  -0.519431  0.044192  2.334386  0.031
O  O100  1  0.06276545  0.67222218  0.52008444  1  -0.661545  0.034107  2.079113  0.022  -0.591585  0.042483  2.339192  0.027  -0.622481  0.038023  2.324562  0.024  -0.303103  -0.568819  0.046671  2.348882  0.031
O  O101  1  0.06291326  0.32778572  0.47992419  1  -0.66163  0.028074  2.079537  0.015  -0.591297  0.032516  2.33966  0.016  -0.622225  0.030381  2.325039  0.014  -0.303055  -0.568466  0.034426  2.349335  0.018
O  O102  1  0.56273838  0.47990121  0.67237520  1  -0.661787  -0.028163  2.080132  -0.015  -0.591695  -0.032612  2.340207  -0.016  -0.622653  -0.030493  2.325552  -0.014  -0.303327  -0.568841  -0.034493  2.349939  -0.018
O  O103  1  0.56309844  0.52008414  0.32788995  1  -0.661147  0.034278  2.079113  0.022  -0.591041  0.042903  2.33938  0.028  -0.621906  0.038303  2.32478  0.024  -0.303081  -0.568325  0.047274  2.349033  0.032
O  O104  1  0.03433499  0.75294163  0.79783613  1  -0.887629  -0.001798  2.082911  -0.002  -0.788397  -0.00122  2.401984  -0.001  -0.822511  -0.000838  2.373229  0.0  -0.351207  -0.76211  -0.001585  2.421347  -0.002
O  O105  1  0.03463171  0.24717102  0.20203284  1  -0.887805  0.065464  2.085965  0.034  -0.78885  0.080886  2.405859  0.041  -0.822929  0.074023  2.37702  0.036  -0.351248  -0.762643  0.086998  2.425181  0.046
O  O106  1  0.53467781  0.20195428  0.75286467  1  -0.887694  -0.065616  2.085283  -0.034  -0.788821  -0.08131  2.405306  -0.041  -0.822906  -0.074336  2.376474  -0.036  -0.351243  -0.762618  -0.087538  2.424576  -0.047
O  O107  1  0.53496103  0.79803554  0.24707110  1  -0.887666  0.065676  2.086387  0.034  -0.788919  0.081466  2.406448  0.042  -0.823005  0.074416  2.377636  0.036  -0.351199  -0.762743  0.087809  2.425722  0.047
O  O108  1  0.60628549  0.72054102  0.84713499  1  -0.841103  -0.04249  1.971957  -0.028  -0.755903  -0.04949  2.260104  -0.03  -0.787942  -0.044066  2.237448  -0.025  -0.356993  -0.731535  -0.054474  2.275163  -0.035
O  O109  1  0.60647930  0.27936605  0.15277044  1  -0.84171  0.04143  1.971592  0.028  -0.756482  0.048701  2.259738  0.03  -0.78853  0.043076  2.237152  0.025  -0.357126  -0.732189  0.053928  2.274801  0.035
O  O110  1  0.10642482  0.15277598  0.72068244  1  -0.841633  -0.041444  1.970691  -0.028  -0.756403  -0.049029  2.258663  -0.031  -0.78845  -0.043231  2.236125  -0.026  -0.357122  -0.732172  -0.054447  2.273733  -0.036
O  O111  1  0.10673471  0.84722430  0.27925042  1  -0.840772  0.041472  1.971335  0.028  -0.755906  0.049138  2.259674  0.031  -0.787865  0.043287  2.237013  0.026  -0.35691  -0.731684  0.054624  2.274789  0.036
O  O112  1  0.94608864  0.63903243  0.92365273  1  -0.761065  -0.002536  2.047883  -0.003  -0.682238  -0.003309  2.285707  -0.003  -0.705261  -0.002582  2.260234  -0.003  -0.374045  -0.665969  -0.004084  2.303292  -0.004
O  O113  1  0.94591217  0.36097840  0.07618977  1  -0.76113  0.002434  2.047145  0.003  -0.682597  0.003527  2.284883  0.005  -0.705606  0.002519  2.259387  0.004  -0.374469  -0.666359  0.004622  2.302523  0.006
O  O114  1  0.44576043  0.07617937  0.63906201  1  -0.76129  -0.002025  2.046818  -0.003  -0.682919  -0.002937  2.284938  -0.004  -0.705919  -0.002001  2.259461  -0.003  -0.374715  -0.666757  -0.003953  2.30258  -0.005
O  O115  1  0.44614042  0.92380011  0.36087858  1  -0.760768  0.002134  2.047888  0.003  -0.682123  0.003156  2.285645  0.005  -0.705153  0.00214  2.260175  0.004  -0.374023  -0.66592  0.004278  2.303185  0.006
O  O116  1  0.71552896  0.79593596  0.03140149  1  -0.54523  0.019305  2.197673  0.009  -0.489505  0.027824  2.44127  0.016  -0.50781  0.025124  2.427278  0.014  -0.363515  -0.475424  0.030306  2.450644  0.018
O  O117  1  0.71559810  0.20404291  0.96848034  1  -0.544837  -0.018353  2.197717  -0.008  -0.489115  -0.026313  2.441544  -0.014  -0.50739  -0.023989  2.427376  -0.013  -0.363545  -0.475035  -0.028383  2.450994  -0.016
O  O118  1  0.21549164  0.96833808  0.79590785  1  -0.545468  -0.019408  2.196595  -0.01  -0.489534  -0.028029  2.440587  -0.016  -0.507953  -0.025171  2.426522  -0.014  -0.363978  -0.475325  -0.030691  2.45005  -0.018
O  O119  1  0.21576079  0.03161888  0.20400748  1  -0.546069  0.019261  2.197418  0.01  -0.489904  0.027908  2.441448  0.016  -0.50824  0.025006  2.427331  0.014  -0.36379  -0.475797  0.030636  2.450879  0.019
O  O120  1  0.30736554  0.83559274  0.95539513  1  -0.651977  -0.018425  2.023963  -0.008  -0.588409  -0.02346  2.274954  -0.011  -0.618123  -0.02222  2.261791  -0.01  -0.297686  -0.566587  -0.024486  2.283679  -0.012
O  O121  1  0.30740824  0.16428505  0.04447042  1  -0.652075  0.018538  2.023691  0.008  -0.58852  0.023926  2.274917  0.011  -0.618189  0.022531  2.261773  0.01  -0.29783  -0.56676  0.025166  2.28366  0.012
O  O122  1  0.80727800  0.04421873  0.83583575  1  -0.651669  -0.024853  2.024178  -0.016  -0.587974  -0.034274  2.275302  -0.023  -0.617588  -0.030424  2.262182  -0.02  -0.297501  -0.566296  -0.037953  2.284005  -0.026
O  O123  1  0.80756935  0.95577048  0.16412144  1  -0.651502  0.024883  2.0236  0.016  -0.587873  0.034334  2.274495  0.023  -0.617487  0.030463  2.261376  0.02  -0.297598  -0.566202  0.038053  2.283177  0.026
O  O124  1  0.15221662  0.79638041  0.08825331  1  -0.626229  0.028043  2.031585  0.016  -0.555816  0.031101  2.290404  0.016  -0.585701  0.028421  2.277019  0.013  -0.29528  -0.533898  0.033705  2.298982  0.018
O  O125  1  0.15223351  0.20359072  0.91162335  1  -0.625659  -0.027878  2.031497  -0.016  -0.555232  -0.030798  2.290582  -0.015  -0.585118  -0.028223  2.277241  -0.013  -0.294941  -0.533261  -0.033256  2.299101  -0.018
O  O126  1  0.65227068  0.91148989  0.79589621  1  -0.625112  -0.031514  2.031554  -0.02  -0.554812  -0.037172  2.290701  -0.022  -0.584606  -0.033229  2.277246  -0.018  -0.294963  -0.532963  -0.041112  2.299339  -0.026
O  O127  1  0.65253999  0.08848765  0.20405867  1  -0.624803  0.03087  2.031123  0.02  -0.554729  0.03651  2.290007  0.022  -0.58448  0.032484  2.276559  0.018  -0.295094  -0.532971  0.040579  2.298634  0.026
