# generated using pymatgen
data_SnH16(C5O2)2
_symmetry_space_group_name_H-M   'P 1'
_cell_length_a   5.09866230
_cell_length_b   6.16487989
_cell_length_c   20.42062583
_cell_angle_alpha   83.55882853
_cell_angle_beta   82.79002431
_cell_angle_gamma   65.46277631
_symmetry_Int_Tables_number   1
_chemical_formula_structural   SnH16(C5O2)2
_chemical_formula_sum   'Sn2 H32 C20 O8'
_cell_volume   578.00628775
_cell_formula_units_Z   2
loop_
 _symmetry_equiv_pos_site_id
 _symmetry_equiv_pos_as_xyz
  1  'x, y, z'
loop_
 _atom_site_type_symbol
 _atom_site_label
 _atom_site_symmetry_multiplicity
 _atom_site_fract_x
 _atom_site_fract_y
 _atom_site_fract_z
 _atom_site_occupancy
 _atom_site_hle17_bader_spin_density
 _atom_site_hle17_ddec_charge
 _atom_site_hle17_ddec_spin_density
 _atom_site_hle17_ddec_sum_bond_order
 _atom_site_hle17_magmom
 _atom_site_hse06_10hf_bader_spin_density
 _atom_site_hse06_10hf_ddec_charge
 _atom_site_hse06_10hf_ddec_spin_density
 _atom_site_hse06_10hf_ddec_sum_bond_order
 _atom_site_hse06_10hf_magmom
 _atom_site_hse06_bader_spin_density
 _atom_site_hse06_ddec_charge
 _atom_site_hse06_ddec_spin_density
 _atom_site_hse06_ddec_sum_bond_order
 _atom_site_hse06_magmom
 _atom_site_pbe_bader_spin_density
 _atom_site_pbe_cm5_charge
 _atom_site_pbe_ddec_charge
 _atom_site_pbe_ddec_spin_density
 _atom_site_pbe_ddec_sum_bond_order
 _atom_site_pbe_magmom
Sn  Sn0  1  0.41695259  0.74998946  0.25003930  1  0  1.479683  0  2.741963  0  0  1.330794  0  3.238269  0  0  1.383704  0  3.209413  0  0  0.629714  1.294319  0  3.25763  0
Sn  Sn1  1  0.58303970  0.25002049  0.74995802  1  0  1.479518  0  2.742133  0  0  1.330623  0  3.238369  0  0  1.383535  0  3.209501  0  0  0.629637  1.294146  0  3.257738  0
H  H2  1  0.88814419  0.48510946  0.41075797  1  0  0.098839  0  0.943816  0  0  0.10958  0  1.002172  0  0  0.112501  0  1.000714  0  0  0.104656  0.107442  0  1.003378  0
H  H3  1  0.78468128  0.01432718  0.08922004  1  0  0.098924  0  0.944169  0  0  0.109507  0  1.002629  0  0  0.112456  0  1.001132  0  0  0.104459  0.107389  0  1.003816  0
H  H4  1  0.11193699  0.51482232  0.58922404  1  0  0.098903  0  0.943885  0  0  0.109649  0  1.002234  0  0  0.112569  0  1.000775  0  0  0.104675  0.107513  0  1.003434  0
H  H5  1  0.21529877  0.98572199  0.91077941  1  0  0.098928  0  0.94429  0  0  0.109427  0  1.002717  0  0  0.112385  0  1.001208  0  0  0.104403  0.107309  0  1.003903  0
H  H6  1  0.11276155  0.77916216  0.48070236  1  0  0.064196  0  0.940657  0  0  0.083736  0  1.002483  0  0  0.084311  0  1.003168  0  0  0.089708  0.083234  0  1.002101  0
H  H7  1  0.37356220  0.72043933  0.01867204  1  0  0.064609  0  0.939619  0  0  0.083915  0  1.002197  0  0  0.084517  0  1.002837  0  0  0.089947  0.083449  0  1.001774  0
H  H8  1  0.88721740  0.22082315  0.51928339  1  0  0.064174  0  0.940392  0  0  0.083694  0  1.002286  0  0  0.084267  0  1.002975  0  0  0.089716  0.083199  0  1.001893  0
H  H9  1  0.62642561  0.27963479  0.98132867  1  0  0.064598  0  0.939684  0  0  0.08397  0  1.00222  0  0  0.084573  0  1.002854  0  0  0.08996  0.083504  0  1.001803  0
H  H10  1  0.80425012  0.89268057  0.43515742  1  0  0.0701  0  0.94409  0  0  0.086876  0  1.007044  0  0  0.088124  0  1.006888  0  0  0.09176  0.085891  0  1.007276  0
H  H11  1  0.13431026  0.60653524  0.06439875  1  0  0.069571  0  0.943781  0  0  0.086811  0  1.006309  0  0  0.088047  0  1.006149  0  0  0.09148  0.085732  0  1.006765  0
H  H12  1  0.19576945  0.10721693  0.56483826  1  0  0.07008  0  0.944095  0  0  0.08688  0  1.007027  0  0  0.088162  0  1.006831  0  0  0.091831  0.085886  0  1.007276  0
H  H13  1  0.86564578  0.39353371  0.93559688  1  0  0.069484  0  0.943756  0  0  0.086771  0  1.006278  0  0  0.088003  0  1.006124  0  0  0.091481  0.085706  0  1.006717  0
H  H14  1  0.43477909  0.31909540  0.48480414  1  0  0.069326  0  0.939835  0  0  0.084633  0  1.00825  0  0  0.08604  0  1.007544  0  0  0.090025  0.0835  0  1.008925  0
H  H15  1  0.24022420  0.17863061  0.01486647  1  0  0.069291  0  0.939056  0  0  0.08498  0  1.007644  0  0  0.086422  0  1.006888  0  0  0.090332  0.083842  0  1.008379  0
H  H16  1  0.56524989  0.68080920  0.51519235  1  0  0.069342  0  0.939704  0  0  0.084666  0  1.008116  0  0  0.086086  0  1.00741  0  0  0.090025  0.083535  0  1.008786  0
H  H17  1  0.75975051  0.82143249  0.98514494  1  0  0.0692  0  0.939012  0  0  0.084934  0  1.007548  0  0  0.086375  0  1.006791  0  0  0.090292  0.083799  0  1.008284  0
H  H18  1  0.33289310  0.13382848  0.44310573  1  0  0.064454  0  0.946402  0  0  0.084613  0  1.006108  0  0  0.084815  0  1.007322  0  0  0.09049  0.084423  0  1.005299  0
H  H19  1  0.91202524  0.36476896  0.05706978  1  0  0.064298  0  0.945983  0  0  0.084576  0  1.005806  0  0  0.084759  0  1.007078  0  0  0.090466  0.084355  0  1.005145  0
H  H20  1  0.66715335  0.86610293  0.55688931  1  0  0.06439  0  0.946335  0  0  0.08458  0  1.006046  0  0  0.084773  0  1.007274  0  0  0.090496  0.084394  0  1.005238  0
H  H21  1  0.08794572  0.63529264  0.94293241  1  0  0.064622  0  0.94588  0  0  0.08476  0  1.005858  0  0  0.084946  0  1.007125  0  0  0.090501  0.084533  0  1.005206  0
H  H22  1  0.36679641  0.19907767  0.25459777  1  0  0.168719  0  0.987655  0  0  0.187234  0  1.042176  0  0  0.189955  0  1.043817  0  0  0.096797  0.18528  0  1.041134  0
H  H23  1  0.82063715  0.30025051  0.24541690  1  0  0.168537  0  0.988049  0  0  0.186965  0  1.042774  0  0  0.189679  0  1.044418  0  0  0.096426  0.185008  0  1.041759  0
H  H24  1  0.63308449  0.80095845  0.74536353  1  0  0.168631  0  0.987732  0  0  0.187126  0  1.042308  0  0  0.189846  0  1.043946  0  0  0.096725  0.185173  0  1.041261  0
H  H25  1  0.17921338  0.69973820  0.75463749  1  0  0.168667  0  0.98798  0  0  0.187107  0  1.04266  0  0  0.189817  0  1.044295  0  0  0.096489  0.185154  0  1.041646  0
H  H26  1  0.59101536  0.00539556  0.31703729  1  0  0.176375  0  0.980177  0  0  0.189408  0  1.042807  0  0  0.193529  0  1.0419  0  0  0.095781  0.18643  0  1.043609  0
H  H27  1  0.91381721  0.49391318  0.18307308  1  0  0.176385  0  0.979997  0  0  0.189734  0  1.042207  0  0  0.193852  0  1.041285  0  0  0.095951  0.186743  0  1.043056  0
H  H28  1  0.40894156  0.99477236  0.68293555  1  0  0.176372  0  0.980326  0  0  0.189475  0  1.042839  0  0  0.193597  0  1.041931  0  0  0.095855  0.186493  0  1.04365  0
H  H29  1  0.08626929  0.50594842  0.81698600  1  0  0.176563  0  0.979857  0  0  0.189814  0  1.042155  0  0  0.193932  0  1.041231  0  0  0.095976  0.186833  0  1.042994  0
H  H30  1  0.20228644  0.11160592  0.32995315  1  0  0.169365  0  0.968828  0  0  0.189098  0  1.019735  0  0  0.192152  0  1.02027  0  0  0.097055  0.186899  0  1.019438  0
H  H31  1  0.64401591  0.38866229  0.17007043  1  0  0.169365  0  0.967662  0  0  0.188978  0  1.018832  0  0  0.191991  0  1.019427  0  0  0.097001  0.186813  0  1.018532  0
H  H32  1  0.79767198  0.88846877  0.67002939  1  0  0.169301  0  0.968849  0  0  0.189064  0  1.019718  0  0  0.19212  0  1.020249  0  0  0.096966  0.186859  0  1.019426  0
H  H33  1  0.35605410  0.61125932  0.82995320  1  0  0.169548  0  0.967439  0  0  0.189106  0  1.018628  0  0  0.19212  0  1.019218  0  0  0.097017  0.186935  0  1.018339  0
C  C34  1  0.23967168  0.56278418  0.36651084  1  0  0.654187  0  3.817554  0  0  0.605534  0  4.116267  0  0  0.638471  0  4.110365  0  0  0.223663  0.583232  0  4.119459  0
C  C35  1  0.17015641  0.93566761  0.13343680  1  0  0.655302  0  3.812879  0  0  0.606064  0  4.112343  0  0  0.639016  0  4.106429  0  0  0.224644  0.58375  0  4.115578  0
C  C36  1  0.76039782  0.43715970  0.63348445  1  0  0.65394  0  3.817219  0  0  0.605408  0  4.115775  0  0  0.638349  0  4.109875  0  0  0.223718  0.583105  0  4.118958  0
C  C37  1  0.82979828  0.06434612  0.86655474  1  0  0.655193  0  3.812685  0  0  0.605818  0  4.112215  0  0  0.638759  0  4.106323  0  0  0.224608  0.583514  0  4.11543  0
C  C38  1  0.06832866  0.51253130  0.42742527  1  0  -0.134206  0  3.651783  0  0  -0.134532  0  3.892061  0  0  -0.141364  0  3.90617  0  0  -0.093028  -0.129837  0  3.88219  0
C  C39  1  0.00933220  0.98647743  0.07254720  1  0  -0.135553  0  3.652564  0  0  -0.135151  0  3.893216  0  0  -0.142067  0  3.907393  0  0  -0.092976  -0.130399  0  3.883283  0
C  C40  1  0.93171741  0.48742506  0.57257128  1  0  -0.134126  0  3.652257  0  0  -0.134508  0  3.892672  0  0  -0.141341  0  3.906793  0  0  -0.093128  -0.12981  0  3.882798  0
C  C41  1  0.99065583  0.01357144  0.92746211  1  0  -0.135798  0  3.653042  0  0  -0.135012  0  3.893111  0  0  -0.141923  0  3.907286  0  0  -0.093019  -0.130261  0  3.88318  0
C  C42  1  0.93614499  0.73919762  0.46679464  1  0  -0.107218  0  3.645785  0  0  -0.152875  0  3.906524  0  0  -0.15339  0  3.920166  0  0  -0.157969  -0.152284  0  3.896968  0
C  C43  1  0.14304417  0.76051610  0.03291906  1  0  -0.106906  0  3.644226  0  0  -0.152581  0  3.905265  0  0  -0.153108  0  3.918976  0  0  -0.158145  -0.151946  0  3.895732  0
C  C44  1  0.06388045  0.26073559  0.53320073  1  0  -0.107254  0  3.645535  0  0  -0.152948  0  3.906293  0  0  -0.153485  0  3.919946  0  0  -0.158031  -0.152339  0  3.896705  0
C  C45  1  0.85694916  0.23955595  0.96709094  1  0  -0.106826  0  3.644658  0  0  -0.152663  0  3.905615  0  0  -0.153188  0  3.919325  0  0  -0.158203  -0.152039  0  3.896075  0
C  C46  1  0.24691436  0.29520800  0.47103798  1  0  -0.108432  0  3.675916  0  0  -0.156063  0  3.939355  0  0  -0.156158  0  3.953262  0  0  -0.162778  -0.155727  0  3.929534  0
C  C47  1  0.01426018  0.20371549  0.02897927  1  0  -0.107456  0  3.671922  0  0  -0.156305  0  3.93717  0  0  -0.156381  0  3.950982  0  0  -0.162738  -0.15607  0  3.92772  0
C  C48  1  0.75312416  0.70472710  0.52895326  1  0  -0.108404  0  3.675936  0  0  -0.156116  0  3.939473  0  0  -0.156246  0  3.953417  0  0  -0.162724  -0.155786  0  3.929659  0
C  C49  1  0.98571439  0.79636059  0.97101594  1  0  -0.107533  0  3.672147  0  0  -0.15638  0  3.937248  0  0  -0.156458  0  3.951072  0  0  -0.162689  -0.15615  0  3.927797  0
C  C50  1  0.39058676  0.05672670  0.29341957  1  0  -0.698871  0  3.476061  0  0  -0.746178  0  3.709596  0  0  -0.761745  0  3.714733  0  0  -0.315055  -0.735557  0  3.706238  0
C  C51  1  0.74096394  0.44284565  0.20665762  1  0  -0.699347  0  3.47657  0  0  -0.747033  0  3.710824  0  0  -0.762616  0  3.716028  0  0  -0.315276  -0.736348  0  3.707373  0
C  C52  1  0.60936951  0.94334098  0.70655886  1  0  -0.698596  0  3.4763  0  0  -0.746002  0  3.709571  0  0  -0.761577  0  3.714727  0  0  -0.314964  -0.735374  0  3.706222  0
C  C53  1  0.25902947  0.55709351  0.79337817  1  0  -0.699929  0  3.47606  0  0  -0.747437  0  3.710433  0  0  -0.763002  0  3.715604  0  0  -0.315393  -0.736779  0  3.707017  0
O  O54  1  0.09788663  0.66459281  0.31451010  1  0  -0.620367  0  1.986972  0  0  -0.549793  0  2.225223  0  0  -0.577453  0  2.218876  0  0  -0.279408  -0.530625  0  2.228827  0
O  O55  1  0.07656915  0.83603802  0.18564237  1  0  -0.620187  0  1.983733  0  0  -0.549665  0  2.22244  0  0  -0.577303  0  2.216098  0  0  -0.279985  -0.530547  0  2.226166  0
O  O56  1  0.90216980  0.33537232  0.68549134  1  0  -0.620203  0  1.987  0  0  -0.549545  0  2.225092  0  0  -0.577203  0  2.21875  0  0  -0.279292  -0.530397  0  2.228719  0
O  O57  1  0.92348168  0.16399349  0.81434876  1  0  -0.620187  0  1.982912  0  0  -0.549702  0  2.221795  0  0  -0.577346  0  2.21547  0  0  -0.279977  -0.530579  0  2.225506  0
O  O58  1  0.50303823  0.52364921  0.36496953  1  0  -0.60637  0  1.927541  0  0  -0.546519  0  2.145779  0  0  -0.571471  0  2.139319  0  0  -0.286599  -0.529317  0  2.149679  0
O  O59  1  0.39418131  0.97276626  0.13484203  1  0  -0.606612  0  1.927658  0  0  -0.546329  0  2.146373  0  0  -0.571262  0  2.139831  0  0  -0.28643  -0.529065  0  2.150228  0
O  O60  1  0.49693652  0.47640156  0.63503632  1  0  -0.60634  0  1.926738  0  0  -0.546638  0  2.145023  0  0  -0.571595  0  2.138564  0  0  -0.286718  -0.529427  0  2.148916  0
O  O61  1  0.60584709  0.02720263  0.86515394  1  0  -0.606261  0  1.928624  0  0  -0.545933  0  2.147364  0  0  -0.570873  0  2.140855  0  0  -0.2862  -0.528656  0  2.151166  0
