# generated using pymatgen
data_CdH32C18(N3O4)2
_symmetry_space_group_name_H-M   'P 1'
_cell_length_a   5.41519251
_cell_length_b   9.18493772
_cell_length_c   13.04134608
_cell_angle_alpha   107.27165396
_cell_angle_beta   101.95776702
_cell_angle_gamma   90.01820102
_symmetry_Int_Tables_number   1
_chemical_formula_structural   CdH32C18(N3O4)2
_chemical_formula_sum   'Cd1 H32 C18 N6 O8'
_cell_volume   604.63443652
_cell_formula_units_Z   1
loop_
 _symmetry_equiv_pos_site_id
 _symmetry_equiv_pos_as_xyz
  1  'x, y, z'
loop_
 _atom_site_type_symbol
 _atom_site_label
 _atom_site_symmetry_multiplicity
 _atom_site_fract_x
 _atom_site_fract_y
 _atom_site_fract_z
 _atom_site_occupancy
 _atom_site_pbe_bader_spin_density
 _atom_site_pbe_cm5_charge
 _atom_site_pbe_ddec_charge
 _atom_site_pbe_ddec_spin_density
 _atom_site_pbe_ddec_sum_bond_order
 _atom_site_pbe_magmom
Cd  Cd0  1  0.15745721  0.99987544  0.99997725  1  0  0.755772  0.885101  0  2.060157  0
H  H1  1  0.33247597  0.54641616  0.25626280  1  0  0.312179  0.26766  0  0.981758  0
H  H2  1  0.07782521  0.45330424  0.74386248  1  0  0.312448  0.267446  0  0.982644  0
H  H3  1  0.13349965  0.77492428  0.33534043  1  0  0.298309  0.268045  0  1.036594  0
H  H4  1  0.79978444  0.22507023  0.66483174  1  0  0.298476  0.268062  0  1.035874  0
H  H5  1  0.79405284  0.02789132  0.12856230  1  0  0.292637  0.286361  0  0.969209  0
H  H6  1  0.66560060  0.97219872  0.87158146  1  0  0.291952  0.285557  0  0.970153  0
H  H7  1  0.71815504  0.87323621  0.02570210  1  0  0.291256  0.290592  0  0.983541  0
H  H8  1  0.69315991  0.12692405  0.97444660  1  0  0.290461  0.288364  0  0.984175  0
H  H9  1  0.78852539  0.40758407  0.20647762  1  0  0.116649  0.089892  0  0.983515  0
H  H10  1  0.58316563  0.59292854  0.79338471  1  0  0.116964  0.089874  0  0.98354  0
H  H11  1  0.85663478  0.40049585  0.39916613  1  0  0.093167  0.134205  0  1.002726  0
H  H12  1  0.45767185  0.59954488  0.60058567  1  0  0.093235  0.134977  0  1.001327  0
H  H13  1  0.78186432  0.21400537  0.30311615  1  0  0.092959  0.131304  0  1.00714  0
H  H14  1  0.47846780  0.78607538  0.69646748  1  0  0.092896  0.131146  0  1.007344  0
H  H15  1  0.54738454  0.30957544  0.37143569  1  0  0.09062  0.127687  0  0.997901  0
H  H16  1  0.17585157  0.68985230  0.62841615  1  0  0.09038  0.127326  0  0.998606  0
H  H17  1  0.64621066  0.90597553  0.35081052  1  0  0.118034  0.073511  0  0.998542  0
H  H18  1  0.29655451  0.09389041  0.64910149  1  0  0.118374  0.074187  0  0.998777  0
H  H19  1  0.51323280  0.99392666  0.52270697  1  0  0.091969  0.127687  0  1.037205  0
H  H20  1  0.99052424  0.00649903  0.47739658  1  0  0.09198  0.128109  0  1.036155  0
H  H21  1  0.72672770  0.85147465  0.53941335  1  0  0.094827  0.135004  0  1.003527  0
H  H22  1  0.18838693  0.14854406  0.46061466  1  0  0.095516  0.136109  0  1.002362  0
H  H23  1  0.39448429  0.80710578  0.51138707  1  0  0.096769  0.138933  0  1.010611  0
H  H24  1  0.88489752  0.19378629  0.48907569  1  0  0.097113  0.139571  0  1.010809  0
H  H25  1  0.82614356  0.85999966  0.22500123  1  0  0.104581  0.050196  0  1.026156  0
H  H26  1  0.60229701  0.13959590  0.77486629  1  0  0.105041  0.050426  0  1.027048  0
H  H27  1  0.67496759  0.64244047  0.06064833  1  0  0.094706  0.136944  0  0.984441  0
H  H28  1  0.61422424  0.35724016  0.93903472  1  0  0.095605  0.138294  0  0.984143  0
H  H29  1  0.94316729  0.58854951  0.14266149  1  0  0.089728  0.12057  0  1.045581  0
H  H30  1  0.80084456  0.41132300  0.85716124  1  0  0.089527  0.120831  0  1.045256  0
H  H31  1  0.97430777  0.63898648  0.02369692  1  0  0.09366  0.140207  0  1.019932  0
H  H32  1  0.95050262  0.36116093  0.97630679  1  0  0.093682  0.140428  0  1.018654  0
C  C33  1  0.41618068  0.29023632  0.15211774  1  0  0.204302  0.560985  0  4.191219  0
C  C34  1  0.26454545  0.70965808  0.84779722  1  0  0.202944  0.559814  0  4.189766  0
C  C35  1  0.62421955  0.39586060  0.24145121  1  0  0.011744  0.064787  0  3.863721  0
C  C36  1  0.38372027  0.60421009  0.75850032  1  0  0.012025  0.066412  0  3.863867  0
C  C37  1  0.70744375  0.32553096  0.33511665  1  0  -0.239891  -0.401768  0  3.912499  0
C  C38  1  0.37246537  0.67438101  0.66468531  1  0  -0.239313  -0.40228  0  3.912077  0
C  C39  1  0.66753928  0.67230758  0.33860014  1  0  0.243674  0.464331  0  4.08278  0
C  C40  1  0.33050530  0.32763873  0.66145143  1  0  0.243956  0.464576  0  4.085361  0
C  C41  1  0.53436437  0.82182079  0.37024661  1  0  0.016415  0.081271  0  3.891068  0
C  C42  1  0.16549362  0.17819342  0.62984158  1  0  0.016123  0.079717  0  3.895377  0
C  C43  1  0.54253758  0.87174252  0.49386974  1  0  -0.24071  -0.414029  0  3.884899  0
C  C44  1  0.04971615  0.12854307  0.50626614  1  0  -0.24153  -0.415674  0  3.885619  0
C  C45  1  0.21835085  0.86033262  0.21659112  1  0  0.238448  0.470048  0  4.060358  0
C  C46  1  0.00291003  0.13968999  0.78359194  1  0  0.238481  0.469253  0  4.061441  0
C  C47  1  0.93691872  0.83297625  0.16074613  1  0  0.000701  0.109894  0  3.89417  0
C  C48  1  0.77696049  0.16690976  0.83925903  1  0  -9.4e-05  0.109004  0  3.895624  0
C  C49  1  0.87988059  0.66483059  0.09321526  1  0  -0.243641  -0.411659  0  3.885718  0
C  C50  1  0.78688693  0.33506541  0.90664400  1  0  -0.244615  -0.413769  0  3.884817  0
N  N51  1  0.52427439  0.54493509  0.27955107  1  0  -0.409165  -0.348604  0  3.567351  0
N  N52  1  0.24635414  0.45497565  0.72058653  1  0  -0.410403  -0.349138  0  3.570107  0
N  N53  1  0.27782203  0.81603616  0.30827940  1  0  -0.42836  -0.401618  0  3.575501  0
N  N54  1  0.97107088  0.18401322  0.69192735  1  0  -0.428  -0.399968  0  3.577196  0
N  N55  1  0.86613595  0.92885124  0.08891507  1  0  -0.632936  -0.594371  0  3.331204  0
N  N56  1  0.77769067  0.07114123  0.91116374  1  0  -0.631502  -0.591136  0  3.330174  0
O  O57  1  0.49420305  0.16952249  0.09080413  1  0  -0.329795  -0.561042  0  2.30892  0
O  O58  1  0.40362345  0.83042560  0.90921300  1  0  -0.329355  -0.560665  0  2.308149  0
O  O59  1  0.18950212  0.32163010  0.14659849  1  0  -0.326271  -0.555827  0  2.128218  0
O  O60  1  0.04325951  0.67813821  0.85313196  1  0  -0.325203  -0.555263  0  2.128081  0
O  O61  1  0.90313422  0.67467953  0.37046130  1  0  -0.317558  -0.530989  0  2.1783  0
O  O62  1  0.53428129  0.32519242  0.62957685  1  0  -0.317768  -0.531366  0  2.177877  0
O  O63  1  0.37722975  0.91425424  0.17861738  1  0  -0.297134  -0.493102  0  2.199072  0
O  O64  1  0.19955423  0.08587565  0.82167971  1  0  -0.297043  -0.492428  0  2.200411  0
