# generated using pymatgen
data_ZnH11C10N3O5
_symmetry_space_group_name_H-M   'P 1'
_cell_length_a   9.12359363
_cell_length_b   9.74799069
_cell_length_c   13.69062234
_cell_angle_alpha   90.00038969
_cell_angle_beta   108.33211780
_cell_angle_gamma   89.99972338
_symmetry_Int_Tables_number   1
_chemical_formula_structural   ZnH11C10N3O5
_chemical_formula_sum   'Zn4 H44 C40 N12 O20'
_cell_volume   1155.80487627
_cell_formula_units_Z   4
loop_
 _symmetry_equiv_pos_site_id
 _symmetry_equiv_pos_as_xyz
  1  'x, y, z'
loop_
 _atom_site_type_symbol
 _atom_site_label
 _atom_site_symmetry_multiplicity
 _atom_site_fract_x
 _atom_site_fract_y
 _atom_site_fract_z
 _atom_site_occupancy
 _atom_site_pbe_bader_spin_density
 _atom_site_pbe_cm5_charge
 _atom_site_pbe_ddec_charge
 _atom_site_pbe_ddec_spin_density
 _atom_site_pbe_ddec_sum_bond_order
 _atom_site_pbe_magmom
Zn  Zn0  1  0.08131947  0.38071643  0.68880823  1  0  0.672884  0.770385  0  2.27933  0
Zn  Zn1  1  0.41868317  0.88071776  0.81119211  1  0  0.672913  0.770409  0  2.279294  0
Zn  Zn2  1  0.91868062  0.61928192  0.31119058  1  0  0.672888  0.770401  0  2.279302  0
Zn  Zn3  1  0.58132042  0.11928469  0.18880885  1  0  0.672886  0.770393  0  2.279277  0
H  H4  1  0.34747157  0.66230078  0.63362857  1  0  0.31169  0.268273  0  1.008506  0
H  H5  1  0.15252726  0.16229980  0.86637289  1  0  0.311679  0.268247  0  1.008575  0
H  H6  1  0.65252977  0.33769859  0.36637340  1  0  0.311689  0.268273  0  1.008538  0
H  H7  1  0.84747401  0.83769958  0.13362688  1  0  0.31168  0.268231  0  1.008587  0
H  H8  1  0.07662080  0.62817111  0.59767819  1  0  0.299188  0.287518  0  1.003188  0
H  H9  1  0.42337813  0.12817130  0.90232313  1  0  0.299202  0.287531  0  1.003171  0
H  H10  1  0.92337931  0.37182827  0.40232135  1  0  0.299191  0.287524  0  1.003181  0
H  H11  1  0.57662547  0.87183012  0.09767783  1  0  0.299205  0.287559  0  1.00315  0
H  H12  1  0.16479514  0.63120907  0.72688214  1  0  0.310063  0.292235  0  0.954225  0
H  H13  1  0.33520496  0.13121151  0.77312015  1  0  0.310074  0.292252  0  0.954202  0
H  H14  1  0.83520382  0.36878927  0.27311717  1  0  0.310049  0.292224  0  0.954227  0
H  H15  1  0.66479751  0.86879094  0.22688132  1  0  0.310086  0.292282  0  0.954178  0
H  H16  1  0.81159458  0.60158954  0.58158651  1  0  0.118329  0.100659  0  1.022805  0
H  H17  1  0.68840935  0.10159197  0.91841674  1  0  0.118292  0.100596  0  1.022862  0
H  H18  1  0.18840785  0.39840983  0.41841349  1  0  0.118298  0.100646  0  1.022867  0
H  H19  1  0.31159183  0.89841253  0.08158009  1  0  0.118285  0.100569  0  1.022888  0
H  H20  1  0.54640920  0.64152969  0.59033496  1  0  0.111045  0.111917  0  1.036392  0
H  H21  1  0.95359457  0.14152880  0.90966772  1  0  0.111071  0.111899  0  1.036449  0
H  H22  1  0.45359445  0.35847276  0.40966746  1  0  0.111072  0.111929  0  1.03644  0
H  H23  1  0.04641016  0.85847160  0.09033273  1  0  0.111055  0.111902  0  1.036418  0
H  H24  1  0.83747056  0.22019359  0.71918197  1  0  0.113512  0.080879  0  1.039158  0
H  H25  1  0.66253300  0.72019373  0.78082251  1  0  0.113513  0.080915  0  1.039071  0
H  H26  1  0.16252950  0.77980475  0.28081610  1  0  0.113534  0.080887  0  1.03912  0
H  H27  1  0.33747062  0.27980769  0.21917918  1  0  0.113533  0.080943  0  1.039081  0
H  H28  1  0.57098270  0.24394377  0.73370481  1  0  0.115412  0.135172  0  1.034828  0
H  H29  1  0.92902197  0.74394052  0.76630073  1  0  0.115423  0.135249  0  1.034778  0
H  H30  1  0.42901975  0.75605560  0.26629592  1  0  0.115417  0.135185  0  1.034802  0
H  H31  1  0.07098290  0.25605680  0.23370413  1  0  0.115407  0.135145  0  1.034865  0
H  H32  1  0.13760423  0.40150008  0.04382145  1  0  0.09981  0.117145  0  0.983728  0
H  H33  1  0.36238989  0.90149894  0.45617835  1  0  0.099805  0.117117  0  0.983719  0
H  H34  1  0.86238417  0.59850340  0.95617067  1  0  0.099794  0.11714  0  0.983836  0
H  H35  1  0.63760796  0.09850556  0.54382220  1  0  0.099789  0.1171  0  0.983723  0
H  H36  1  0.94950066  0.34939248  0.97811470  1  0  0.098155  0.114091  0  0.988825  0
H  H37  1  0.55049757  0.84939271  0.52187986  1  0  0.098156  0.114098  0  0.988733  0
H  H38  1  0.05048899  0.65060792  0.02188059  1  0  0.098142  0.114068  0  0.988777  0
H  H39  1  0.44950255  0.15060872  0.47811969  1  0  0.098125  0.114036  0  0.988834  0
H  H40  1  0.91651692  0.09247740  0.40749056  1  0  0.100783  0.124122  0  1.004494  0
H  H41  1  0.58347964  0.59248226  0.09250931  1  0  0.100782  0.124117  0  1.004488  0
H  H42  1  0.08347631  0.90752197  0.59250909  1  0  0.100755  0.124117  0  1.004432  0
H  H43  1  0.41652170  0.40752019  0.90749266  1  0  0.100757  0.124102  0  1.004458  0
H  H44  1  0.11426988  0.05891556  0.44820874  1  0  0.101013  0.119922  0  0.971456  0
H  H45  1  0.38572646  0.55892174  0.05178839  1  0  0.101024  0.119929  0  0.971415  0
H  H46  1  0.88572329  0.94108176  0.55178870  1  0  0.101022  0.119904  0  0.971382  0
H  H47  1  0.61427483  0.44108071  0.94821211  1  0  0.101022  0.119914  0  0.971414  0
C  C48  1  0.38193713  0.45576707  0.67792798  1  0  0.253203  0.449604  0  4.094693  0
C  C49  1  0.11806528  0.95575857  0.82207268  1  0  0.253197  0.449651  0  4.094858  0
C  C50  1  0.61806416  0.54423538  0.32207253  1  0  0.253221  0.449711  0  4.094717  0
C  C51  1  0.88193954  0.04423978  0.17793072  1  0  0.253178  0.449498  0  4.09487  0
C  C52  1  0.53926224  0.44644679  0.66679694  1  0  0.012085  0.027438  0  3.948652  0
C  C53  1  0.96073947  0.94644507  0.83320899  1  0  0.012062  0.027321  0  3.948772  0
C  C54  1  0.46073797  0.55355155  0.33320554  1  0  0.01208  0.027363  0  3.948785  0
C  C55  1  0.03926649  0.05355226  0.16679390  1  0  0.01211  0.027469  0  3.948655  0
C  C56  1  0.04201017  0.18947028  0.54783283  1  0  0.203829  0.625169  0  4.12923  0
C  C57  1  0.45798961  0.68947175  0.95216529  1  0  0.203809  0.625144  0  4.129287  0
C  C58  1  0.95798648  0.81052601  0.45216603  1  0  0.203746  0.625094  0  4.129275  0
C  C59  1  0.54201286  0.31052967  0.04783617  1  0  0.203816  0.625111  0  4.129129  0
C  C60  1  0.75529467  0.52567778  0.61650494  1  0  0.048366  0.093292  0  3.912783  0
C  C61  1  0.74470957  0.02568168  0.88350019  1  0  0.048391  0.093357  0  3.912596  0
C  C62  1  0.24470662  0.47431851  0.38349556  1  0  0.048416  0.093331  0  3.912739  0
C  C63  1  0.25529396  0.97431975  0.11649856  1  0  0.048432  0.093451  0  3.912661  0
C  C64  1  0.60653837  0.54682916  0.62126573  1  0  -0.078385  -0.157071  0  3.950356  0
C  C65  1  0.89346578  0.04682824  0.87873876  1  0  -0.078372  -0.156908  0  3.950478  0
C  C66  1  0.39346299  0.45316918  0.37873698  1  0  -0.078402  -0.156996  0  3.950508  0
C  C67  1  0.10654011  0.95317113  0.12126192  1  0  -0.078454  -0.157121  0  3.950494  0
C  C68  1  0.76917570  0.31256856  0.69336171  1  0  0.046882  0.091695  0  3.944293  0
C  C69  1  0.73082872  0.81256761  0.80664339  1  0  0.046871  0.091652  0  3.944149  0
C  C70  1  0.23082439  0.68742876  0.30663710  1  0  0.046874  0.091747  0  3.944138  0
C  C71  1  0.26917487  0.18743074  0.19335757  1  0  0.046751  0.091486  0  3.944321  0
C  C72  1  0.62281596  0.32646718  0.70255992  1  0  -0.071101  -0.132533  0  3.911858  0
C  C73  1  0.87718955  0.82646446  0.79744472  1  0  -0.071087  -0.132539  0  3.911775  0
C  C74  1  0.37718648  0.67353014  0.29744081  1  0  -0.07111  -0.132536  0  3.91182  0
C  C75  1  0.12281525  0.17353389  0.20255793  1  0  -0.07109  -0.132468  0  3.911886  0
C  C76  1  0.06618759  0.44864524  0.88319129  1  0  0.200284  0.61753  0  4.155208  0
C  C77  1  0.43381707  0.94864157  0.61680758  1  0  0.200296  0.617475  0  4.155138  0
C  C78  1  0.93379971  0.55135414  0.11680207  1  0  0.200329  0.617717  0  4.154932  0
C  C79  1  0.56618419  0.05135986  0.38319219  1  0  0.20036  0.617554  0  4.15529  0
C  C80  1  0.03130915  0.43416486  0.98397515  1  0  -0.168118  -0.276104  0  3.958623  0
C  C81  1  0.46868522  0.93416828  0.51602309  1  0  -0.168116  -0.276073  0  3.95857  0
C  C82  1  0.96867586  0.56583554  0.01601850  1  0  -0.168067  -0.276092  0  3.958638  0
C  C83  1  0.53131261  0.06583827  0.48397673  1  0  -0.168048  -0.275978  0  3.95857  0
C  C84  1  0.01390598  0.06729611  0.47621683  1  0  -0.168227  -0.276209  0  3.944766  0
C  C85  1  0.48609035  0.56729952  0.02378107  1  0  -0.168195  -0.27621  0  3.944647  0
C  C86  1  0.98608834  0.93270327  0.52378084  1  0  -0.168167  -0.276136  0  3.944522  0
C  C87  1  0.51391094  0.43270395  0.97621944  1  0  -0.168178  -0.276092  0  3.944575  0
N  N88  1  0.29802459  0.56923765  0.64308353  1  0  -0.325211  -0.200031  0  3.557088  0
N  N89  1  0.20197571  0.06923739  0.85691850  1  0  -0.325185  -0.200036  0  3.557  0
N  N90  1  0.70197787  0.43076274  0.35691794  1  0  -0.325192  -0.200044  0  3.557097  0
N  N91  1  0.79802676  0.93076301  0.14308297  1  0  -0.325173  -0.19991  0  3.556967  0
N  N92  1  0.83629794  0.41106851  0.65317502  1  0  -0.317973  -0.225363  0  3.518118  0
N  N93  1  0.66370494  0.91106928  0.84682805  1  0  -0.317999  -0.225495  0  3.517838  0
N  N94  1  0.16370213  0.58892778  0.34682305  1  0  -0.318001  -0.225486  0  3.517931  0
N  N95  1  0.33629628  0.08893112  0.15317025  1  0  -0.317889  -0.225311  0  3.517889  0
N  N96  1  0.15384840  0.57750746  0.66007879  1  0  -0.509374  -0.442131  0  3.377547  0
N  N97  1  0.34615183  0.07750740  0.83992181  1  0  -0.509412  -0.44212  0  3.377508  0
N  N98  1  0.84615171  0.42249294  0.33992075  1  0  -0.509384  -0.44213  0  3.377564  0
N  N99  1  0.65385062  0.92249402  0.16007893  1  0  -0.509428  -0.442264  0  3.377514  0
O  O100  1  0.33038455  0.35711524  0.71626508  1  0  -0.275442  -0.462291  0  2.30104  0
O  O101  1  0.16961713  0.85711538  0.78373861  1  0  -0.275433  -0.46229  0  2.301352  0
O  O102  1  0.66961443  0.64288311  0.28373497  1  0  -0.27545  -0.462347  0  2.30116  0
O  O103  1  0.83039012  0.14288195  0.21626891  1  0  -0.275405  -0.462201  0  2.301308  0
O  O104  1  0.04972436  0.17357000  0.64212151  1  0  -0.322697  -0.539048  0  2.237804  0
O  O105  1  0.45027664  0.67356958  0.85787751  1  0  -0.322734  -0.539094  0  2.23778  0
O  O106  1  0.95027344  0.82642732  0.35787758  1  0  -0.322734  -0.539106  0  2.237775  0
O  O107  1  0.54972700  0.32643184  0.14212492  1  0  -0.322731  -0.539082  0  2.237678  0
O  O108  1  0.05644893  0.30803708  0.51241014  1  0  -0.329069  -0.580496  0  2.210753  0
O  O109  1  0.44355272  0.80803998  0.98758746  1  0  -0.329054  -0.58044  0  2.210829  0
O  O110  1  0.94355120  0.69196024  0.48759014  1  0  -0.328985  -0.580395  0  2.210911  0
O  O111  1  0.55644970  0.19196145  0.01241253  1  0  -0.32904  -0.580443  0  2.210764  0
O  O112  1  0.09676833  0.33618590  0.84142488  1  0  -0.337568  -0.591641  0  2.31159  0
O  O113  1  0.40323446  0.83618584  0.65857527  1  0  -0.337573  -0.591614  0  2.311611  0
O  O114  1  0.90322827  0.66381348  0.15857251  1  0  -0.337525  -0.591621  0  2.31145  0
O  O115  1  0.59676565  0.16381456  0.34142427  1  0  -0.337574  -0.591618  0  2.311658  0
O  O116  1  0.06248439  0.56395497  0.84302674  1  0  -0.313403  -0.544178  0  2.177917  0
O  O117  1  0.43752867  0.06395379  0.65697924  1  0  -0.313404  -0.544158  0  2.177735  0
O  O118  1  0.93749586  0.43604235  0.15696159  1  0  -0.313466  -0.544327  0  2.177893  0
O  O119  1  0.56247380  0.93605071  0.34302222  1  0  -0.313466  -0.544235  0  2.177884  0
