# generated using pymatgen
data_SmH13(CO)8
_symmetry_space_group_name_H-M   'P 1'
_cell_length_a   7.51790387
_cell_length_b   9.04823503
_cell_length_c   10.04155969
_cell_angle_alpha   86.54726298
_cell_angle_beta   75.67132777
_cell_angle_gamma   88.31523249
_symmetry_Int_Tables_number   1
_chemical_formula_structural   SmH13(CO)8
_chemical_formula_sum   'Sm2 H26 C16 O16'
_cell_volume   660.54036136
_cell_formula_units_Z   2
loop_
 _symmetry_equiv_pos_site_id
 _symmetry_equiv_pos_as_xyz
  1  'x, y, z'
loop_
 _atom_site_type_symbol
 _atom_site_label
 _atom_site_symmetry_multiplicity
 _atom_site_fract_x
 _atom_site_fract_y
 _atom_site_fract_z
 _atom_site_occupancy
 _atom_site_hle17_bader_spin_density
 _atom_site_hle17_ddec_charge
 _atom_site_hle17_ddec_spin_density
 _atom_site_hle17_ddec_sum_bond_order
 _atom_site_hle17_magmom
 _atom_site_hse06_10hf_bader_spin_density
 _atom_site_hse06_10hf_ddec_charge
 _atom_site_hse06_10hf_ddec_spin_density
 _atom_site_hse06_10hf_ddec_sum_bond_order
 _atom_site_hse06_10hf_magmom
 _atom_site_hse06_bader_spin_density
 _atom_site_hse06_ddec_charge
 _atom_site_hse06_ddec_spin_density
 _atom_site_hse06_ddec_sum_bond_order
 _atom_site_hse06_magmom
 _atom_site_pbe_bader_spin_density
 _atom_site_pbe_cm5_charge
 _atom_site_pbe_ddec_charge
 _atom_site_pbe_ddec_spin_density
 _atom_site_pbe_ddec_sum_bond_order
 _atom_site_pbe_magmom
Sm  Sm0  1  0.74039311  0.92014706  0.01594385  1  0  2.292779  0  1.62419  0  0  2.13306  0  2.087061  0  0  2.245896  0  1.923528  0  0  1.514357  2.097714  0  2.119533  0
Sm  Sm1  1  0.25961767  0.07984787  0.98406232  1  0  2.292808  0  1.62423  0  0  2.133092  0  2.08704  0  0  2.24589  0  1.923576  0  0  1.514297  2.097717  0  2.119575  0
H  H2  1  0.85902144  0.76596508  0.73311272  1  0  0.39695  0  0.902606  0  0  0.365245  0  0.982728  0  0  0.377851  0  0.96792  0  0  0.304785  0.356175  0  0.991923  0
H  H3  1  0.14100630  0.23401923  0.26687288  1  0  0.396897  0  0.902192  0  0  0.365047  0  0.982584  0  0  0.377668  0  0.968101  0  0  0.304602  0.355965  0  0.991789  0
H  H4  1  0.23939734  0.52317812  0.69531808  1  0  0.145921  0  0.925413  0  0  0.164378  0  0.980103  0  0  0.167249  0  0.978367  0  0  0.103123  0.162245  0  0.98145  0
H  H5  1  0.76063906  0.47684907  0.30467554  1  0  0.145879  0  0.925542  0  0  0.164371  0  0.980227  0  0  0.167244  0  0.97849  0  0  0.103056  0.162239  0  0.981575  0
H  H6  1  0.15041666  0.46123484  0.87015375  1  0  0.169943  0  0.939668  0  0  0.186021  0  1.000915  0  0  0.189037  0  1.000232  0  0  0.116021  0.183743  0  1.001711  0
H  H7  1  0.84960109  0.53876139  0.12984318  1  0  0.169944  0  0.939753  0  0  0.18598  0  1.00109  0  0  0.188991  0  1.000411  0  0  0.11598  0.183704  0  1.001879  0
H  H8  1  0.30885625  0.60505559  0.83304625  1  0  0.156564  0  0.927941  0  0  0.177952  0  0.980548  0  0  0.179865  0  0.9807  0  0  0.111508  0.176568  0  0.980414  0
H  H9  1  0.69115811  0.39496693  0.16696138  1  0  0.156496  0  0.928159  0  0  0.177919  0  0.980757  0  0  0.17986  0  0.980873  0  0  0.111498  0.176514  0  0.980647  0
H  H10  1  0.33756361  0.29881547  0.41170387  1  0  0.13863  0  0.93386  0  0  0.159286  0  0.988388  0  0  0.162028  0  0.986862  0  0  0.101734  0.157264  0  0.989563  0
H  H11  1  0.66241697  0.70118517  0.58830147  1  0  0.138585  0  0.933937  0  0  0.159236  0  0.98848  0  0  0.161975  0  0.986951  0  0  0.101718  0.157215  0  0.989651  0
H  H12  1  0.56986446  0.24154933  0.40734686  1  0  0.141952  0  0.937619  0  0  0.16265  0  0.992493  0  0  0.165043  0  0.991484  0  0  0.102356  0.160862  0  0.993303  0
H  H13  1  0.43012416  0.75845897  0.59265980  1  0  0.141882  0  0.937765  0  0  0.162613  0  0.992607  0  0  0.165006  0  0.991598  0  0  0.102311  0.160823  0  0.99342  0
H  H14  1  0.38550558  0.12026797  0.47760869  1  0  0.148843  0  0.930409  0  0  0.170641  0  0.985191  0  0  0.172941  0  0.984644  0  0  0.107618  0.168905  0  0.985629  0
H  H15  1  0.61447908  0.87972692  0.52240409  1  0  0.148798  0  0.930621  0  0  0.1706  0  0.985393  0  0  0.172892  0  0.984859  0  0  0.107586  0.168865  0  0.98583  0
H  H16  1  0.15223650  0.89117449  0.32698106  1  0  0.150779  0  0.94055  0  0  0.16842  0  0.998452  0  0  0.171433  0  0.997206  0  0  0.106787  0.166263  0  0.999277  0
H  H17  1  0.84775804  0.10881286  0.67302225  1  0  0.150768  0  0.94066  0  0  0.168433  0  0.998499  0  0  0.171446  0  0.997252  0  0  0.106766  0.166278  0  0.999323  0
H  H18  1  0.96710177  0.77875534  0.42918297  1  0  0.139665  0  0.943456  0  0  0.158223  0  1.002448  0  0  0.160828  0  1.000814  0  0  0.099912  0.155976  0  1.004324  0
H  H19  1  0.03289041  0.22122239  0.57080813  1  0  0.139765  0  0.943464  0  0  0.158254  0  1.002511  0  0  0.160857  0  1.00088  0  0  0.099942  0.156027  0  1.004368  0
H  H20  1  0.94568636  0.97546802  0.41780641  1  0  0.140597  0  0.940528  0  0  0.162516  0  0.997059  0  0  0.164561  0  0.996433  0  0  0.107243  0.161044  0  0.997432  0
H  H21  1  0.05430142  0.02450926  0.58220242  1  0  0.140711  0  0.940416  0  0  0.162531  0  0.997035  0  0  0.164576  0  0.996411  0  0  0.107233  0.16106  0  0.997406  0
H  H22  1  0.14959291  0.66845206  0.09329076  1  0  0.149036  0  0.963606  0  0  0.165139  0  1.026427  0  0  0.168158  0  1.025451  0  0  0.106727  0.162945  0  1.027069  0
H  H23  1  0.85041521  0.33155098  0.90670167  1  0  0.148998  0  0.963572  0  0  0.165104  0  1.026432  0  0  0.168126  0  1.025453  0  0  0.106713  0.162908  0  1.027072  0
H  H24  1  0.30712371  0.51547594  0.09657054  1  0  0.156659  0  0.951659  0  0  0.172064  0  1.01277  0  0  0.175686  0  1.010803  0  0  0.103475  0.169559  0  1.013989  0
H  H25  1  0.69288599  0.48452289  0.90341378  1  0  0.156651  0  0.951672  0  0  0.172095  0  1.012754  0  0  0.175747  0  1.010754  0  0  0.103525  0.169591  0  1.013966  0
H  H26  1  0.22387977  0.62046708  0.24532819  1  0  0.140599  0  0.921196  0  0  0.163322  0  0.973563  0  0  0.165194  0  0.973326  0  0  0.105426  0.161887  0  0.973836  0
H  H27  1  0.77612452  0.37952732  0.75465723  1  0  0.140668  0  0.921193  0  0  0.16342  0  0.973539  0  0  0.165291  0  0.973304  0  0  0.105462  0.161985  0  0.973811  0
C  C28  1  0.42602594  0.72859522  0.08597112  1  0  0.789754  0  3.799789  0  0  0.756331  0  4.084507  0  0  0.78981  0  4.081336  0  0  0.217906  0.733057  0  4.090756  0
C  C29  1  0.57397803  0.27140890  0.91402301  1  0  0.789793  0  3.799996  0  0  0.756438  0  4.084632  0  0  0.789917  0  4.08146  0  0  0.218004  0.733163  0  4.090878  0
C  C30  1  0.03957684  0.66881807  0.81712520  1  0  0.796527  0  3.708412  0  0  0.755032  0  4.007801  0  0  0.789424  0  3.998195  0  0  0.254588  0.731582  0  4.014496  0
C  C31  1  0.96044484  0.33118241  0.18287787  1  0  0.796462  0  3.707758  0  0  0.754787  0  4.007519  0  0  0.789177  0  3.997919  0  0  0.254716  0.731329  0  4.014221  0
C  C32  1  0.19421570  0.55879506  0.80060592  1  0  -0.471863  0  3.629897  0  0  -0.549144  0  3.861982  0  0  -0.556672  0  3.863376  0  0  -0.236823  -0.543344  0  3.860141  0
C  C33  1  0.80578510  0.44122775  0.19939314  1  0  -0.471874  0  3.629753  0  0  -0.54917  0  3.861994  0  0  -0.55671  0  3.863358  0  0  -0.236932  -0.543356  0  3.860175  0
C  C34  1  0.43666526  0.20622260  0.39593322  1  0  -0.461655  0  3.643175  0  0  -0.538874  0  3.869554  0  0  -0.545353  0  3.870628  0  0  -0.239328  -0.533943  0  3.868092  0
C  C35  1  0.56332482  0.79377901  0.60407539  1  0  -0.461647  0  3.643591  0  0  -0.538902  0  3.869934  0  0  -0.54537  0  3.871012  0  0  -0.239373  -0.533969  0  3.86847  0
C  C36  1  0.45626998  0.14188579  0.25752713  1  0  0.804826  0  3.769717  0  0  0.768663  0  4.060393  0  0  0.803222  0  4.052573  0  0  0.238586  0.745477  0  4.066833  0
C  C37  1  0.54373652  0.85811799  0.74247951  1  0  0.805149  0  3.77034  0  0  0.769054  0  4.060906  0  0  0.803612  0  4.053084  0  0  0.238904  0.745871  0  4.067345  0
C  C38  1  0.92123796  0.87714411  0.23927327  1  0  0.786397  0  3.825151  0  0  0.749083  0  4.117898  0  0  0.782218  0  4.11497  0  0  0.213312  0.726203  0  4.12324  0
C  C39  1  0.07873861  0.12284990  0.76073300  1  0  0.786148  0  3.825638  0  0  0.749088  0  4.117937  0  0  0.782226  0  4.115  0  0  0.213272  0.726208  0  4.123276  0
C  C40  1  0.26648563  0.62635144  0.13218769  1  0  -0.459647  0  3.611714  0  0  -0.531903  0  3.837045  0  0  -0.539374  0  3.837741  0  0  -0.242018  -0.526004  0  3.835186  0
C  C41  1  0.73351998  0.37364514  0.86779843  1  0  -0.459669  0  3.611931  0  0  -0.532046  0  3.837319  0  0  -0.539542  0  3.837988  0  0  -0.242098  -0.526156  0  3.835483  0
C  C42  1  0.00319082  0.87789657  0.36091215  1  0  -0.462343  0  3.647107  0  0  -0.539717  0  3.881084  0  0  -0.546344  0  3.882479  0  0  -0.24002  -0.534568  0  3.879562  0
C  C43  1  0.99680106  0.12208637  0.63909078  1  0  -0.462544  0  3.647381  0  0  -0.539855  0  3.881293  0  0  -0.546485  0  3.882685  0  0  -0.240051  -0.534725  0  3.879761  0
O  O44  1  0.60927147  0.08682123  0.19809897  1  0  -0.717124  0  1.991186  0  0  -0.670382  0  2.235  0  0  -0.703352  0  2.223653  0  0  -0.375334  -0.653083  0  2.240705  0
O  O45  1  0.39073521  0.91317602  0.80190387  1  0  -0.717328  0  1.991334  0  0  -0.670587  0  2.235101  0  0  -0.703555  0  2.223756  0  0  -0.375446  -0.653285  0  2.240811  0
O  O46  1  0.77965833  0.80449506  0.24221785  1  0  -0.676675  0  1.89847  0  0  -0.63088  0  2.121048  0  0  -0.661043  0  2.111761  0  0  -0.358073  -0.613642  0  2.125943  0
O  O47  1  0.22033062  0.19549896  0.75778524  1  0  -0.676581  0  1.898265  0  0  -0.630888  0  2.120733  0  0  -0.661038  0  2.11143  0  0  -0.358054  -0.613646  0  2.125629  0
O  O48  1  0.31295316  0.14461152  0.20808116  1  0  -0.749707  0  2.082149  0  0  -0.688719  0  2.322227  0  0  -0.723106  0  2.310122  0  0  -0.369065  -0.669697  0  2.329058  0
O  O49  1  0.68703444  0.85538368  0.79191913  1  0  -0.749793  0  2.082479  0  0  -0.688993  0  2.322609  0  0  -0.72338  0  2.310434  0  0  -0.369293  -0.66998  0  2.329427  0
O  O50  1  0.97264237  0.72601413  0.92894100  1  0  -0.67986  0  2.022167  0  0  -0.63452  0  2.271861  0  0  -0.664982  0  2.260106  0  0  -0.342845  -0.618734  0  2.278694  0
O  O51  1  0.02736059  0.27398148  0.07104063  1  0  -0.680004  0  2.021537  0  0  -0.634507  0  2.271188  0  0  -0.665011  0  2.259522  0  0  -0.342949  -0.61871  0  2.278026  0
O  O52  1  0.39858164  0.87109995  0.08429103  1  0  -0.871856  0  2.117462  0  0  -0.813552  0  2.376002  0  0  -0.854749  0  2.363459  0  0  -0.457506  -0.795419  0  2.38327  0
O  O53  1  0.60142085  0.12889946  0.91571447  1  0  -0.87188  0  2.117503  0  0  -0.813571  0  2.375979  0  0  -0.85477  0  2.363431  0  0  -0.457501  -0.795434  0  2.38324  0
O  O54  1  0.58827427  0.67802445  0.05133265  1  0  -0.677872  0  1.969145  0  0  -0.629846  0  2.201379  0  0  -0.660944  0  2.193116  0  0  -0.361908  -0.612578  0  2.205959  0
O  O55  1  0.41173514  0.32198073  0.94866247  1  0  -0.677947  0  1.969269  0  0  -0.629953  0  2.201494  0  0  -0.661039  0  2.193226  0  0  -0.362008  -0.612682  0  2.20608  0
O  O56  1  0.97606386  0.69889403  0.70651642  1  0  -0.566215  0  2.026758  0  0  -0.516784  0  2.233484  0  0  -0.53983  0  2.217127  0  0  -0.328784  -0.500878  0  2.243868  0
O  O57  1  0.02389526  0.30114281  0.29350447  1  0  -0.565987  0  2.02642  0  0  -0.516423  0  2.233319  0  0  -0.539476  0  2.217232  0  0  -0.32853  -0.500503  0  2.243699  0
O  O58  1  0.99528960  0.95898844  0.13019296  1  0  -0.851462  0  2.101901  0  0  -0.793471  0  2.370966  0  0  -0.834445  0  2.357781  0  0  -0.463591  -0.775332  0  2.37922  0
O  O59  1  0.00470598  0.04101204  0.86981571  1  0  -0.85129  0  2.102304  0  0  -0.793398  0  2.371256  0  0  -0.834375  0  2.358068  0  0  -0.463519  -0.77526  0  2.379503  0
