# generated using pymatgen
data_CuH14Pd(C5N4)2
_symmetry_space_group_name_H-M   'P 1'
_cell_length_a   8.89864917
_cell_length_b   8.97866753
_cell_length_c   10.92850692
_cell_angle_alpha   73.99373284
_cell_angle_beta   72.57516136
_cell_angle_gamma   62.62542039
_symmetry_Int_Tables_number   1
_chemical_formula_structural   CuH14Pd(C5N4)2
_chemical_formula_sum   'Cu2 H28 Pd2 C20 N16'
_cell_volume   729.91984380
_cell_formula_units_Z   2
loop_
 _symmetry_equiv_pos_site_id
 _symmetry_equiv_pos_as_xyz
  1  'x, y, z'
loop_
 _atom_site_type_symbol
 _atom_site_label
 _atom_site_symmetry_multiplicity
 _atom_site_fract_x
 _atom_site_fract_y
 _atom_site_fract_z
 _atom_site_occupancy
 _atom_site_hle17_ddec_charge
 _atom_site_hle17_ddec_spin_density
 _atom_site_hle17_ddec_sum_bond_order
 _atom_site_hle17_magmom
 _atom_site_hse06_10hf_ddec_charge
 _atom_site_hse06_10hf_ddec_spin_density
 _atom_site_hse06_10hf_ddec_sum_bond_order
 _atom_site_hse06_10hf_magmom
 _atom_site_hse06_ddec_charge
 _atom_site_hse06_ddec_spin_density
 _atom_site_hse06_ddec_sum_bond_order
 _atom_site_hse06_magmom
 _atom_site_pbe_cm5_charge
 _atom_site_pbe_ddec_charge
 _atom_site_pbe_ddec_spin_density
 _atom_site_pbe_ddec_sum_bond_order
 _atom_site_pbe_magmom
Cu  Cu0  1  0.85294304  0.13629137  0.76014678  1  0.832116  -0.682955  1.838125  -0.513  0.803328  -0.767896  2.22686  -0.619  0.879344  -0.826383  2.17262  -0.695  0.734763  0.758923  -0.728778  2.262454  -0.571
Cu  Cu1  1  0.14705796  0.86370715  0.23984939  1  0.831994  -0.682962  1.838385  -0.513  0.80315  -0.76787  2.227115  -0.619  0.879192  -0.826389  2.172887  -0.695  0.734731  0.758806  -0.728786  2.262712  -0.571
H  H2  1  0.70070559  0.46502036  0.73311006  1  0.296605  0.001575  0.901001  0.002  0.289974  0.000122  0.954728  0.0  0.294976  0.000408  0.953318  0.001  0.298515  0.286524  -0.000136  0.955833  0.0
H  H3  1  0.29929541  0.53497817  0.26688611  1  0.29663  0.001574  0.90096  0.002  0.28998  0.000122  0.954711  0.0  0.294989  0.000408  0.95329  0.001  0.298509  0.28653  -0.000136  0.955815  0.0
H  H4  1  0.60744539  0.38692789  0.87487969  1  0.297059  0.001494  0.883139  0.001  0.290862  -3.1e-05  0.93766  0.0  0.29583  0.00028  0.936234  0.0  0.300369  0.287407  -0.0003  0.93888  0.0
H  H5  1  0.39255730  0.61306936  0.12511729  1  0.297047  0.001494  0.883189  0.001  0.290846  -3.1e-05  0.937719  0.0  0.295814  0.00028  0.936295  0.0  0.30036  0.28739  -0.0003  0.938939  0.0
H  H6  1  0.89393978  0.35584274  0.55604640  1  0.339684  0.000773  0.918992  0.001  0.325481  -0.000435  0.983956  0.0  0.333496  -0.000147  0.977658  0.0  0.282927  0.31999  -0.000681  0.98835  0.0
H  H7  1  0.10606118  0.64415576  0.44395254  1  0.339667  0.000773  0.919012  0.001  0.325466  -0.000435  0.983972  0.0  0.333481  -0.000147  0.977675  0.0  0.282918  0.319979  -0.000681  0.988362  0.0
H  H8  1  0.07741461  0.24643771  0.60648292  1  0.330703  0.001431  0.905105  0.001  0.321712  5.9e-05  0.963061  0.0  0.327122  0.000269  0.960937  0.0  0.285695  0.318009  -0.000124  0.964645  0.0
H  H9  1  0.92258699  0.75356207  0.39351650  1  0.330698  0.001431  0.905143  0.001  0.321716  6e-05  0.963084  0.0  0.327127  0.000269  0.96096  0.0  0.285691  0.318017  -0.000124  0.964666  0.0
H  H10  1  0.01810612  0.15671874  0.52817484  1  0.331602  0.001584  0.897151  0.001  0.321753  0.000112  0.957042  0.0  0.326893  0.00035  0.955416  0.0  0.288933  0.318217  -9.6e-05  0.958322  0.0
H  H11  1  0.98189720  0.84327977  0.47182354  1  0.331636  0.001584  0.897111  0.001  0.321783  0.000112  0.957005  0.0  0.326924  0.00035  0.955378  0.0  0.288948  0.31825  -9.6e-05  0.958285  0.0
H  H12  1  0.62072312  0.11918986  0.97112607  1  0.337669  0.000576  0.924631  0.001  0.325106  -0.000607  0.986306  0.0  0.333172  -0.000306  0.980028  0.0  0.280288  0.319577  -0.000856  0.990699  -0.001
H  H13  1  0.37927786  0.88080866  0.02887103  1  0.337695  0.000577  0.924699  0.001  0.325144  -0.000607  0.986348  0.0  0.333211  -0.000306  0.980069  0.0  0.280304  0.319616  -0.000855  0.990737  -0.001
H  H14  1  0.70636504  0.94332320  0.90767663  1  0.33066  0.001216  0.902085  0.001  0.323051  -0.000183  0.957936  0.0  0.328506  7.4e-05  0.956001  0.0  0.28622  0.319344  -0.000408  0.959359  0.0
H  H15  1  0.29363659  0.05667660  0.09232004  1  0.330672  0.001217  0.902067  0.001  0.323059  -0.000183  0.957926  0.0  0.328514  7.4e-05  0.955989  0.0  0.286226  0.319352  -0.000408  0.959349  0.0
H  H16  1  0.81856743  0.97165416  0.98745787  1  0.332805  0.001525  0.913266  0.002  0.322933  0.00014  0.973159  0.0  0.3284  0.000353  0.971003  0.001  0.285025  0.319172  -5.6e-05  0.974814  0.0
H  H17  1  0.18143315  0.02834818  0.01253757  1  0.332765  0.001525  0.913273  0.002  0.322891  0.00014  0.973173  0.0  0.328359  0.000353  0.971017  0.001  0.284999  0.319133  -5.6e-05  0.974829  0.0
H  H18  1  0.21802023  0.98168735  0.80338905  1  0.077833  -0.000975  0.967555  -0.002  0.084167  -0.000905  1.034952  -0.001  0.086525  -0.000611  1.031827  -0.001  0.111776  0.082344  -0.00116  1.037402  -0.002
H  H19  1  0.78198418  0.01830863  0.19660780  1  0.077896  -0.000976  0.967543  -0.002  0.084225  -0.000905  1.034937  -0.001  0.086582  -0.000611  1.031814  -0.001  0.111822  0.082401  -0.00116  1.037383  -0.002
H  H20  1  0.47531691  0.70700044  0.79654368  1  0.110395  -0.000827  0.977423  -0.001  0.114941  -0.000846  1.046578  -0.001  0.118524  -0.000621  1.045035  0.0  0.101408  0.112365  -0.001032  1.047874  -0.001
H  H21  1  0.52468567  0.29299426  0.20345480  1  0.110393  -0.000826  0.977449  -0.001  0.114932  -0.000846  1.046613  -0.001  0.118517  -0.000621  1.045065  0.0  0.101393  0.112345  -0.001032  1.047911  -0.001
H  H22  1  0.18024665  0.51559534  0.68177668  1  0.115542  -0.000485  0.954584  -0.001  0.124193  -0.000473  1.015638  0.0  0.126974  -0.000336  1.015133  0.0  0.105346  0.122222  -0.000595  1.016149  -0.001
H  H23  1  0.81975183  0.48440061  0.31822523  1  0.115502  -0.000485  0.954616  -0.001  0.124192  -0.000473  1.01563  0.0  0.126972  -0.000335  1.015125  0.0  0.105344  0.122219  -0.000595  1.016139  -0.001
H  H24  1  0.93132693  0.79701213  0.70249269  1  0.080991  -0.001067  0.9661  -0.002  0.089704  -0.000997  1.02787  -0.001  0.09091  -0.000677  1.02716  -0.001  0.114314  0.088787  -0.001269  1.028522  -0.002
H  H25  1  0.06867218  0.20298508  0.29750971  1  0.080935  -0.001067  0.96612  -0.002  0.089656  -0.000997  1.027897  -0.001  0.090862  -0.000677  1.027189  -0.001  0.114283  0.08874  -0.001269  1.028548  -0.002
H  H26  1  0.45598150  0.31492626  0.76354256  1  0.082614  -0.000233  0.913146  -0.001  0.100525  -0.000186  0.969006  0.0  0.099466  -6.8e-05  0.971067  0.0  0.111876  0.101185  -0.000293  0.967678  -0.001
H  H27  1  0.54402000  0.68507097  0.23645653  1  0.082583  -0.000232  0.91317  -0.001  0.100486  -0.000186  0.969035  0.0  0.099434  -6.7e-05  0.971107  0.0  0.111865  0.101145  -0.000293  0.967703  -0.001
H  H28  1  0.55144652  0.40760119  0.61703313  1  0.091467  0.000105  0.908615  0.0  0.108999  -0.0  0.966179  0.0  0.108509  6.8e-05  0.967806  0.0  0.115602  0.109212  -7e-05  0.965247  0.0
H  H29  1  0.44855381  0.59239605  0.38296532  1  0.091419  0.000106  0.90855  0.0  0.10892  -0.0  0.966156  0.0  0.108439  6.8e-05  0.967789  0.0  0.115571  0.109136  -7e-05  0.965221  0.0
Pd  Pd30  1  0.99999343  0.50001056  0.00000824  1  0.151885  0.000496  3.589551  0.0  0.15297  0.000936  4.128107  0.0  0.150562  0.000752  4.100539  0.0  0.636741  0.1568  0.001056  4.146344  0.0
Pd  Pd31  1  0.49999968  0.99999999  0.50000191  1  0.150756  0.00094  3.566296  0.0  0.146569  0.000915  4.108653  0.0  0.14692  0.000835  4.075301  0.0  0.625332  0.148484  0.000882  4.130722  0.0
C  C32  1  0.24198730  0.36415510  0.02479810  1  0.037578  -0.000267  3.542775  0.0  0.018039  -0.000386  3.886983  0.0  0.02675  -0.000228  3.894394  0.0  -0.034535  0.011547  -0.000538  3.881904  0.0
C  C33  1  0.75800233  0.63585604  0.97521080  1  0.03756  -0.000252  3.542712  0.0  0.017993  -0.000387  3.886965  0.0  0.026707  -0.000226  3.894375  0.0  -0.03447  0.0115  -0.000538  3.881881  0.0
C  C34  1  0.99996162  0.32265223  0.92536033  1  0.045946  0.001699  3.530858  0.001  0.029224  0.001344  3.872685  0.001  0.043232  0.001316  3.876862  0.001  -0.03975  0.019669  0.001355  3.86974  0.001
C  C35  1  0.00002776  0.67735132  0.07464389  1  0.04568  0.001718  3.529961  0.001  0.028866  0.001349  3.871932  0.001  0.042899  0.001319  3.876095  0.001  -0.040034  0.019301  0.001359  3.868997  0.001
C  C36  1  0.64972258  0.03775399  0.57890434  1  0.048323  0.001332  3.540041  0.001  0.032054  0.000974  3.884339  0.001  0.046044  0.000992  3.88711  0.001  -0.038725  0.022561  0.000997  3.882275  0.001
C  C37  1  0.35027965  0.96224705  0.42109649  1  0.048245  0.001341  3.539762  0.001  0.031964  0.000976  3.88407  0.001  0.045952  0.00099  3.886849  0.001  -0.038753  0.022474  0.000997  3.882005  0.001
C  C38  1  0.35125155  0.24728629  0.48411777  1  0.032359  -0.000546  3.549974  0.0  0.014733  -0.000632  3.892499  0.0  0.022632  -0.000413  3.899304  0.0  -0.033582  0.008777  -0.000843  3.887826  -0.001
C  C39  1  0.64874700  0.75271218  0.51588723  1  0.032195  -0.000524  3.550008  0.0  0.014545  -0.000632  3.892582  0.0  0.022445  -0.000413  3.899386  0.0  -0.033674  0.008591  -0.000843  3.887907  -0.001
C  C40  1  0.21561713  0.87398686  0.77763983  1  0.12752  0.010225  3.706669  0.006  0.095707  0.002458  3.971381  0.001  0.104378  0.00418  3.990218  0.002  0.039341  0.090154  0.001128  3.958806  0.0
C  C41  1  0.78438438  0.12601038  0.22235834  1  0.127439  0.010258  3.706731  0.006  0.095634  0.002458  3.971426  0.001  0.104307  0.004179  3.990261  0.002  0.039283  0.090087  0.001128  3.958859  0.0
C  C42  1  0.35964307  0.71923375  0.77211684  1  -0.167099  -0.00841  3.711178  -0.009  -0.186222  -0.004237  3.962985  -0.005  -0.194713  -0.003735  3.983825  -0.004  -0.091995  -0.180616  -0.004687  3.948899  -0.005
C  C43  1  0.64036134  0.28076223  0.22788000  1  -0.167096  -0.008432  3.711345  -0.009  -0.186207  -0.004236  3.96311  -0.005  -0.194704  -0.003736  3.983961  -0.004  -0.091983  -0.180586  -0.004687  3.949022  -0.005
C  C44  1  0.35184887  0.58609889  0.73555078  1  0.131046  0.003958  3.699833  0.001  0.145161  -4.2e-05  3.937634  -0.001  0.150221  0.001557  3.959335  0.0  0.00985  0.141939  -0.001199  3.922662  -0.002
C  C45  1  0.64814973  0.41389960  0.26444963  1  0.130959  0.003991  3.699934  0.001  0.145076  -4.3e-05  3.937719  -0.001  0.15015  0.00156  3.959429  0.0  0.009836  0.14186  -0.001199  3.92274  -0.002
C  C46  1  0.19465956  0.61489787  0.71001527  1  -0.166287  -0.008721  3.715629  -0.01  -0.188489  -0.004101  3.976787  -0.005  -0.19598  -0.003586  3.995115  -0.004  -0.09256  -0.183583  -0.004557  3.964415  -0.005
C  C47  1  0.80534075  0.38509936  0.28998501  1  -0.166235  -0.008741  3.715673  -0.01  -0.18847  -0.004101  3.976844  -0.005  -0.195961  -0.003588  3.995167  -0.004  -0.092538  -0.183563  -0.004557  3.964473  -0.005
C  C48  1  0.05576338  0.77173547  0.72006182  1  0.114098  0.009501  3.724113  0.006  0.082357  0.002204  3.988482  0.001  0.091202  0.003986  4.00653  0.002  0.032654  0.076357  0.000874  3.97719  0.0
C  C49  1  0.94423404  0.22826301  0.27993978  1  0.114174  0.009526  3.724047  0.006  0.082402  0.002204  3.988469  0.001  0.091246  0.003986  4.006518  0.002  0.032669  0.076414  0.000874  3.977178  0.0
C  C50  1  0.50208459  0.41606383  0.72106947  1  0.022386  0.002329  3.67033  0.003  -0.036035  0.00019  3.935254  0.001  -0.031521  0.000992  3.948778  0.002  -0.064355  -0.038885  -0.000494  3.926186  0.001
C  C51  1  0.49791692  0.58393341  0.27892870  1  0.022549  0.002333  3.670164  0.003  -0.035816  0.000188  3.935027  0.001  -0.031352  0.00099  3.948625  0.002  -0.064309  -0.038674  -0.000494  3.925959  0.001
N  N52  1  0.38565455  0.28751733  0.03878454  1  -0.45161  -0.000304  2.812213  0.0  -0.399164  -0.000408  3.053931  0.0  -0.412576  -0.000189  3.065985  0.0  -0.366891  -0.389797  -0.000629  3.045767  0.0
N  N53  1  0.61433512  0.71249136  0.96121207  1  -0.451592  -0.000317  2.812076  0.0  -0.399135  -0.000407  3.053786  0.0  -0.412548  -0.000191  3.065842  0.0  -0.366958  -0.38977  -0.000629  3.045622  0.0
N  N54  1  0.99506121  0.21762157  0.88408362  1  -0.45875  0.000965  2.885161  -0.001  -0.413564  0.001061  3.152806  -0.001  -0.431891  0.001348  3.162466  -0.001  -0.372292  -0.401919  0.000751  3.146711  -0.001
N  N55  1  0.00493651  0.78241495  0.11592604  1  -0.458545  0.000954  2.883885  -0.001  -0.413313  0.001059  3.151476  -0.001  -0.431651  0.001347  3.161146  -0.001  -0.372065  -0.401665  0.00075  3.145386  -0.001
N  N56  1  0.73957339  0.06232071  0.62318635  1  -0.453832  0.000524  2.93493  -0.002  -0.40858  0.000277  3.211281  -0.002  -0.427497  0.000712  3.221792  -0.001  -0.372984  -0.39657  -0.00014  3.204522  -0.002
N  N57  1  0.26043034  0.93767397  0.37681369  1  -0.453752  0.000519  2.934663  -0.002  -0.40849  0.000276  3.210993  -0.002  -0.427406  0.000713  3.221513  -0.001  -0.372965  -0.396487  -0.00014  3.204241  -0.002
N  N58  1  0.26307873  0.39365977  0.47444483  1  -0.437644  -0.00083  2.82221  -0.001  -0.384601  -0.000642  3.061102  -0.001  -0.397711  -0.000375  3.074463  0.0  -0.359634  -0.375369  -0.000904  3.05199  -0.001
N  N59  1  0.73692156  0.60633744  0.52555729  1  -0.437467  -0.00085  2.822238  -0.001  -0.384422  -0.000642  3.061118  -0.001  -0.397533  -0.000376  3.07448  0.0  -0.359532  -0.375192  -0.000904  3.052005  -0.001
N  N60  1  0.06576371  0.90102766  0.75190187  1  -0.297037  -0.076183  3.297297  -0.101  -0.245672  -0.053915  3.583771  -0.075  -0.275606  -0.0433  3.609174  -0.065  -0.339126  -0.226906  -0.061006  3.567335  -0.081
N  N61  1  0.93423898  0.09896958  0.24809602  1  -0.29704  -0.076195  3.29726  -0.101  -0.24566  -0.053916  3.58372  -0.075  -0.275597  -0.043299  3.609127  -0.065  -0.339114  -0.226924  -0.061003  3.567325  -0.081
N  N62  1  0.64836334  0.37826448  0.77797935  1  -0.58108  -0.088984  3.137905  -0.116  -0.56911  -0.059195  3.412733  -0.081  -0.598636  -0.0463  3.417375  -0.069  -0.625311  -0.550545  -0.067407  3.410289  -0.087
N  N63  1  0.35163765  0.62173404  0.22201775  1  -0.581083  -0.088983  3.137898  -0.116  -0.5691  -0.059195  3.412735  -0.081  -0.598625  -0.046298  3.417388  -0.069  -0.625285  -0.550565  -0.067407  3.410333  -0.087
N  N64  1  0.97310705  0.23600070  0.59468754  1  -0.841569  -0.086444  2.980151  -0.109  -0.84184  -0.057586  3.222227  -0.074  -0.873671  -0.045755  3.21274  -0.063  -0.7928  -0.821899  -0.064665  3.229349  -0.079
N  N65  1  0.02689509  0.76399781  0.40531112  1  -0.841566  -0.086447  2.980222  -0.109  -0.841831  -0.057591  3.22226  -0.074  -0.873675  -0.045757  3.212784  -0.063  -0.792803  -0.821911  -0.064667  3.229386  -0.079
N  N66  1  0.73444981  0.03342220  0.92486256  1  -0.843364  -0.084322  2.962651  -0.106  -0.840394  -0.056171  3.198435  -0.072  -0.871942  -0.044645  3.18762  -0.062  -0.791361  -0.820724  -0.063152  3.206453  -0.077
N  N67  1  0.26555182  0.96657759  0.07513411  1  -0.84333  -0.084326  2.962704  -0.106  -0.840355  -0.056175  3.198444  -0.072  -0.871914  -0.044645  3.187637  -0.062  -0.791339  -0.820702  -0.063152  3.206471  -0.077
