# generated using pymatgen
data_CdH12C16(N5O)2
_symmetry_space_group_name_H-M   'P 1'
_cell_length_a   9.44794400
_cell_length_b   10.16826155
_cell_length_c   10.59270688
_cell_angle_alpha   118.68144945
_cell_angle_beta   90.00043604
_cell_angle_gamma   90.00061179
_symmetry_Int_Tables_number   1
_chemical_formula_structural   CdH12C16(N5O)2
_chemical_formula_sum   'Cd2 H24 C32 N20 O4'
_cell_volume   892.77063038
_cell_formula_units_Z   2
loop_
 _symmetry_equiv_pos_site_id
 _symmetry_equiv_pos_as_xyz
  1  'x, y, z'
loop_
 _atom_site_type_symbol
 _atom_site_label
 _atom_site_symmetry_multiplicity
 _atom_site_fract_x
 _atom_site_fract_y
 _atom_site_fract_z
 _atom_site_occupancy
 _atom_site_hle17_bader_spin_density
 _atom_site_hle17_ddec_charge
 _atom_site_hle17_ddec_spin_density
 _atom_site_hle17_ddec_sum_bond_order
 _atom_site_hle17_magmom
 _atom_site_hse06_10hf_bader_spin_density
 _atom_site_hse06_10hf_ddec_charge
 _atom_site_hse06_10hf_ddec_spin_density
 _atom_site_hse06_10hf_ddec_sum_bond_order
 _atom_site_hse06_10hf_magmom
 _atom_site_hse06_bader_spin_density
 _atom_site_hse06_ddec_charge
 _atom_site_hse06_ddec_spin_density
 _atom_site_hse06_ddec_sum_bond_order
 _atom_site_hse06_magmom
 _atom_site_pbe_bader_spin_density
 _atom_site_pbe_cm5_charge
 _atom_site_pbe_ddec_charge
 _atom_site_pbe_ddec_spin_density
 _atom_site_pbe_ddec_sum_bond_order
 _atom_site_pbe_magmom
Cd  Cd0  1  0.49999948  0.50000056  0.00000081  1  0  1.116572  0  1.868472  0  0  0.926506  0  2.347791  0  0  0.972787  0  2.305587  0  0  0.830537  0.894569  0  2.37662  0
Cd  Cd1  1  0.00000076  0.49999663  0.49999898  1  0  1.116573  0  1.868437  0  0  0.926491  0  2.347767  0  0  0.972781  0  2.30555  0  0  0.830518  0.894549  0  2.376595  0
H  H2  1  0.43760551  0.88305886  0.11188318  1  0  0.341981  0  0.906371  0  0  0.325517  0  0.967604  0  0  0.333525  0  0.960886  0  0  0.300162  0.319988  0  0.972011  0
H  H3  1  0.93760525  0.11693474  0.38811498  1  0  0.341962  0  0.906387  0  0  0.325492  0  0.967631  0  0  0.3335  0  0.960913  0  0  0.300153  0.31996  0  0.972039  0
H  H4  1  0.56239452  0.11694198  0.88811884  1  0  0.341989  0  0.906373  0  0  0.325528  0  0.967599  0  0  0.333536  0  0.960882  0  0  0.300156  0.319996  0  0.972012  0
H  H5  1  0.06239161  0.88306055  0.61188158  1  0  0.341983  0  0.906358  0  0  0.325523  0  0.967586  0  0  0.333531  0  0.960869  0  0  0.30016  0.319993  0  0.971991  0
H  H6  1  0.55191694  0.02048791  0.22912350  1  0  0.34403  0  0.926034  0  0  0.323117  0  0.994684  0  0  0.331246  0  0.988051  0  0  0.298667  0.316221  0  1.001466  0
H  H7  1  0.05191754  0.97951014  0.27087893  1  0  0.344022  0  0.92604  0  0  0.323163  0  0.994638  0  0  0.331292  0  0.988004  0  0  0.298653  0.316265  0  1.001427  0
H  H8  1  0.44808204  0.97951071  0.77087652  1  0  0.34402  0  0.926032  0  0  0.323122  0  0.994676  0  0  0.331253  0  0.98804  0  0  0.298653  0.316225  0  1.00146  0
H  H9  1  0.94808144  0.02048741  0.72911776  1  0  0.344027  0  0.926087  0  0  0.323217  0  0.994611  0  0  0.331346  0  0.987975  0  0  0.298671  0.316314  0  1.001415  0
H  H10  1  0.65096773  0.35612062  0.68104492  1  0  0.07408  0  0.947118  0  0  0.083422  0  1.010224  0  0  0.084958  0  1.009777  0  0  0.113508  0.082434  0  1.010511  0
H  H11  1  0.15096488  0.64388346  0.81895588  1  0  0.07409  0  0.946987  0  0  0.083422  0  1.010111  0  0  0.084959  0  1.009662  0  0  0.113506  0.082438  0  1.010393  0
H  H12  1  0.34903231  0.64388026  0.31895522  1  0  0.074077  0  0.947093  0  0  0.083417  0  1.010202  0  0  0.084952  0  1.009755  0  0  0.113516  0.082433  0  1.010485  0
H  H13  1  0.84903621  0.35611638  0.18103906  1  0  0.074071  0  0.946951  0  0  0.083389  0  1.010095  0  0  0.084925  0  1.009647  0  0  0.113501  0.082408  0  1.01038  0
H  H14  1  0.60898821  0.17358531  0.42590288  1  0  0.113201  0  0.97589  0  0  0.120682  0  1.040477  0  0  0.124687  0  1.03816  0  0  0.110706  0.11778  0  1.042104  0
H  H15  1  0.10898750  0.82641602  0.07409865  1  0  0.113234  0  0.975843  0  0  0.120711  0  1.040425  0  0  0.124715  0  1.038108  0  0  0.11073  0.117812  0  1.042047  0
H  H16  1  0.39101077  0.82641445  0.57409674  1  0  0.113209  0  0.975889  0  0  0.120711  0  1.040447  0  0  0.124718  0  1.038124  0  0  0.110724  0.117813  0  1.042066  0
H  H17  1  0.89101466  0.17358382  0.92589629  1  0  0.113207  0  0.975892  0  0  0.120715  0  1.040431  0  0  0.12472  0  1.038114  0  0  0.110729  0.117814  0  1.042057  0
H  H18  1  0.19370111  0.09617607  0.54889840  1  0  0.116084  0  0.953458  0  0  0.123441  0  1.015431  0  0  0.12726  0  1.013716  0  0  0.109218  0.120593  0  1.017024  0
H  H19  1  0.69370195  0.90381871  0.95109546  1  0  0.116035  0  0.953571  0  0  0.123398  0  1.01556  0  0  0.127218  0  1.013845  0  0  0.109187  0.120553  0  1.017157  0
H  H20  1  0.80629893  0.90382592  0.45110322  1  0  0.11607  0  0.95344  0  0  0.123425  0  1.015417  0  0  0.127245  0  1.013701  0  0  0.109216  0.120583  0  1.01701  0
H  H21  1  0.30629915  0.09617771  0.04890070  1  0  0.11602  0  0.953529  0  0  0.123391  0  1.015511  0  0  0.127212  0  1.013794  0  0  0.109203  0.120549  0  1.017101  0
H  H22  1  0.25426037  0.28559838  0.80385749  1  0  0.084777  0  0.950463  0  0  0.091088  0  1.018272  0  0  0.0936  0  1.016511  0  0  0.112858  0.089507  0  1.019084  0
H  H23  1  0.75425475  0.71439522  0.69613620  1  0  0.084791  0  0.950352  0  0  0.091102  0  1.018179  0  0  0.093613  0  1.016418  0  0  0.112868  0.089532  0  1.018977  0
H  H24  1  0.74574072  0.71440247  0.19614453  1  0  0.084776  0  0.950438  0  0  0.091088  0  1.018248  0  0  0.093598  0  1.016485  0  0  0.11286  0.089509  0  1.019063  0
H  H25  1  0.24574423  0.28559783  0.30385931  1  0  0.084771  0  0.950413  0  0  0.091103  0  1.018204  0  0  0.093614  0  1.016445  0  0  0.11291  0.089534  0  1.019002  0
C  C26  1  0.83838545  0.42477623  0.89157294  1  0  0.530108  0  3.964897  0  0  0.484433  0  4.260422  0  0  0.511614  0  4.270558  0  0  0.316554  0.465687  0  4.253553  0
C  C27  1  0.33838850  0.57522882  0.60843239  1  0  0.530166  0  3.964787  0  0  0.484477  0  4.260312  0  0  0.511655  0  4.27044  0  0  0.316584  0.465734  0  4.253445  0
C  C28  1  0.16161564  0.57522795  0.10843255  1  0  0.530128  0  3.96482  0  0  0.484441  0  4.260336  0  0  0.511618  0  4.270469  0  0  0.316573  0.465699  0  4.253468  0
C  C29  1  0.66161259  0.42477312  0.39157204  1  0  0.530168  0  3.964737  0  0  0.484473  0  4.260254  0  0  0.51165  0  4.27038  0  0  0.316578  0.465741  0  4.253389  0
C  C30  1  0.96517460  0.33411853  0.68427834  1  0  0.518048  0  3.972048  0  0  0.475509  0  4.257036  0  0  0.501864  0  4.268044  0  0  0.313219  0.457372  0  4.249275  0
C  C31  1  0.46518257  0.66588423  0.81572675  1  0  0.518144  0  3.97204  0  0  0.475594  0  4.257025  0  0  0.501947  0  4.268022  0  0  0.313237  0.457463  0  4.249276  0
C  C32  1  0.03482332  0.66588336  0.31572890  1  0  0.518056  0  3.971946  0  0  0.475508  0  4.256927  0  0  0.501858  0  4.267935  0  0  0.313241  0.457373  0  4.249178  0
C  C33  1  0.53481853  0.33411886  0.18427633  1  0  0.518005  0  3.972167  0  0  0.475445  0  4.25716  0  0  0.501796  0  4.268162  0  0  0.313204  0.457325  0  4.249407  0
C  C34  1  0.55053799  0.29638416  0.64809459  1  0  0.131083  0  3.709713  0  0  0.100936  0  3.963471  0  0  0.106642  0  3.982801  0  0  0.045194  0.096942  0  3.950544  0
C  C35  1  0.05053399  0.70361817  0.85190566  1  0  0.131157  0  3.709547  0  0  0.101026  0  3.963276  0  0  0.10673  0  3.982606  0  0  0.045275  0.097031  0  3.950341  0
C  C36  1  0.44946311  0.70361784  0.35190609  1  0  0.131151  0  3.709689  0  0  0.101016  0  3.963444  0  0  0.106723  0  3.982773  0  0  0.045226  0.09702  0  3.950516  0
C  C37  1  0.94946710  0.29638165  0.14809021  1  0  0.131223  0  3.709493  0  0  0.101106  0  3.963211  0  0  0.106812  0  3.98254  0  0  0.045289  0.097101  0  3.950294  0
C  C38  1  0.52545832  0.19426083  0.50426842  1  0  -0.122135  0  3.688514  0  0  -0.144622  0  3.937845  0  0  -0.14959  0  3.958594  0  0  -0.077319  -0.141379  0  3.923886  0
C  C39  1  0.02545460  0.80573880  0.99573134  1  0  -0.122197  0  3.688528  0  0  -0.144675  0  3.937843  0  0  -0.149644  0  3.958595  0  0  -0.077362  -0.141432  0  3.923878  0
C  C40  1  0.47454172  0.80574005  0.49573173  1  0  -0.122177  0  3.688586  0  0  -0.14469  0  3.937911  0  0  -0.14966  0  3.95866  0  0  -0.077359  -0.141446  0  3.923945  0
C  C41  1  0.97454544  0.19426102  0.00426453  1  0  -0.122218  0  3.688594  0  0  -0.144722  0  3.937891  0  0  -0.149693  0  3.958643  0  0  -0.077387  -0.141479  0  3.92393  0
C  C42  1  0.39487165  0.12018885  0.46586256  1  0  -0.012087  0  3.718429  0  0  0.008109  0  3.948502  0  0  0.005808  0  3.969895  0  0  0.006789  0.009951  0  3.933733  0
C  C43  1  0.89486867  0.87980741  0.03413468  1  0  -0.012091  0  3.718322  0  0  0.008102  0  3.948385  0  0  0.005801  0  3.969783  0  0  0.006797  0.009952  0  3.933617  0
C  C44  1  0.60512945  0.87981202  0.53413853  1  0  -0.012083  0  3.71839  0  0  0.008116  0  3.948444  0  0  0.005817  0  3.969838  0  0  0.00682  0.009963  0  3.933672  0
C  C45  1  0.10513031  0.12019017  0.96586013  1  0  -0.012051  0  3.7184  0  0  0.008156  0  3.948451  0  0  0.005856  0  3.969847  0  0  0.006801  0.010006  0  3.933669  0
C  C46  1  0.29571421  0.15252951  0.57484200  1  0  -0.109639  0  3.694962  0  0  -0.132232  0  3.943114  0  0  -0.137008  0  3.963569  0  0  -0.075683  -0.129407  0  3.929479  0
C  C47  1  0.79571207  0.84746479  0.92515325  1  0  -0.109567  0  3.695019  0  0  -0.13219  0  3.943206  0  0  -0.136966  0  3.96366  0  0  -0.07567  -0.129369  0  3.929583  0
C  C48  1  0.70428582  0.84747024  0.42515856  1  0  -0.10964  0  3.694915  0  0  -0.132234  0  3.943069  0  0  -0.137009  0  3.963522  0  0  -0.075701  -0.129412  0  3.929445  0
C  C49  1  0.20428797  0.15253276  0.07484344  1  0  -0.109578  0  3.694901  0  0  -0.132211  0  3.943113  0  0  -0.136984  0  3.963564  0  0  -0.075679  -0.129393  0  3.92949  0
C  C50  1  0.32926027  0.25618146  0.71597995  1  0  0.128615  0  3.686939  0  0  0.099933  0  3.938236  0  0  0.105739  0  3.956591  0  0  0.045206  0.096261  0  3.925563  0
C  C51  1  0.82925574  0.74381455  0.78401539  1  0  0.12857  0  3.686901  0  0  0.099883  0  3.938222  0  0  0.105689  0  3.956576  0  0  0.045193  0.096201  0  3.925567  0
C  C52  1  0.67074082  0.74381940  0.28402114  1  0  0.128605  0  3.686915  0  0  0.099922  0  3.93822  0  0  0.10573  0  3.956572  0  0  0.045202  0.096243  0  3.925557  0
C  C53  1  0.17074324  0.25618189  0.21597983  1  0  0.128626  0  3.68692  0  0  0.099926  0  3.938257  0  0  0.10573  0  3.956611  0  0  0.04514  0.096241  0  3.925603  0
C  C54  1  0.35690335  0.00410886  0.31443634  1  0  0.603142  0  3.857158  0  0  0.558043  0  4.142593  0  0  0.586827  0  4.141816  0  0  0.241626  0.538314  0  4.142292  0
C  C55  1  0.85690299  0.99588335  0.18556063  1  0  0.603197  0  3.857019  0  0  0.558117  0  4.142409  0  0  0.586901  0  4.141631  0  0  0.24161  0.538367  0  4.142139  0
C  C56  1  0.64309669  0.99589090  0.68556328  1  0  0.60317  0  3.857146  0  0  0.558109  0  4.142525  0  0  0.586887  0  4.141754  0  0  0.24163  0.538379  0  4.142217  0
C  C57  1  0.14309705  0.00411421  0.81443512  1  0  0.602972  0  3.857166  0  0  0.5579  0  4.142558  0  0  0.586674  0  4.141791  0  0  0.241559  0.538179  0  4.142236  0
N  N58  1  0.74161902  0.47995120  0.96957784  1  0  -0.611702  0  2.814111  0  0  -0.563685  0  3.105473  0  0  -0.58674  0  3.109409  0  0  -0.389455  -0.548421  0  3.103367  0
N  N59  1  0.24161971  0.52005657  0.53043286  1  0  -0.61174  0  2.814216  0  0  -0.563724  0  3.105586  0  0  -0.586776  0  3.109519  0  0  -0.389476  -0.548459  0  3.103479  0
N  N60  1  0.25837996  0.52005411  0.03042724  1  0  -0.611737  0  2.814175  0  0  -0.563719  0  3.105539  0  0  -0.586773  0  3.109471  0  0  -0.389487  -0.548456  0  3.103436  0
N  N61  1  0.75838139  0.47994199  0.46957092  1  0  -0.611712  0  2.814197  0  0  -0.563691  0  3.105553  0  0  -0.586743  0  3.109483  0  0  -0.38947  -0.548431  0  3.103448  0
N  N62  1  0.95164436  0.36653589  0.81691560  1  0  -0.449675  0  3.280155  0  0  -0.393772  0  3.546341  0  0  -0.418956  0  3.553406  0  0  -0.300335  -0.375935  0  3.540702  0
N  N63  1  0.45165506  0.63346777  0.68308888  1  0  -0.449732  0  3.279907  0  0  -0.393779  0  3.546019  0  0  -0.418977  0  3.553118  0  0  -0.300337  -0.37595  0  3.540391  0
N  N64  1  0.04835567  0.63346940  0.18309135  1  0  -0.449651  0  3.279857  0  0  -0.393713  0  3.545996  0  0  -0.418894  0  3.553067  0  0  -0.300306  -0.375881  0  3.540366  0
N  N65  1  0.54834391  0.36653642  0.31691567  1  0  -0.449712  0  3.279953  0  0  -0.393746  0  3.546056  0  0  -0.418934  0  3.553153  0  0  -0.300318  -0.375932  0  3.540435  0
N  N66  1  0.98829957  0.30255814  0.56299310  1  0  -0.627128  0  2.779366  0  0  -0.576683  0  3.045979  0  0  -0.597783  0  3.049683  0  0  -0.389708  -0.561676  0  3.042629  0
N  N67  1  0.48830469  0.69744276  0.93701221  1  0  -0.627187  0  2.779464  0  0  -0.576755  0  3.046109  0  0  -0.597851  0  3.049808  0  0  -0.389706  -0.561745  0  3.042766  0
N  N68  1  0.01169623  0.69743928  0.43701108  1  0  -0.627139  0  2.77945  0  0  -0.576702  0  3.046092  0  0  -0.597804  0  3.049794  0  0  -0.389736  -0.561696  0  3.04275  0
N  N69  1  0.51169640  0.30255921  0.06299034  1  0  -0.627096  0  2.779482  0  0  -0.576665  0  3.046124  0  0  -0.597764  0  3.049826  0  0  -0.389705  -0.561659  0  3.042777  0
N  N70  1  0.45494321  0.32707715  0.75265810  1  0  -0.340065  0  3.25886  0  0  -0.261616  0  3.517017  0  0  -0.280118  0  3.537359  0  0  -0.324049  -0.249318  0  3.503444  0
N  N71  1  0.95493755  0.67292216  0.74733962  1  0  -0.340125  0  3.258932  0  0  -0.261672  0  3.517097  0  0  -0.280174  0  3.53744  0  0  -0.324101  -0.249365  0  3.503516  0
N  N72  1  0.54505789  0.67292485  0.24734258  1  0  -0.340061  0  3.258762  0  0  -0.26162  0  3.516924  0  0  -0.28012  0  3.537263  0  0  -0.324054  -0.249317  0  3.503354  0
N  N73  1  0.04506143  0.32707541  0.25265613  1  0  -0.340151  0  3.258825  0  0  -0.261706  0  3.516997  0  0  -0.280206  0  3.537335  0  0  -0.324087  -0.249403  0  3.503427  0
N  N74  1  0.45240439  0.97499537  0.21096687  1  0  -0.672472  0  3.101789  0  0  -0.633554  0  3.331149  0  0  -0.657339  0  3.327593  0  0  -0.561141  -0.616528  0  3.334925  0
N  N75  1  0.95240541  0.02500074  0.28903257  1  0  -0.672483  0  3.101741  0  0  -0.63362  0  3.331003  0  0  -0.657406  0  3.327449  0  0  -0.561121  -0.616581  0  3.334781  0
N  N76  1  0.54759565  0.02500550  0.78903421  1  0  -0.672501  0  3.101802  0  0  -0.633616  0  3.331124  0  0  -0.6574  0  3.327569  0  0  -0.561133  -0.61658  0  3.334899  0
N  N77  1  0.04759251  0.97499681  0.71096412  1  0  -0.672455  0  3.10169  0  0  -0.63365  0  3.330915  0  0  -0.657432  0  3.327361  0  0  -0.56116  -0.61662  0  3.334692  0
O  O78  1  0.23992760  0.93818363  0.28998012  1  0  -0.59852  0  1.939677  0  0  -0.551322  0  2.161634  0  0  -0.572626  0  2.155358  0  0  -0.311294  -0.535683  0  2.166103  0
O  O79  1  0.73992943  0.06180543  0.21001459  1  0  -0.598566  0  1.939692  0  0  -0.551351  0  2.161647  0  0  -0.572655  0  2.155373  0  0  -0.311275  -0.535691  0  2.166091  0
O  O80  1  0.76007138  0.06181837  0.71002056  1  0  -0.598516  0  1.939656  0  0  -0.551346  0  2.161575  0  0  -0.572647  0  2.1553  0  0  -0.311287  -0.535716  0  2.166063  0
O  O81  1  0.26006955  0.93818989  0.78998010  1  0  -0.598403  0  1.939713  0  0  -0.551182  0  2.161617  0  0  -0.572486  0  2.155341  0  0  -0.311217  -0.535555  0  2.166081  0
