# generated using pymatgen
data_AgH9C9(NO)4
_symmetry_space_group_name_H-M   'P 1'
_cell_length_a   7.46714152
_cell_length_b   10.55256622
_cell_length_c   15.06200000
_cell_angle_alpha   90.00000000
_cell_angle_beta   90.00000000
_cell_angle_gamma   104.44285024
_symmetry_Int_Tables_number   1
_chemical_formula_structural   AgH9C9(NO)4
_chemical_formula_sum   'Ag4 H36 C36 N16 O16'
_cell_volume   1149.33995034
_cell_formula_units_Z   4
loop_
 _symmetry_equiv_pos_site_id
 _symmetry_equiv_pos_as_xyz
  1  'x, y, z'
loop_
 _atom_site_type_symbol
 _atom_site_label
 _atom_site_symmetry_multiplicity
 _atom_site_fract_x
 _atom_site_fract_y
 _atom_site_fract_z
 _atom_site_occupancy
 _atom_site_hle17_bader_spin_density
 _atom_site_hle17_ddec_charge
 _atom_site_hle17_ddec_spin_density
 _atom_site_hle17_ddec_sum_bond_order
 _atom_site_hle17_magmom
 _atom_site_hse06_10hf_bader_spin_density
 _atom_site_hse06_10hf_ddec_charge
 _atom_site_hse06_10hf_ddec_spin_density
 _atom_site_hse06_10hf_ddec_sum_bond_order
 _atom_site_hse06_10hf_magmom
 _atom_site_hse06_bader_spin_density
 _atom_site_hse06_ddec_charge
 _atom_site_hse06_ddec_spin_density
 _atom_site_hse06_ddec_sum_bond_order
 _atom_site_hse06_magmom
 _atom_site_pbe_bader_charge
 _atom_site_pbe_bader_spin_density
 _atom_site_pbe_cm5_charge
 _atom_site_pbe_ddec_charge
 _atom_site_pbe_ddec_spin_density
 _atom_site_pbe_ddec_sum_bond_order
 _atom_site_pbe_magmom
Ag  Ag0  1  0.75008516  0.79120586  0.34548334  1  0  0.566201  0  1.591809  0  0  0.482408  0  2.039662  0  0  0.497544  0  1.997417  0  0.646189  0  0.521186  0.471658  0  2.06884  0
Ag  Ag1  1  0.74991309  0.20879390  0.84548334  1  0  0.566193  0  1.591826  0  0  0.482416  0  2.039642  0  0  0.497539  0  1.997468  0  0.646133  0  0.521192  0.471664  0  2.06882  0
Ag  Ag2  1  0.24991319  0.20879390  0.65451666  1  0  0.566213  0  1.59176  0  0  0.482441  0  2.039589  0  0  0.497574  0  1.997399  0  0.646136  0  0.521195  0.47169  0  2.068769  0
Ag  Ag3  1  0.25008660  0.79120586  0.15451799  1  0  0.56621  0  1.591792  0  0  0.482436  0  2.039604  0  0  0.497573  0  1.99736  0  0.646117  0  0.521194  0.471685  0  2.068783  0
H  H4  1  0.33415667  0.38028892  0.86171956  1  0  0.115565  0  0.952234  0  0  0.125943  0  1.012702  0  0  0.128878  0  1.010783  0  0.099581  0  0.106839  0.123743  0  1.014204  0
H  H5  1  0.16584243  0.61970889  0.36172022  1  0  0.115577  0  0.952266  0  0  0.125953  0  1.012733  0  0  0.12889  0  1.010808  0  0.099611  0  0.106838  0.123753  0  1.014234  0
H  H6  1  0.66583831  0.61970889  0.13827911  1  0  0.115563  0  0.95226  0  0  0.125937  0  1.012728  0  0  0.12887  0  1.01081  0  0.099597  0  0.106835  0.123731  0  1.014236  0
H  H7  1  0.83415657  0.38028892  0.63828044  1  0  0.115583  0  0.952241  0  0  0.125965  0  1.012702  0  0  0.128895  0  1.010814  0  0.09956  0  0.106847  0.123766  0  1.014202  0
H  H8  1  0.41313611  0.57112033  0.96587372  1  0  0.091347  0  0.967427  0  0  0.098137  0  1.037009  0  0  0.101085  0  1.035227  0  0.068452  0  0.099396  0.095862  0  1.038554  0
H  H9  1  0.08686067  0.42887846  0.46587372  1  0  0.091356  0  0.967448  0  0  0.098145  0  1.037034  0  0  0.101093  0  1.035252  0  0.068446  0  0.0994  0.095869  0  1.03858  0
H  H10  1  0.58685922  0.42887846  0.03412561  1  0  0.091344  0  0.967451  0  0  0.098132  0  1.037037  0  0  0.101085  0  1.035249  0  0.068339  0  0.099383  0.095856  0  1.038583  0
H  H11  1  0.91314102  0.57111935  0.53412694  1  0  0.09136  0  0.967509  0  0  0.098146  0  1.037093  0  0  0.101099  0  1.035306  0  0.068339  0  0.099406  0.095871  0  1.038639  0
H  H12  1  0.48196273  0.79858129  0.90986921  1  0  0.103769  0  0.943505  0  0  0.118489  0  0.996825  0  0  0.120854  0  0.995551  0  0.105611  0  0.108319  0.116627  0  0.997897  0
H  H13  1  0.01803370  0.20141652  0.40986921  1  0  0.103771  0  0.943405  0  0  0.118471  0  0.996754  0  0  0.120835  0  0.995482  0  0.105498  0  0.108288  0.116608  0  0.997827  0
H  H14  1  0.51803628  0.20141652  0.09012946  1  0  0.103782  0  0.943426  0  0  0.118527  0  0.996719  0  0  0.120893  0  0.995443  0  0.105567  0  0.108338  0.116664  0  0.997792  0
H  H15  1  0.98196798  0.79858129  0.59013013  1  0  0.103781  0  0.943438  0  0  0.118491  0  0.996771  0  0  0.120856  0  0.995516  0  0.105505  0  0.10834  0.11663  0  0.997842  0
H  H16  1  0.46401895  0.84672460  0.74873456  1  0  0.13024  0  0.961605  0  0  0.137032  0  1.025327  0  0  0.140444  0  1.023104  0  0.155002  0  0.111456  0.134426  0  1.027183  0
H  H17  1  0.03598085  0.15327516  0.24873456  1  0  0.130249  0  0.96158  0  0  0.137038  0  1.025322  0  0  0.140449  0  1.023064  0  0.155007  0  0.111464  0.134431  0  1.027179  0
H  H18  1  0.53598208  0.15327516  0.25126477  1  0  0.130226  0  0.961558  0  0  0.137017  0  1.02529  0  0  0.140433  0  1.023032  0  0.15502  0  0.111447  0.134411  0  1.027147  0
H  H19  1  0.96402018  0.84672460  0.75126477  1  0  0.130181  0  0.96161  0  0  0.13698  0  1.025332  0  0  0.14039  0  1.023095  0  0.155045  0  0.111427  0.134374  0  1.027189  0
H  H20  1  0.56803723  0.64850700  0.50193069  1  0  0.065615  0  0.967428  0  0  0.0653  0  1.053094  0  0  0.066592  0  1.051256  0  0.079776  0  0.102173  0.064242  0  1.054666  0
H  H21  1  0.93196374  0.35149668  0.00192936  1  0  0.065655  0  0.967316  0  0  0.065359  0  1.053033  0  0  0.066653  0  1.051201  0  0.079692  0  0.102225  0.064298  0  1.054605  0
H  H22  1  0.43196449  0.35149472  0.49806931  1  0  0.065603  0  0.967407  0  0  0.065307  0  1.053084  0  0  0.066606  0  1.051253  0  0.079749  0  0.102195  0.064246  0  1.054655  0
H  H23  1  0.06803932  0.64850504  0.99807064  1  0  0.065631  0  0.96735  0  0  0.065307  0  1.053072  0  0  0.066599  0  1.051238  0  0.079735  0  0.102189  0.064246  0  1.054644  0
H  H24  1  0.65602650  0.79756260  0.56431815  1  0  0.084398  0  0.942801  0  0  0.093865  0  1.009814  0  0  0.095361  0  1.008558  0  0.092342  0  0.107006  0.092634  0  1.010982  0
H  H25  1  0.84397347  0.20244205  0.06431682  1  0  0.084362  0  0.94282  0  0  0.093866  0  1.009834  0  0  0.095369  0  1.008547  0  0.092295  0  0.106991  0.092634  0  1.011002  0
H  H26  1  0.34397556  0.20244010  0.43568185  1  0  0.084378  0  0.942791  0  0  0.093862  0  1.009814  0  0  0.095368  0  1.008531  0  0.092293  0  0.106987  0.09263  0  1.010981  0
H  H27  1  0.15602423  0.79755967  0.93568185  1  0  0.084382  0  0.942854  0  0  0.093865  0  1.009856  0  0  0.095364  0  1.008569  0  0.092284  0  0.106996  0.092633  0  1.011024  0
H  H28  1  0.40717572  0.79203666  0.39850883  1  0  0.097743  0  0.952291  0  0  0.104187  0  1.016433  0  0  0.106826  0  1.015482  0  0.091221  0  0.102763  0.102323  0  1.017153  0
H  H29  1  0.09282175  0.20796408  0.89850750  1  0  0.097744  0  0.952285  0  0  0.104197  0  1.016416  0  0  0.106836  0  1.015467  0  0.091141  0  0.102778  0.102333  0  1.017136  0
H  H30  1  0.59282467  0.20796506  0.60149183  1  0  0.097721  0  0.952253  0  0  0.104218  0  1.01635  0  0  0.106852  0  1.01541  0  0.090903  0  0.102792  0.102353  0  1.017071  0
H  H31  1  0.90717760  0.79203470  0.10149316  1  0  0.097754  0  0.952287  0  0  0.104202  0  1.01642  0  0  0.106842  0  1.015467  0  0.091143  0  0.102769  0.102337  0  1.01714  0
H  H32  1  0.75911284  0.98796834  0.47033661  1  0  0.146173  0  0.972582  0  0  0.155772  0  1.035364  0  0  0.158893  0  1.033589  0  0.123343  0  0.100504  0.153564  0  1.036589  0
H  H33  1  0.74088744  0.01203338  0.97033727  1  0  0.146168  0  0.972586  0  0  0.155753  0  1.035383  0  0  0.158877  0  1.033563  0  0.123338  0  0.100502  0.153545  0  1.036608  0
H  H34  1  0.24088988  0.01203240  0.52966339  1  0  0.146184  0  0.972599  0  0  0.155765  0  1.035397  0  0  0.158888  0  1.033592  0  0.123364  0  0.10051  0.153556  0  1.036622  0
H  H35  1  0.25911126  0.98796736  0.02966406  1  0  0.146151  0  0.972606  0  0  0.155732  0  1.035411  0  0  0.158857  0  1.033592  0  0.123361  0  0.100497  0.153524  0  1.036636  0
H  H36  1  0.62024660  0.00795571  0.37033794  1  0  0.146116  0  0.957155  0  0  0.151468  0  1.025295  0  0  0.155152  0  1.022798  0  0.095558  0  0.100142  0.14922  0  1.026338  0
H  H37  1  0.87975334  0.99204503  0.87033860  1  0  0.146085  0  0.957176  0  0  0.151412  0  1.025355  0  0  0.155083  0  1.022874  0  0.095614  0  0.100126  0.149161  0  1.026396  0
H  H38  1  0.37975646  0.99204601  0.62966273  1  0  0.146113  0  0.957076  0  0  0.151459  0  1.025226  0  0  0.155143  0  1.022753  0  0.095598  0  0.100127  0.14921  0  1.02627  0
H  H39  1  0.12024501  0.00795473  0.12966273  1  0  0.14613  0  0.957111  0  0  0.1515  0  1.025234  0  0  0.155188  0  1.022738  0  0.095591  0  0.100152  0.149251  0  1.026277  0
C  C40  1  0.34517162  0.50773395  0.74736091  1  0  0.120907  0  3.821906  0  0  0.120278  0  4.071409  0  0  0.120322  0  4.095492  0  0.431068  0  0.093697  0.120038  0  4.055415  0
C  C41  1  0.15482450  0.49226679  0.24736091  1  0  0.1209  0  3.821754  0  0  0.120265  0  4.071268  0  0  0.120308  0  4.095348  0  0.431065  0  0.093704  0.120024  0  4.055277  0
C  C42  1  0.65482608  0.49226777  0.25263776  1  0  0.120938  0  3.821842  0  0  0.120266  0  4.071392  0  0  0.120311  0  4.095472  0  0.43104  0  0.093672  0.120027  0  4.055396  0
C  C43  1  0.84517420  0.50773395  0.75263843  1  0  0.120858  0  3.821981  0  0  0.120225  0  4.071488  0  0  0.120269  0  4.095572  0  0.431038  0  0.09364  0.119984  0  4.055494  0
C  C44  1  0.35683475  0.48062875  0.83820210  1  0  -0.114671  0  3.702331  0  0  -0.136061  0  3.954096  0  0  -0.137411  0  3.974622  0  0.029058  0  -0.086438  -0.135011  0  3.940253  0
C  C45  1  0.14316336  0.51937003  0.33820210  1  0  -0.114687  0  3.702374  0  0  -0.136068  0  3.954137  0  0  -0.137419  0  3.974663  0  0.029066  0  -0.086439  -0.135019  0  3.940297  0
C  C46  1  0.64316227  0.51937101  0.16179790  1  0  -0.114653  0  3.702339  0  0  -0.136025  0  3.954113  0  0  -0.137375  0  3.974639  0  0.029053  0  -0.086411  -0.134971  0  3.940274  0
C  C47  1  0.85683396  0.48062679  0.66179923  1  0  -0.114665  0  3.702385  0  0  -0.136065  0  3.954164  0  0  -0.137417  0  3.974708  0  0.029085  0  -0.086436  -0.135015  0  3.940322  0
C  C48  1  0.40436807  0.58741535  0.89475966  1  0  -0.071024  0  3.755281  0  0  -0.093518  0  4.022132  0  0  -0.09681  0  4.04478  0  -0.039193  0  -0.094752  -0.091337  0  4.006893  0
C  C49  1  0.09562736  0.41258343  0.39475966  1  0  -0.071029  0  3.755411  0  0  -0.093528  0  4.02226  0  0  -0.09682  0  4.044908  0  -0.039162  0  -0.094766  -0.091347  0  4.00702  0
C  C50  1  0.59562726  0.41258343  0.10523901  1  0  -0.071043  0  3.755323  0  0  -0.093543  0  4.022175  0  0  -0.096838  0  4.044821  0  -0.03918  0  -0.094775  -0.09136  0  4.006934  0
C  C51  1  0.90437501  0.58741633  0.60523835  1  0  -0.071002  0  3.755314  0  0  -0.093496  0  4.022157  0  0  -0.09679  0  4.044801  0  -0.039172  0  -0.094738  -0.091315  0  4.006919  0
C  C52  1  0.44224825  0.71795557  0.86294582  1  0  -0.048561  0  3.734457  0  0  -0.069671  0  3.995121  0  0  -0.069981  0  4.015944  0  -0.025485  0  -0.085144  -0.069345  0  3.981075  0
C  C53  1  0.05774684  0.28204223  0.36294450  1  0  -0.048619  0  3.73447  0  0  -0.069702  0  3.995115  0  0  -0.070012  0  4.015937  0  -0.025421  0  -0.085131  -0.069376  0  3.981067  0
C  C54  1  0.55774942  0.28204223  0.13705418  1  0  -0.048567  0  3.734505  0  0  -0.069695  0  3.995165  0  0  -0.070004  0  4.015986  0  -0.025497  0  -0.085119  -0.06937  0  3.981117  0
C  C55  1  0.94225385  0.71795655  0.63705484  1  0  -0.048584  0  3.734584  0  0  -0.069685  0  3.99524  0  0  -0.069995  0  4.016085  0  -0.025423  0  -0.08515  -0.06936  0  3.981192  0
C  C56  1  0.43109869  0.74690536  0.77364361  1  0  -0.125306  0  3.722617  0  0  -0.145811  0  3.981095  0  0  -0.149174  0  4.000677  0  0.005783  0  -0.087588  -0.143731  0  3.968352  0
C  C57  1  0.06889877  0.25309538  0.27364427  1  0  -0.125249  0  3.722622  0  0  -0.14574  0  3.981061  0  0  -0.149104  0  4.000625  0  0.005606  0  -0.087564  -0.143661  0  3.968316  0
C  C58  1  0.56890035  0.25309636  0.22635507  1  0  -0.125277  0  3.722713  0  0  -0.145773  0  3.981154  0  0  -0.149143  0  4.000725  0  0.005628  0  -0.087599  -0.143693  0  3.968409  0
C  C59  1  0.93110226  0.74690438  0.72635440  1  0  -0.125273  0  3.722742  0  0  -0.145779  0  3.981176  0  0  -0.149153  0  4.000778  0  0.005604  0  -0.087604  -0.143698  0  3.968431  0
C  C60  1  0.38061160  0.63858144  0.71713916  1  0  0.061231  0  3.796978  0  0  0.050395  0  4.044749  0  0  0.052894  0  4.067851  0  0.254391  0  0.106007  0.048715  0  4.029453  0
C  C61  1  0.11938551  0.36141832  0.21713916  1  0  0.061245  0  3.796924  0  0  0.050402  0  4.04471  0  0  0.052902  0  4.06781  0  0.254661  0  0.106023  0.048722  0  4.029413  0
C  C62  1  0.61938843  0.36141930  0.28285951  1  0  0.061113  0  3.797002  0  0  0.050307  0  4.044752  0  0  0.052805  0  4.067855  0  0.254662  0  0.105982  0.048627  0  4.029454  0
C  C63  1  0.88061418  0.63858144  0.78286151  1  0  0.061201  0  3.79685  0  0  0.050383  0  4.044598  0  0  0.052882  0  4.067699  0  0.254578  0  0.106019  0.048703  0  4.0293  0
C  C64  1  0.54722581  0.74512634  0.51903532  1  0  0.041437  0  3.597414  0  0  -0.019957  0  3.863033  0  0  -0.011965  0  3.865965  0  0.32702  0  -0.074414  -0.025306  0  3.860966  0
C  C65  1  0.95277248  0.25487734  0.01903333  1  0  0.04149  0  3.597215  0  0  -0.020065  0  3.863056  0  0  -0.012089  0  3.865997  0  0.327428  0  -0.07447  -0.025406  0  3.860981  0
C  C66  1  0.45277591  0.25487538  0.48096468  1  0  0.04149  0  3.597294  0  0  -0.020003  0  3.863072  0  0  -0.012049  0  3.866044  0  0.327083  0  -0.074415  -0.02534  0  3.86099  0
C  C67  1  0.04722691  0.74512536  0.98096601  1  0  0.041469  0  3.597382  0  0  -0.019974  0  3.863044  0  0  -0.011983  0  3.865969  0  0.327421  0  -0.074424  -0.025312  0  3.860965  0
C  C68  1  0.53138271  0.82554068  0.43905590  1  0  -0.063864  0  3.73938  0  0  -0.067095  0  4.014251  0  0  -0.068379  0  4.029144  0  -0.136087  0  -0.135691  -0.066105  0  4.004008  0
C  C69  1  0.96861791  0.17446202  0.93905590  1  0  -0.063819  0  3.739152  0  0  -0.067002  0  4.014051  0  0  -0.068283  0  4.02895  0  -0.136021  0  -0.135658  -0.066014  0  4.003806  0
C  C70  1  0.46861801  0.17446202  0.56094410  1  0  -0.063806  0  3.739199  0  0  -0.06706  0  4.014126  0  0  -0.068342  0  4.029077  0  -0.1358  0  -0.135685  -0.066073  0  4.003881  0
C  C71  1  0.03138381  0.82553970  0.06094410  1  0  -0.063891  0  3.739333  0  0  -0.067108  0  4.014213  0  0  -0.068392  0  4.029105  0  -0.136001  0  -0.135656  -0.066121  0  4.003969  0
C  C72  1  0.64958650  0.94581774  0.42324061  1  0  -0.252837  0  3.595836  0  0  -0.303451  0  3.867867  0  0  -0.303051  0  3.875716  0  -0.071463  0  -0.203795  -0.303243  0  3.861979  0
C  C73  1  0.85041244  0.05418398  0.92323994  1  0  -0.252842  0  3.59573  0  0  -0.303415  0  3.867794  0  0  -0.302998  0  3.875625  0  -0.071275  0  -0.203818  -0.303205  0  3.861908  0
C  C74  1  0.35041522  0.05418398  0.57675939  1  0  -0.252871  0  3.595711  0  0  -0.303465  0  3.867769  0  0  -0.303067  0  3.875636  0  -0.071194  0  -0.203812  -0.303259  0  3.861888  0
C  C75  1  0.14958760  0.94581676  0.07676072  1  0  -0.252826  0  3.595767  0  0  -0.303424  0  3.867766  0  0  -0.303029  0  3.875594  0  -0.071417  0  -0.20383  -0.303215  0  3.861877  0
N  N76  1  0.35521145  0.62395487  0.62743460  1  0  0.172756  0  3.569188  0  0  0.211895  0  3.851802  0  0  0.208316  0  3.868113  0  -0.259684  0  -0.027813  0.213923  0  3.840925  0
N  N77  1  0.14478701  0.37604489  0.12743460  1  0  0.172744  0  3.569265  0  0  0.211911  0  3.851859  0  0  0.208333  0  3.868168  0  -0.259582  0  -0.027803  0.213939  0  3.840981  0
N  N78  1  0.64479127  0.37604587  0.37256407  1  0  0.172792  0  3.56922  0  0  0.211935  0  3.851821  0  0  0.208357  0  3.868128  0  -0.259607  0  -0.027811  0.213963  0  3.840945  0
N  N79  1  0.85521234  0.62395389  0.87256672  1  0  0.172756  0  3.569296  0  0  0.211905  0  3.851908  0  0  0.208328  0  3.868218  0  -0.25948  0  -0.027823  0.213933  0  3.841032  0
N  N80  1  0.30986490  0.49820862  0.60222148  1  0  -0.111017  0  2.898597  0  0  -0.106339  0  3.186401  0  0  -0.102201  0  3.195828  0  -0.082632  0  -0.074345  -0.108865  0  3.180347  0
N  N81  1  0.19013489  0.50179114  0.10222148  1  0  -0.111024  0  2.898611  0  0  -0.10633  0  3.186397  0  0  -0.102192  0  3.195824  0  -0.082619  0  -0.074348  -0.108857  0  3.180344  0
N  N82  1  0.69013613  0.50179114  0.39777719  1  0  -0.111101  0  2.898857  0  0  -0.106422  0  3.186669  0  0  -0.102285  0  3.196097  0  -0.082592  0  -0.074394  -0.108949  0  3.180615  0
N  N83  1  0.80986480  0.49820862  0.89777785  1  0  -0.11111  0  2.898808  0  0  -0.106419  0  3.186606  0  0  -0.102281  0  3.196032  0  -0.082569  0  -0.07439  -0.108946  0  3.180552  0
N  N84  1  0.30367273  0.42679118  0.67432811  1  0  -0.229988  0  3.185557  0  0  -0.187575  0  3.498866  0  0  -0.196569  0  3.508507  0  -0.589912  0  -0.220009  -0.181887  0  3.492806  0
N  N85  1  0.19632607  0.57320956  0.17432811  1  0  -0.230011  0  3.18556  0  0  -0.187605  0  3.498876  0  0  -0.196598  0  3.508502  0  -0.589923  0  -0.220037  -0.181917  0  3.492818  0
N  N86  1  0.69632428  0.57320858  0.32567189  1  0  -0.229897  0  3.185763  0  0  -0.187479  0  3.499089  0  0  -0.196472  0  3.508718  0  -0.589925  0  -0.219937  -0.181792  0  3.493029  0
N  N87  1  0.80367263  0.42679118  0.82567255  1  0  -0.229898  0  3.185678  0  0  -0.18749  0  3.498991  0  0  -0.196482  0  3.508626  0  -0.589965  0  -0.219957  -0.181801  0  3.492931  0
N  N88  1  0.16288179  0.92735129  0.33105364  1  0  0.686548  0  4.144514  0  0  0.734549  0  4.410739  0  0  0.763054  0  4.417623  0  0.822848  0  0.092051  0.71531  0  4.405533  0
N  N89  1  0.33711766  0.07264749  0.83105298  1  0  0.686579  0  4.144563  0  0  0.734603  0  4.410761  0  0  0.763107  0  4.417653  0  0.822852  0  0.092054  0.715364  0  4.405555  0
N  N90  1  0.83711652  0.07264456  0.66894702  1  0  0.686635  0  4.144817  0  0  0.734689  0  4.411  0  0  0.749036  0  4.438159  0  0.822807  0  0.092042  0.715449  0  4.405793  0
N  N91  1  0.66288203  0.92735227  0.16894901  1  0  0.686667  0  4.14442  0  0  0.734689  0  4.410673  0  0  0.763192  0  4.417551  0  0.822823  0  0.092065  0.715449  0  4.405468  0
O  O92  1  0.36636414  0.72041862  0.56582658  1  0  -0.194258  0  2.080873  0  0  -0.138115  0  2.309301  0  0  -0.148704  0  2.309476  0  -0.584137  0  -0.077652  -0.130591  0  2.308494  0
O  O93  1  0.13363501  0.27958311  0.06582592  1  0  -0.194287  0  2.080794  0  0  -0.13814  0  2.309293  0  0  -0.148724  0  2.30947  0  -0.584647  0  -0.077661  -0.13062  0  2.308485  0
O  O94  1  0.63363724  0.27958213  0.43417342  1  0  -0.194238  0  2.080804  0  0  -0.138079  0  2.309274  0  0  -0.148654  0  2.309456  0  -0.584312  0  -0.077653  -0.13056  0  2.308464  0
O  O95  1  0.86636469  0.72041666  0.93417408  1  0  -0.194211  0  2.080949  0  0  -0.138086  0  2.309417  0  0  -0.148675  0  2.309593  0  -0.584651  0  -0.077615  -0.130566  0  2.308607  0
O  O96  1  0.05956579  0.81519336  0.30582990  1  0  -0.509062  0  1.863442  0  0  -0.495334  0  2.130652  0  0  -0.513055  0  2.116457  0  -0.577339  0  -0.225241  -0.482699  0  2.139999  0
O  O97  1  0.44043500  0.18480542  0.80582858  1  0  -0.509072  0  1.863414  0  0  -0.495362  0  2.130644  0  0  -0.51308  0  2.116463  0  -0.5773  0  -0.225262  -0.482727  0  2.139994  0
O  O98  1  0.94043053  0.18480444  0.69417142  1  0  -0.509112  0  1.863616  0  0  -0.495417  0  2.130811  0  0  -0.508472  0  2.122008  0  -0.577234  0  -0.225299  -0.482783  0  2.140159  0
O  O99  1  0.55956668  0.81519238  0.19417142  1  0  -0.509107  0  1.863396  0  0  -0.495362  0  2.130578  0  0  -0.513075  0  2.116375  0  -0.577319  0  -0.22525  -0.482727  0  2.139925  0
O  O100  1  0.10909693  0.98948022  0.39215509  1  0  -0.450712  0  1.77255  0  0  -0.440643  0  1.978225  0  0  -0.456016  0  1.972519  0  -0.526083  0  -0.174934  -0.429939  0  1.981946  0
O  O101  1  0.39090287  0.01051955  0.89215509  1  0  -0.450687  0  1.772531  0  0  -0.440655  0  1.978225  0  0  -0.456034  0  1.972528  0  -0.526085  0  -0.17493  -0.429952  0  1.981947  0
O  O102  1  0.89090544  0.01051955  0.60784491  1  0  -0.450729  0  1.772602  0  0  -0.440703  0  1.978262  0  0  -0.451276  0  1.978529  0  -0.526086  0  -0.174954  -0.429999  0  1.981983  0
O  O103  1  0.60909384  0.98948315  0.10784889  1  0  -0.450713  0  1.772472  0  0  -0.440671  0  1.978151  0  0  -0.456068  0  1.972491  0  -0.526014  0  -0.174899  -0.429966  0  1.981873  0
O  O104  1  0.31583201  0.96962812  0.29226862  1  0  -0.458757  0  1.787698  0  0  -0.446185  0  2.002814  0  0  -0.462936  0  1.997317  0  -0.535291  0  -0.183731  -0.434258  0  2.006327  0
O  O105  1  0.18416610  0.03037066  0.79226929  1  0  -0.458768  0  1.787744  0  0  -0.446187  0  2.002847  0  0  -0.462952  0  1.997368  0  -0.535311  0  -0.183709  -0.434259  0  2.006358  0
O  O106  1  0.68416894  0.03036381  0.70773204  1  0  -0.458807  0  1.787837  0  0  -0.446163  0  2.002835  0  0  -0.458161  0  2.003156  0  -0.535315  0  -0.183633  -0.434235  0  2.006346  0
O  O107  1  0.81583255  0.96962616  0.20773337  1  0  -0.458841  0  1.78779  0  0  -0.446256  0  2.002893  0  0  -0.463009  0  1.997401  0  -0.535356  0  -0.183758  -0.434327  0  2.006405  0
