# generated using pymatgen
data_UH2C(OF)3
_symmetry_space_group_name_H-M   'P 1'
_cell_length_a   5.99593009
_cell_length_b   8.61322583
_cell_length_c   9.22865878
_cell_angle_alpha   95.63713677
_cell_angle_beta   108.94836378
_cell_angle_gamma   90.00259009
_symmetry_Int_Tables_number   1
_chemical_formula_structural   UH2C(OF)3
_chemical_formula_sum   'U4 H8 C4 O12 F12'
_cell_volume   448.34263106
_cell_formula_units_Z   4
loop_
 _symmetry_equiv_pos_site_id
 _symmetry_equiv_pos_as_xyz
  1  'x, y, z'
loop_
 _atom_site_type_symbol
 _atom_site_label
 _atom_site_symmetry_multiplicity
 _atom_site_fract_x
 _atom_site_fract_y
 _atom_site_fract_z
 _atom_site_occupancy
 _atom_site_hle17_ddec_charge
 _atom_site_hle17_ddec_spin_density
 _atom_site_hle17_ddec_sum_bond_order
 _atom_site_hle17_magmom
 _atom_site_hse06_10hf_bader_charge
 _atom_site_hse06_10hf_bader_spin_density
 _atom_site_hse06_10hf_ddec_charge
 _atom_site_hse06_10hf_ddec_spin_density
 _atom_site_hse06_10hf_ddec_sum_bond_order
 _atom_site_hse06_10hf_magmom
 _atom_site_hse06_ddec_charge
 _atom_site_hse06_ddec_spin_density
 _atom_site_hse06_ddec_sum_bond_order
 _atom_site_hse06_magmom
 _atom_site_pbe_cm5_charge
 _atom_site_pbe_ddec_charge
 _atom_site_pbe_ddec_spin_density
 _atom_site_pbe_ddec_sum_bond_order
 _atom_site_pbe_magmom
U  U0  1  0.29135899  0.63156842  0.34405656  1  2.604846  2.13259  2.457775  2.061  2.861361  1.979411  2.610425  2.024796  2.938619  1.976  2.715179  2.022093  2.871378  1.974  1.640136  2.530731  2.029181  2.989522  1.975
U  U1  1  0.94722363  0.86840467  0.65593225  1  2.605152  2.131399  2.456803  2.06  2.859687  1.979131  2.612813  2.024225  2.934788  1.976  2.71646  2.021677  2.869112  1.974  1.640151  2.531972  2.029306  2.986685  1.975
U  U2  1  0.70864632  0.36843237  0.65594629  1  2.604734  2.132596  2.457867  2.061  2.861645  1.979399  2.610238  2.024797  2.938848  1.976  2.715028  2.022092  2.871564  1.974  1.640185  2.53056  2.029451  2.989728  1.975
U  U3  1  0.05277272  0.13159379  0.34407063  1  2.605172  2.131407  2.456831  2.06  2.859739  1.979137  2.61279  2.024234  2.934894  1.976  2.716431  2.021682  2.869228  1.974  1.640205  2.531902  2.029462  2.986903  1.975
H  H4  1  0.64407675  0.69326050  0.17116542  1  0.460814  -0.00021  0.814664  0.0  0.657041  0.000277  0.437144  -0.000153  0.867888  0.0  0.449278  -0.000143  0.850176  0.0  0.318517  0.428553  -0.000148  0.88044  0.0
H  H5  1  0.47272911  0.80665659  0.82886382  1  0.45993  -0.000211  0.816092  0.0  0.664199  0.000263  0.43652  -0.000156  0.868738  0.0  0.448596  -0.000146  0.85111  0.0  0.31835  0.427911  -0.000148  0.881309  0.0
H  H6  1  0.35594608  0.30673323  0.82882326  1  0.460918  -0.00021  0.814692  0.0  0.65723  0.000276  0.437298  -0.000153  0.867708  0.0  0.44941  -0.000143  0.850027  0.0  0.318679  0.428721  -0.000148  0.880246  0.0
H  H7  1  0.52726344  0.19333721  0.17114107  1  0.459888  -0.000212  0.816035  0.0  0.664162  0.000264  0.436498  -0.000156  0.868721  0.0  0.448571  -0.000146  0.851104  0.0  0.318376  0.427899  -0.000147  0.881283  0.0
H  H8  1  0.61715480  0.84801485  0.26987016  1  0.459419  -0.000159  0.828912  0.001  0.686029  0.00037  0.433046  -0.000118  0.885482  0.0  0.445041  -0.000116  0.867689  0.0  0.303818  0.424409  -0.000127  0.898242  0.0
H  H9  1  0.34709753  0.65194472  0.73011641  1  0.459313  -0.000161  0.829163  0.001  0.681017  0.000369  0.43279  -0.000122  0.885929  0.0  0.444766  -0.000118  0.868166  0.0  0.303808  0.424134  -0.000128  0.898702  0.0
H  H10  1  0.38286727  0.15200227  0.73013125  1  0.459583  -0.000159  0.828766  0.001  0.686154  0.000369  0.433179  -0.000118  0.885351  0.0  0.445166  -0.000116  0.867573  0.0  0.304003  0.424561  -0.000127  0.898086  0.0
H  H11  1  0.65289184  0.34805489  0.26988397  1  0.45935  -0.000161  0.829104  0.001  0.681053  0.00037  0.432825  -0.000122  0.88587  0.0  0.444804  -0.000118  0.868104  0.0  0.303835  0.424175  -0.000127  0.898637  0.0
C  C12  1  0.11155051  0.46055821  0.99265618  1  0.579562  0.000378  3.867801  0.004  1.680104  0.005591  0.535664  0.001467  4.179663  0.004  0.56925  0.00073  4.167641  0.003  0.238955  0.510932  0.003361  4.189602  0.008
C  C13  1  0.11883934  0.03945240  0.00727215  1  0.57821  0.000418  3.866577  0.004  1.634444  0.005766  0.534771  0.001499  4.178551  0.004  0.568265  0.000755  4.166511  0.003  0.23811  0.510064  0.003362  4.188227  0.008
C  C14  1  0.88845647  0.53943668  0.00733242  1  0.579393  0.000375  3.867822  0.004  1.653651  0.00561  0.535672  0.001468  4.179446  0.004  0.569251  0.00073  4.16743  0.003  0.238917  0.51093  0.003362  4.189393  0.008
C  C15  1  0.88114105  0.96054725  0.99273822  1  0.578294  0.00041  3.866563  0.004  1.657586  0.005749  0.534812  0.001498  4.178591  0.004  0.5683  0.000753  4.166556  0.003  0.238157  0.5101  0.00336  4.188268  0.008
O  O16  1  0.29926346  0.48618167  0.10426199  1  -0.576674  -0.02353  2.07738  -0.023  -1.183872  0.00143  -0.554916  -0.00433  2.331569  -0.006  -0.583204  -0.003925  2.323057  -0.005  -0.329261  -0.53531  -0.004411  2.337822  -0.006
O  O17  1  0.19483857  0.01380237  0.89560014  1  -0.575966  -0.023131  2.076783  -0.022  -1.16548  0.001544  -0.554689  -0.004265  2.331023  -0.006  -0.582735  -0.003894  2.322506  -0.005  -0.328907  -0.534768  -0.004431  2.337481  -0.006
O  O18  1  0.70075210  0.51381093  0.89573694  1  -0.576515  -0.023511  2.077579  -0.023  -1.185081  0.001439  -0.554753  -0.004331  2.331638  -0.006  -0.583047  -0.003921  2.323134  -0.005  -0.329162  -0.535146  -0.004409  2.337887  -0.006
O  O19  1  0.80515398  0.98618905  0.10439588  1  -0.575913  -0.023091  2.077099  -0.022  -1.16576  0.00155  -0.554638  -0.004261  2.331409  -0.006  -0.582665  -0.003886  2.322873  -0.005  -0.328887  -0.534725  -0.004417  2.337897  -0.006
O  O20  1  0.08764589  0.37431149  0.86766582  1  -0.624741  -0.017064  2.062842  -0.017  -1.200453  0.003262  -0.600979  -0.002641  2.311856  -0.004  -0.629945  -0.002433  2.30118  -0.004  -0.328077  -0.581013  -0.002636  2.320263  -0.004
O  O21  1  0.21996013  0.12575109  0.13221383  1  -0.624072  -0.016749  2.061688  -0.017  -1.19826  0.003266  -0.60115  -0.002513  2.31105  -0.004  -0.629867  -0.00236  2.300367  -0.003  -0.327786  -0.580718  -0.002609  2.319262  -0.004
O  O22  1  0.91236851  0.62569277  0.13233172  1  -0.624942  -0.017069  2.062816  -0.017  -1.200151  0.00326  -0.601205  -0.002641  2.311757  -0.004  -0.630173  -0.002431  2.301081  -0.004  -0.328161  -0.581231  -0.002637  2.32017  -0.004
O  O23  1  0.78001847  0.87424382  0.86778057  1  -0.624128  -0.016768  2.061296  -0.017  -1.19832  0.003262  -0.60121  -0.002516  2.310673  -0.004  -0.629925  -0.002361  2.299984  -0.003  -0.327812  -0.580779  -0.00262  2.318876  -0.004
O  O24  1  0.53319235  0.74930485  0.21578474  1  -0.878553  -0.015671  1.879087  -0.015  -1.282976  0.000904  -0.860069  -0.004025  2.074521  -0.005  -0.883555  -0.003538  2.038773  -0.004  -0.618771  -0.842266  -0.004802  2.099549  -0.006
O  O25  1  0.31727552  0.75062911  0.78423292  1  -0.877516  -0.015604  1.880184  -0.015  -1.284497  0.000869  -0.859135  -0.00403  2.075181  -0.005  -0.882428  -0.003537  2.039587  -0.004  -0.618422  -0.841314  -0.00481  2.100476  -0.006
O  O26  1  0.46677914  0.25069008  0.78421246  1  -0.878841  -0.015657  1.879091  -0.015  -1.283316  0.000908  -0.860361  -0.004022  2.074589  -0.005  -0.883825  -0.003535  2.038852  -0.004  -0.619131  -0.842576  -0.004796  2.099606  -0.006
O  O27  1  0.68272597  0.24936703  0.21577303  1  -0.877502  -0.015605  1.880132  -0.015  -1.284475  0.000869  -0.859132  -0.004029  2.075239  -0.005  -0.882426  -0.00354  2.039636  -0.004  -0.61844  -0.841295  -0.004802  2.100537  -0.006
F  F28  1  0.02800536  0.70933406  0.46558151  1  -0.665025  -0.032007  0.917057  -0.034  -0.726596  -4.6e-05  -0.663845  -0.007707  1.136367  -0.011  -0.690723  -0.006348  1.115229  -0.009  -0.418432  -0.642894  -0.010241  1.151647  -0.014
F  F29  1  0.56240186  0.79055315  0.53453999  1  -0.664496  -0.032157  0.916691  -0.034  -0.72606  -0.000198  -0.663334  -0.007767  1.135917  -0.011  -0.690296  -0.006386  1.114863  -0.009  -0.418262  -0.642548  -0.010237  1.151449  -0.014
F  F30  1  0.97199845  0.29067257  0.53442370  1  -0.665048  -0.032007  0.917151  -0.034  -0.726566  -5e-05  -0.663842  -0.007706  1.136442  -0.011  -0.690725  -0.006348  1.115301  -0.009  -0.418441  -0.642869  -0.010232  1.151727  -0.014
F  F31  1  0.43759857  0.20945580  0.46546144  1  -0.664478  -0.032156  0.916672  -0.034  -0.72602  -0.000199  -0.663301  -0.007767  1.135909  -0.011  -0.690271  -0.006385  1.114856  -0.009  -0.418263  -0.642492  -0.010227  1.151444  -0.014
F  F32  1  0.61269806  0.48143339  0.40435836  1  -0.678346  -0.021849  0.924562  -0.024  -0.743647  0.003298  -0.664384  -0.003933  1.124688  -0.007  -0.690367  -0.003478  1.104348  -0.006  -0.379323  -0.644265  -0.00457  1.138286  -0.007
F  F33  1  0.20825297  0.01864800  0.59559936  1  -0.678848  -0.021726  0.923679  -0.024  -0.742121  0.003225  -0.66538  -0.003965  1.123343  -0.007  -0.691103  -0.003487  1.103177  -0.006  -0.379411  -0.645121  -0.004564  1.137464  -0.007
F  F34  1  0.38731101  0.51857089  0.59564127  1  -0.678331  -0.021849  0.924542  -0.024  -0.743702  0.003297  -0.664385  -0.003933  1.124687  -0.007  -0.690368  -0.003479  1.104346  -0.006  -0.379329  -0.644265  -0.004571  1.138285  -0.007
F  F35  1  0.79174557  0.98135862  0.40440254  1  -0.678878  -0.021731  0.92383  -0.024  -0.742073  0.003224  -0.665403  -0.003965  1.123499  -0.007  -0.691126  -0.003487  1.103325  -0.006  -0.379387  -0.645134  -0.004564  1.137627  -0.007
F  F36  1  0.10801692  0.39211407  0.30975956  1  -0.681514  -0.022259  0.918099  -0.025  -0.733479  0.005579  -0.672508  -0.00315  1.130186  -0.006  -0.701172  -0.002687  1.111901  -0.005  -0.427649  -0.649191  -0.005786  1.142947  -0.01
F  F37  1  0.79817689  0.10790526  0.69020098  1  -0.681352  -0.02232  0.917286  -0.025  -0.734398  0.005688  -0.672674  -0.00312  1.129644  -0.006  -0.701332  -0.002668  1.11135  -0.005  -0.427611  -0.649218  -0.00579  1.142179  -0.01
F  F38  1  0.89197629  0.60789138  0.69024000  1  -0.681518  -0.022257  0.918136  -0.025  -0.733458  0.00558  -0.672501  -0.003149  1.130226  -0.006  -0.701173  -0.002686  1.111941  -0.005  -0.427652  -0.649194  -0.005794  1.142973  -0.01
F  F39  1  0.20182158  0.89210019  0.30980189  1  -0.68138  -0.022324  0.917303  -0.025  -0.73434  0.005686  -0.672692  -0.003121  1.129638  -0.006  -0.701345  -0.002667  1.111345  -0.005  -0.427625  -0.649222  -0.005792  1.142175  -0.01
