# generated using pymatgen
data_CuH10C11S2IN2
_symmetry_space_group_name_H-M   'P 1'
_cell_length_a   8.83938754
_cell_length_b   8.86379410
_cell_length_c   17.12250000
_cell_angle_alpha   87.14284852
_cell_angle_beta   87.13495302
_cell_angle_gamma   80.70509023
_symmetry_Int_Tables_number   1
_chemical_formula_structural   CuH10C11S2IN2
_chemical_formula_sum   'Cu4 H40 C44 S8 I4 N8'
_cell_volume   1321.09911974
_cell_formula_units_Z   4
loop_
 _symmetry_equiv_pos_site_id
 _symmetry_equiv_pos_as_xyz
  1  'x, y, z'
loop_
 _atom_site_type_symbol
 _atom_site_label
 _atom_site_symmetry_multiplicity
 _atom_site_fract_x
 _atom_site_fract_y
 _atom_site_fract_z
 _atom_site_occupancy
 _atom_site_hle17_bader_spin_density
 _atom_site_hle17_ddec_charge
 _atom_site_hle17_ddec_spin_density
 _atom_site_hle17_ddec_sum_bond_order
 _atom_site_hle17_magmom
 _atom_site_hse06_10hf_bader_spin_density
 _atom_site_hse06_10hf_ddec_charge
 _atom_site_hse06_10hf_ddec_spin_density
 _atom_site_hse06_10hf_ddec_sum_bond_order
 _atom_site_hse06_10hf_magmom
 _atom_site_hse06_bader_spin_density
 _atom_site_hse06_ddec_charge
 _atom_site_hse06_ddec_spin_density
 _atom_site_hse06_ddec_sum_bond_order
 _atom_site_hse06_magmom
 _atom_site_pbe_bader_charge
 _atom_site_pbe_bader_spin_density
 _atom_site_pbe_cm5_charge
 _atom_site_pbe_ddec_charge
 _atom_site_pbe_ddec_spin_density
 _atom_site_pbe_ddec_sum_bond_order
 _atom_site_pbe_magmom
Cu  Cu0  1  0.06911569  0.00357341  0.42878109  1  0  0.314648  0  2.044118  0  0  0.211146  0  2.520235  0  0  0.219215  0  2.470168  0  0.51676  0  0.363234  0.209636  0  2.551212  0
Cu  Cu1  1  0.99637192  0.93072146  0.07096814  1  0  0.314169  0  2.048322  0  0  0.211105  0  2.524866  0  0  0.219053  0  2.474893  0  0.516136  0  0.363642  0.209645  0  2.555766  0
Cu  Cu2  1  0.93088349  0.99642848  0.57121597  1  0  0.314681  0  2.044136  0  0  0.211143  0  2.520297  0  0  0.219237  0  2.470226  0  0.516544  0  0.363242  0.209623  0  2.551275  0
Cu  Cu3  1  0.00362928  0.06926784  0.92903386  1  0  0.314172  0  2.04812  0  0  0.211148  0  2.524667  0  0  0.219113  0  2.474699  0  0.515907  0  0.36365  0.209679  0  2.555567  0
H  H4  1  0.74978942  0.72573959  0.12295193  1  0  0.124142  0  0.964162  0  0  0.133833  0  1.032592  0  0  0.135644  0  1.031838  0  0.136691  0  0.101607  0.132413  0  1.033283  0
H  H5  1  0.27366376  0.25113525  0.37723642  1  0  0.123968  0  0.964766  0  0  0.133581  0  1.033184  0  0  0.135379  0  1.032474  0  0.136363  0  0.101516  0.132192  0  1.033825  0
H  H6  1  0.25021411  0.27426344  0.87704557  1  0  0.124169  0  0.964208  0  0  0.133837  0  1.032664  0  0  0.135676  0  1.03188  0  0.136749  0  0.101615  0.13242  0  1.03335  0
H  H7  1  0.72633561  0.74886549  0.62276591  1  0  0.123989  0  0.964738  0  0  0.13357  0  1.033182  0  0  0.135356  0  1.032484  0  0.136387  0  0.101507  0.132182  0  1.033825  0
H  H8  1  0.89005268  0.56115567  0.13235158  1  0  0.124134  0  0.938439  0  0  0.138425  0  0.999421  0  0  0.140124  0  0.99811  0  0.134337  0  0.104588  0.137095  0  1.000512  0
H  H9  1  0.43868198  0.11126198  0.36780091  1  0  0.124558  0  0.938321  0  0  0.139017  0  0.99903  0  0  0.140799  0  0.997588  0  0.140977  0  0.10469  0.137654  0  1.000167  0
H  H10  1  0.10995103  0.43884622  0.86764886  1  0  0.124086  0  0.938542  0  0  0.138432  0  0.999448  0  0  0.140132  0  0.998137  0  0.134282  0  0.104602  0.137102  0  1.000542  0
H  H11  1  0.56131607  0.88873991  0.63220494  1  0  0.124568  0  0.938383  0  0  0.139023  0  0.999079  0  0  0.140804  0  0.997637  0  0.14095  0  0.104694  0.137658  0  1.000221  0
H  H12  1  0.03926235  0.11884474  0.26502230  1  0  0.068166  0  0.953844  0  0  0.074536  0  1.026672  0  0  0.077721  0  1.022223  0  0.105303  0  0.106066  0.072059  0  1.030053  0
H  H13  1  0.88137939  0.96000099  0.23491033  1  0  0.067995  0  0.953372  0  0  0.07474  0  1.025864  0  0  0.077973  0  1.021417  0  0.105704  0  0.106062  0.072236  0  1.029239  0
H  H14  1  0.96072989  0.88116515  0.73497764  1  0  0.068122  0  0.953729  0  0  0.074518  0  1.026563  0  0  0.077701  0  1.022116  0  0.105167  0  0.106062  0.072038  0  1.029941  0
H  H15  1  0.11862849  0.04000319  0.76509286  1  0  0.068055  0  0.953422  0  0  0.074769  0  1.025943  0  0  0.078006  0  1.021488  0  0.105808  0  0.106042  0.072267  0  1.029317  0
H  H16  1  0.92497534  0.34813678  0.19312818  1  0  0.10324  0  1.001903  0  0  0.111757  0  1.068011  0  0  0.115231  0  1.066831  0  0.057287  0  0.088066  0.109255  0  1.068929  0
H  H17  1  0.65200366  0.07512855  0.30697823  1  0  0.103414  0  1.001886  0  0  0.11176  0  1.068197  0  0  0.115197  0  1.067118  0  0.056594  0  0.08813  0.10928  0  1.069047  0
H  H18  1  0.07501668  0.65186740  0.80686842  1  0  0.103209  0  1.001945  0  0  0.111794  0  1.067995  0  0  0.115266  0  1.066817  0  0.057364  0  0.088073  0.109294  0  1.068912  0
H  H19  1  0.34799983  0.92486761  0.69302703  1  0  0.103408  0  1.00188  0  0  0.111752  0  1.068201  0  0  0.115189  0  1.067121  0  0.056721  0  0.088161  0.109274  0  1.069049  0
H  H20  1  0.83190419  0.56698320  0.41626261  1  0  0.103775  0  0.978987  0  0  0.112502  0  1.044443  0  0  0.116414  0  1.042538  0  0.09154  0  0.090866  0.109661  0  1.045915  0
H  H21  1  0.43228413  0.16890451  0.08395677  1  0  0.103803  0  0.980757  0  0  0.112569  0  1.046063  0  0  0.116496  0  1.044103  0  0.104513  0  0.090519  0.109703  0  1.047576  0
H  H22  1  0.16809711  0.43302670  0.58373768  1  0  0.103767  0  0.979025  0  0  0.112496  0  1.044479  0  0  0.11641  0  1.042576  0  0.091636  0  0.090874  0.109657  0  1.045949  0
H  H23  1  0.56771447  0.83109394  0.91604564  1  0  0.103795  0  0.980713  0  0  0.112557  0  1.046024  0  0  0.116483  0  1.044069  0  0.10446  0  0.09051  0.109692  0  1.047536  0
H  H24  1  0.94967024  0.31919594  0.47944536  1  0  0.074306  0  0.964781  0  0  0.081202  0  1.032529  0  0  0.08392  0  1.029963  0  0.114672  0  0.101909  0.079082  0  1.034562  0
H  H25  1  0.68017603  0.05038930  0.02064698  1  0  0.074445  0  0.964002  0  0  0.081555  0  1.03144  0  0  0.084273  0  1.028902  0  0.072349  0  0.10229  0.079425  0  1.033487  0
H  H26  1  0.05032952  0.68080938  0.52055392  1  0  0.074287  0  0.964799  0  0  0.081206  0  1.03252  0  0  0.08393  0  1.02994  0  0.114706  0  0.101915  0.079086  0  1.034555  0
H  H27  1  0.31982882  0.94961258  0.97935635  1  0  0.074447  0  0.964081  0  0  0.081581  0  1.031505  0  0  0.084304  0  1.028958  0  0.072334  0  0.102294  0.079447  0  1.03355  0
H  H28  1  0.26141298  0.95388855  0.16714261  1  0  0.060624  0  0.986917  0  0  0.063536  0  1.065051  0  0  0.066686  0  1.061792  0  0.075994  0  0.09499  0.061114  0  1.067546  0
H  H29  1  0.04551220  0.73886040  0.33277469  1  0  0.059923  0  0.987874  0  0  0.062437  0  1.066669  0  0  0.065614  0  1.063404  0  0.120834  0  0.094471  0.060049  0  1.069129  0
H  H30  1  0.73858050  0.04610647  0.83285651  1  0  0.060537  0  0.987017  0  0  0.063445  0  1.065152  0  0  0.06661  0  1.061885  0  0.075965  0  0.094947  0.061034  0  1.067638  0
H  H31  1  0.95448716  0.26114034  0.66722005  1  0  0.059932  0  0.987912  0  0  0.062492  0  1.066632  0  0  0.065671  0  1.063363  0  0.121044  0  0.094448  0.060093  0  1.0691  0
H  H32  1  0.51591104  0.80304102  0.18829984  1  0  0.103332  0  0.982117  0  0  0.113359  0  1.044738  0  0  0.115764  0  1.045667  0  0.088949  0  0.09686  0.111641  0  1.044274  0
H  H33  1  0.19631050  0.48480966  0.31175086  1  0  0.103203  0  0.982865  0  0  0.113451  0  1.045333  0  0  0.115897  0  1.046114  0  0.090482  0  0.096818  0.111698  0  1.044966  0
H  H34  1  0.48408887  0.19695629  0.81169673  1  0  0.103372  0  0.982157  0  0  0.113414  0  1.044732  0  0  0.115819  0  1.045659  0  0.088806  0  0.096874  0.111696  0  1.044269  0
H  H35  1  0.80369113  0.51519108  0.68824558  1  0  0.103145  0  0.982886  0  0  0.113381  0  1.045373  0  0  0.115828  0  1.046155  0  0.090508  0  0.096769  0.111637  0  1.045002  0
H  H36  1  0.36808510  0.43689417  0.06693941  1  0  0.105342  0  0.966919  0  0  0.113189  0  1.034369  0  0  0.116696  0  1.033001  0  0.068426  0  0.095662  0.110679  0  1.035458  0
H  H37  1  0.56356785  0.63158490  0.43326627  1  0  0.105307  0  0.967461  0  0  0.112967  0  1.034964  0  0  0.116586  0  1.033412  0  0.063495  0  0.095624  0.110386  0  1.036171  0
H  H38  1  0.63192176  0.56309513  0.93306069  1  0  0.105343  0  0.966849  0  0  0.113205  0  1.034285  0  0  0.11671  0  1.032922  0  0.068231  0  0.095663  0.110695  0  1.035373  0
H  H39  1  0.43643074  0.36841356  0.56673323  1  0  0.105304  0  0.967493  0  0  0.112965  0  1.034981  0  0  0.116585  0  1.033426  0  0.0634  0  0.095627  0.110385  0  1.036188  0
H  H40  1  0.11989225  0.60256854  0.05214301  1  0  0.067547  0  0.980673  0  0  0.071282  0  1.057118  0  0  0.074703  0  1.053434  0  0.085482  0  0.091465  0.068592  0  1.059975  0
H  H41  1  0.39803113  0.87946827  0.44782239  1  0  0.067873  0  0.980899  0  0  0.071185  0  1.057703  0  0  0.074683  0  1.053925  0  0.086473  0  0.091326  0.068495  0  1.060571  0
H  H42  1  0.88011384  0.39741847  0.94785775  1  0  0.067549  0  0.980677  0  0  0.07127  0  1.05714  0  0  0.07469  0  1.053459  0  0.085558  0  0.091455  0.068626  0  1.059959  0
H  H43  1  0.60196633  0.12053018  0.55217713  1  0  0.067815  0  0.980951  0  0  0.07114  0  1.057742  0  0  0.074643  0  1.053962  0  0.086441  0  0.09131  0.068451  0  1.06061  0
C  C44  1  0.77592973  0.61415266  0.15427460  1  0  -0.218496  0  3.649301  0  0  -0.247871  0  3.914855  0  0  -0.245395  0  3.920931  0  -0.269902  0  -0.142681  -0.249597  0  3.91088  0
C  C45  1  0.38555048  0.22507900  0.34588574  1  0  -0.218685  0  3.650684  0  0  -0.247898  0  3.915598  0  0  -0.245432  0  3.921687  0  -0.268537  0  -0.142925  -0.24957  0  3.911461  0
C  C46  1  0.22407171  0.38584923  0.84572473  1  0  -0.218506  0  3.649465  0  0  -0.247913  0  3.91505  0  0  -0.245456  0  3.921103  0  -0.270026  0  -0.142685  -0.249641  0  3.911077  0
C  C47  1  0.61445020  0.77492059  0.65411483  1  0  -0.218738  0  3.650695  0  0  -0.247861  0  3.915446  0  0  -0.245393  0  3.921565  0  -0.268495  0  -0.142913  -0.24955  0  3.911348  0
C  C48  1  0.98942772  0.21913934  0.29720279  1  0  0.121409  0  3.731687  0  0  0.091886  0  3.986755  0  0  0.100252  0  4.001858  0  0.413962  0  0.030226  0.086394  0  3.976777  0
C  C49  1  0.78086517  0.01020876  0.20282165  1  0  0.122364  0  3.730922  0  0  0.092553  0  3.985884  0  0  0.100836  0  4.001021  0  0.411795  0  0.030935  0.087104  0  3.975878  0
C  C50  1  0.01056828  0.78086827  0.70279653  1  0  0.121511  0  3.731514  0  0  0.091944  0  3.986582  0  0  0.100313  0  4.001689  0  0.413947  0  0.030212  0.086459  0  3.976595  0
C  C51  1  0.21913855  0.98979313  0.79718171  1  0  0.122211  0  3.731177  0  0  0.092398  0  3.986121  0  0  0.100682  0  4.001257  0  0.411499  0  0.03088  0.086945  0  3.976123  0
C  C52  1  0.92416128  0.35096873  0.25661998  1  0  -0.175245  0  3.745096  0  0  -0.194163  0  3.991814  0  0  -0.202685  0  4.012866  0  0.067993  0  -0.102775  -0.188703  0  3.977818  0
C  C53  1  0.64899089  0.07591349  0.24348601  1  0  -0.175664  0  3.744417  0  0  -0.194356  0  3.99143  0  0  -0.202903  0  4.012513  0  0.078007  0  -0.102874  -0.188884  0  3.977418  0
C  C54  1  0.07583395  0.64903659  0.74337767  1  0  -0.175193  0  3.745166  0  0  -0.19424  0  3.991897  0  0  -0.202761  0  4.012945  0  0.068062  0  -0.102718  -0.188776  0  3.977905  0
C  C55  1  0.35101374  0.92408268  0.75651806  1  0  -0.175735  0  3.744374  0  0  -0.194374  0  3.991398  0  0  -0.202922  0  4.012481  0  0.078291  0  -0.102892  -0.1889  0  3.97738  0
C  C56  1  0.86337107  0.48020645  0.29869142  1  0  0.075695  0  3.808153  0  0  0.090292  0  4.064399  0  0  0.098731  0  4.083743  0  -0.196962  0  0.001033  0.084703  0  4.051002  0
C  C57  1  0.51948581  0.13715003  0.20147595  1  0  0.077047  0  3.807524  0  0  0.091115  0  4.064376  0  0  0.099584  0  4.083696  0  -0.207494  0  0.000968  0.085524  0  4.050975  0
C  C58  1  0.13662135  0.51980230  0.70130796  1  0  0.075677  0  3.808349  0  0  0.090394  0  4.064452  0  0  0.098834  0  4.083797  0  -0.19702  0  0.001082  0.084792  0  4.051076  0
C  C59  1  0.48051824  0.86284271  0.79852647  1  0  0.077105  0  3.807211  0  0  0.091101  0  4.06419  0  0  0.099568  0  4.083509  0  -0.207705  0  0.0009  0.085509  0  4.050788  0
C  C60  1  0.87365654  0.46872532  0.38071030  1  0  -0.175109  0  3.741201  0  0  -0.19037  0  3.987614  0  0  -0.198899  0  4.007166  0  0.036273  0  -0.099674  -0.18486  0  3.974643  0
C  C61  1  0.53073766  0.12684401  0.11946585  1  0  -0.176271  0  3.742496  0  0  -0.191413  0  3.988901  0  0  -0.199932  0  4.008426  0  0.022901  0  -0.099942  -0.185894  0  3.975931  0
C  C62  1  0.12633891  0.53128572  0.61928895  1  0  -0.175102  0  3.741243  0  0  -0.190416  0  3.987667  0  0  -0.198946  0  4.007219  0  0.036344  0  -0.09973  -0.184904  0  3.974701  0
C  C63  1  0.46926321  0.87315445  0.88053592  1  0  -0.17627  0  3.742333  0  0  -0.191383  0  3.988765  0  0  -0.199907  0  4.008298  0  0.022882  0  -0.099899  -0.185862  0  3.975792  0
C  C64  1  0.94003643  0.33188652  0.41613273  1  0  0.126442  0  3.702624  0  0  0.098384  0  3.948859  0  0  0.106398  0  3.964541  0  0.394562  0  0.03073  0.093003  0  3.938744  0
C  C65  1  0.66762567  0.05998933  0.08397264  1  0  0.126936  0  3.702931  0  0  0.0988  0  3.949096  0  0  0.106793  0  3.964738  0  0.449486  0  0.030494  0.093417  0  3.938994  0
C  C66  1  0.05995862  0.66811994  0.58386606  1  0  0.126556  0  3.70249  0  0  0.098465  0  3.948762  0  0  0.106483  0  3.964448  0  0.394449  0  0.030805  0.093085  0  3.938642  0
C  C67  1  0.33238126  0.94001370  0.91603061  1  0  0.126924  0  3.702937  0  0  0.098755  0  3.949075  0  0  0.106748  0  3.964717  0  0.44937  0  0.030448  0.093376  0  3.93897  0
C  C68  1  0.28935230  0.83800620  0.14611446  1  0  0.122091  0  3.715141  0  0  0.097434  0  3.958643  0  0  0.105343  0  3.97471  0  0.501447  0  0.027722  0.092133  0  3.948302  0
C  C69  1  0.16163037  0.71081549  0.35387248  1  0  0.122488  0  3.715389  0  0  0.09768  0  3.959276  0  0  0.105529  0  3.975365  0  0.451546  0  0.027627  0.092365  0  3.94892  0
C  C70  1  0.71064209  0.16198310  0.85388655  1  0  0.12216  0  3.715034  0  0  0.097558  0  3.958579  0  0  0.105451  0  3.974642  0  0.501512  0  0.027751  0.092249  0  3.948231  0
C  C71  1  0.83836881  0.28918640  0.64612398  1  0  0.122309  0  3.715537  0  0  0.097483  0  3.959372  0  0  0.105334  0  3.975461  0  0.451399  0  0.027631  0.092181  0  3.949022  0
C  C72  1  0.43377727  0.75311971  0.15673057  1  0  -0.17031  0  3.731453  0  0  -0.185449  0  3.970065  0  0  -0.194361  0  3.992123  0  -0.056107  0  -0.100226  -0.179759  0  3.95548  0
C  C73  1  0.24652447  0.56664336  0.34330455  1  0  -0.170662  0  3.732256  0  0  -0.185936  0  3.970739  0  0  -0.194824  0  3.992822  0  -0.048921  0  -0.100287  -0.180257  0  3.956156  0
C  C74  1  0.56622246  0.24687874  0.84326831  1  0  -0.17045  0  3.731683  0  0  -0.185583  0  3.970266  0  0  -0.194494  0  3.992325  0  -0.055987  0  -0.100242  -0.179896  0  3.955689  0
C  C75  1  0.75347376  0.43335738  0.65669373  1  0  -0.170442  0  3.732246  0  0  -0.185739  0  3.970746  0  0  -0.194625  0  3.992824  0  -0.048906  0  -0.100208  -0.180068  0  3.956139  0
C  C76  1  0.46910308  0.60642915  0.12657106  1  0  0.080597  0  3.789577  0  0  0.096006  0  4.044442  0  0  0.105154  0  4.062957  0  -0.16763  0  0.001986  0.089869  0  4.031692  0
C  C77  1  0.39353103  0.53115642  0.37352606  1  0  0.08091  0  3.788652  0  0  0.096404  0  4.043405  0  0  0.105546  0  4.061926  0  -0.171092  0  0.002053  0.090304  0  4.030594  0
C  C78  1  0.53090005  0.39356930  0.87342481  1  0  0.080687  0  3.789546  0  0  0.096097  0  4.044407  0  0  0.10524  0  4.062926  0  -0.16754  0  0.001987  0.089962  0  4.031651  0
C  C79  1  0.60646852  0.46884317  0.62647221  1  0  0.080845  0  3.788728  0  0  0.096378  0  4.043433  0  0  0.105518  0  4.06195  0  -0.171118  0  0.002057  0.090276  0  4.03062  0
C  C80  1  0.35056776  0.55013451  0.09102743  1  0  -0.176056  0  3.762463  0  0  -0.195135  0  4.01376  0  0  -0.203293  0  4.033647  0  0.046087  0  -0.100444  -0.189936  0  4.000625  0
C  C81  1  0.45008910  0.64928374  0.40910379  1  0  -0.176627  0  3.762286  0  0  -0.195591  0  4.013639  0  0  -0.203808  0  4.033526  0  0.043246  0  -0.101148  -0.190387  0  4.000526  0
C  C82  1  0.64943760  0.44985708  0.90897089  1  0  -0.175929  0  3.762364  0  0  -0.194994  0  4.013616  0  0  -0.203154  0  4.033507  0  0.046492  0  -0.100376  -0.189797  0  4.000492  0
C  C83  1  0.54990895  0.35071815  0.59089505  1  0  -0.176667  0  3.762388  0  0  -0.195622  0  4.013709  0  0  -0.203837  0  4.033592  0  0.043454  0  -0.101172  -0.190418  0  4.000595  0
C  C84  1  0.20996584  0.64259461  0.08299825  1  0  0.121761  0  3.718952  0  0  0.093173  0  3.968523  0  0  0.101413  0  3.983828  0  0.449751  0  0.025896  0.087563  0  3.958945  0
C  C85  1  0.35766774  0.78970281  0.41701580  1  0  0.121968  0  3.719468  0  0  0.093571  0  3.968737  0  0  0.101752  0  3.984018  0  0.459895  0  0.026438  0.08804  0  3.958967  0
C  C86  1  0.79003630  0.35739583  0.91700311  1  0  0.121655  0  3.718815  0  0  0.093124  0  3.968468  0  0  0.101365  0  3.98377  0  0.449571  0  0.025836  0.087471  0  3.958872  0
C  C87  1  0.64232918  0.21029907  0.58298190  1  0  0.122041  0  3.719442  0  0  0.093613  0  3.968715  0  0  0.101789  0  3.984003  0  0.45969  0  0.026415  0.088086  0  3.958945  0
S  S88  1  0.77867919  0.65468676  0.25678278  1  0  0.043324  0  2.473417  0  0  0.04679  0  2.815291  0  0  0.040115  0  2.817598  0  0.123336  0  0.036225  0.051132  0  2.814243  0
S  S89  1  0.34481376  0.22233516  0.24338791  1  0  0.04286  0  2.475045  0  0  0.046399  0  2.8171  0  0  0.039668  0  2.819481  0  0.114751  0  0.036117  0.050743  0  2.816021  0
S  S90  1  0.22131473  0.34531970  0.74321546  1  0  0.04328  0  2.473413  0  0  0.046709  0  2.815246  0  0  0.040018  0  2.81759  0  0.123644  0  0.036132  0.051056  0  2.814205  0
S  S91  1  0.65518744  0.77765414  0.75661526  1  0  0.042905  0  2.474824  0  0  0.046446  0  2.816879  0  0  0.039726  0  2.819243  0  0.114835  0  0.036177  0.050798  0  2.815807  0
S  S92  1  0.64729398  0.48834188  0.12772829  1  0  0.061159  0  2.445908  0  0  0.058315  0  2.785971  0  0  0.05212  0  2.789657  0  0.140125  0  0.038151  0.062549  0  2.783744  0
S  S93  1  0.51177548  0.35332926  0.37238517  1  0  0.060661  0  2.446381  0  0  0.057807  0  2.78626  0  0  0.051448  0  2.790221  0  0.141697  0  0.03793  0.062049  0  2.78397  0
S  S94  1  0.35271368  0.51165657  0.87226921  1  0  0.061159  0  2.445895  0  0  0.058305  0  2.785992  0  0  0.052109  0  2.789693  0  0.140109  0  0.038137  0.06254  0  2.783767  0
S  S95  1  0.48822615  0.64667148  0.62761418  1  0  0.060672  0  2.446394  0  0  0.057782  0  2.786236  0  0  0.051421  0  2.790196  0  0.141715  0  0.037926  0.062028  0  2.78395  0
I  I96  1  0.20809397  0.09456776  0.55300899  1  0  -0.496367  0  1.28057  0  0  -0.44334  0  1.6684  0  0  -0.461667  0  1.635922  0  -0.523726  0  -0.227856  -0.429511  0  1.689095  0
I  I97  1  0.90533779  0.79257481  0.94672973  1  0  -0.495949  0  1.281775  0  0  -0.443083  0  1.669435  0  0  -0.461348  0  1.636947  0  -0.523411  0  -0.227544  -0.429222  0  1.690012  0
I  I98  1  0.79190612  0.90542841  0.44698994  1  0  -0.496367  0  1.280604  0  0  -0.443333  0  1.668428  0  0  -0.46166  0  1.635947  0  -0.523748  0  -0.227853  -0.429503  0  1.689126  0
I  I99  1  0.09465869  0.20741563  0.05327995  1  0  -0.495893  0  1.281643  0  0  -0.443009  0  1.669253  0  0  -0.46131  0  1.636832  0  -0.523353  0  -0.227516  -0.42914  0  1.689822  0
N  N100  1  0.99753333  0.20637896  0.37576472  1  0  -0.295505  0  3.39583  0  0  -0.22053  0  3.681738  0  0  -0.232707  0  3.688762  0  -1.209686  0  -0.376923  -0.213411  0  3.677214  0
N  N101  1  0.79338264  0.00207562  0.12426320  1  0  -0.296446  0  3.39877  0  0  -0.221696  0  3.685084  0  0  -0.233825  0  3.69213  0  -1.217168  0  -0.377592  -0.21458  0  3.680529  0
N  N102  1  0.00245946  0.79362750  0.62423471  1  0  -0.295639  0  3.39582  0  0  -0.22061  0  3.681696  0  0  -0.232799  0  3.688736  0  -1.209821  0  -0.376965  -0.213487  0  3.677162  0
N  N103  1  0.20662334  0.99792627  0.87573952  1  0  -0.296378  0  3.398686  0  0  -0.221574  0  3.68496  0  0  -0.233707  0  3.69202  0  -1.217109  0  -0.377519  -0.214456  0  3.680399  0
N  N104  1  0.17812288  0.78757914  0.10783873  1  0  -0.293951  0  3.369404  0  0  -0.219682  0  3.658736  0  0  -0.232045  0  3.665424  0  -1.224654  0  -0.376185  -0.212376  0  3.654216  0
N  N105  1  0.21236616  0.82173763  0.39209211  1  0  -0.294345  0  3.368584  0  0  -0.219326  0  3.657205  0  0  -0.231712  0  3.663898  0  -1.230756  0  -0.375904  -0.212034  0  3.652745  0
N  N106  1  0.82187341  0.21241245  0.89216158  1  0  -0.293838  0  3.368875  0  0  -0.219752  0  3.658408  0  0  -0.232122  0  3.66511  0  -1.224842  0  -0.37614  -0.212445  0  3.653901  0
N  N107  1  0.78763302  0.17826426  0.60790553  1  0  -0.294241  0  3.368633  0  0  -0.219194  0  3.657222  0  0  -0.231585  0  3.663929  0  -1.230725  0  -0.375828  -0.211905  0  3.652759  0
