# generated using pymatgen
data_PrH24C17NO7
_symmetry_space_group_name_H-M   'P 1'
_cell_length_a   7.67961833
_cell_length_b   10.06783376
_cell_length_c   12.14379986
_cell_angle_alpha   80.26511563
_cell_angle_beta   79.89984174
_cell_angle_gamma   83.68614895
_symmetry_Int_Tables_number   1
_chemical_formula_structural   PrH24C17NO7
_chemical_formula_sum   'Pr2 H48 C34 N2 O14'
_cell_volume   907.93579584
_cell_formula_units_Z   2
loop_
 _symmetry_equiv_pos_site_id
 _symmetry_equiv_pos_as_xyz
  1  'x, y, z'
loop_
 _atom_site_type_symbol
 _atom_site_label
 _atom_site_symmetry_multiplicity
 _atom_site_fract_x
 _atom_site_fract_y
 _atom_site_fract_z
 _atom_site_occupancy
 _atom_site_hle17_bader_spin_density
 _atom_site_hle17_ddec_charge
 _atom_site_hle17_ddec_spin_density
 _atom_site_hle17_ddec_sum_bond_order
 _atom_site_hle17_magmom
 _atom_site_hse06_10hf_bader_spin_density
 _atom_site_hse06_10hf_ddec_charge
 _atom_site_hse06_10hf_ddec_spin_density
 _atom_site_hse06_10hf_ddec_sum_bond_order
 _atom_site_hse06_10hf_magmom
 _atom_site_hse06_bader_spin_density
 _atom_site_hse06_ddec_charge
 _atom_site_hse06_ddec_spin_density
 _atom_site_hse06_ddec_sum_bond_order
 _atom_site_hse06_magmom
 _atom_site_pbe_bader_spin_density
 _atom_site_pbe_cm5_charge
 _atom_site_pbe_ddec_charge
 _atom_site_pbe_ddec_spin_density
 _atom_site_pbe_ddec_sum_bond_order
 _atom_site_pbe_magmom
Pr  Pr0  1  0.26373554  0.99099421  0.43670232  1  0  2.309744  0  1.62964  0  0  2.150242  0  2.086964  0  0  2.238763  0  1.954747  0  0  1.488567  2.118945  0  2.12154  0
Pr  Pr1  1  0.73626342  0.00900604  0.56329793  1  0  2.309745  0  1.629619  0  0  2.150251  0  2.086933  0  0  2.23877  0  1.954725  0  0  1.488564  2.118955  0  2.121497  0
H  H2  1  0.85774290  0.39989096  0.54952378  1  0  0.081249  0  0.946559  0  0  0.100129  0  1.005963  0  0  0.101489  0  1.006175  0  0  0.093517  0.099202  0  1.005693  0
H  H3  1  0.14225725  0.60011032  0.45047701  1  0  0.081223  0  0.946593  0  0  0.100112  0  1.005991  0  0  0.101472  0  1.006201  0  0  0.093496  0.099182  0  1.005728  0
H  H4  1  0.92174585  0.51984903  0.62207098  1  0  0.054086  0  0.946046  0  0  0.075736  0  1.005862  0  0  0.075876  0  1.006916  0  0  0.084786  0.075543  0  1.005231  0
H  H5  1  0.07825587  0.48015023  0.37792992  1  0  0.054095  0  0.946031  0  0  0.075746  0  1.005855  0  0  0.075887  0  1.006909  0  0  0.084805  0.075561  0  1.005218  0
H  H6  1  0.21475118  0.23429962  0.75936714  1  0  0.08949  0  0.952513  0  0  0.102237  0  1.016744  0  0  0.104067  0  1.016362  0  0  0.0937  0.101065  0  1.016697  0
H  H7  1  0.78524621  0.76570265  0.24063300  1  0  0.089547  0  0.952499  0  0  0.102308  0  1.016685  0  0  0.104139  0  1.016301  0  0  0.093726  0.101137  0  1.016633  0
H  H8  1  0.99642366  0.30402025  0.74398840  1  0  0.099357  0  0.932537  0  0  0.116295  0  0.991799  0  0  0.11784  0  0.991786  0  0  0.101372  0.115256  0  0.99169  0
H  H9  1  0.00357134  0.69597998  0.25601145  1  0  0.099392  0  0.932553  0  0  0.116339  0  0.991782  0  0  0.117884  0  0.991768  0  0  0.101377  0.1153  0  0.991677  0
H  H10  1  0.04393352  0.14882992  0.12474024  1  0  0.069516  0  0.935424  0  0  0.089033  0  0.993941  0  0  0.089575  0  0.99512  0  0  0.090915  0.088499  0  0.993496  0
H  H11  1  0.95607085  0.85116937  0.87525707  1  0  0.069496  0  0.935476  0  0  0.089016  0  0.993984  0  0  0.089561  0  0.995161  0  0  0.090919  0.088484  0  0.99354  0
H  H12  1  0.81826090  0.18255005  0.10923689  1  0  0.056541  0  0.935646  0  0  0.07663  0  0.995332  0  0  0.077136  0  0.996225  0  0  0.083912  0.076232  0  0.994993  0
H  H13  1  0.18174082  0.81744921  0.89076237  1  0  0.056557  0  0.935647  0  0  0.076639  0  0.995329  0  0  0.077146  0  0.996221  0  0  0.08391  0.076244  0  0.994986  0
H  H14  1  0.13013864  0.31734555  0.95312880  1  0  0.050258  0  0.958464  0  0  0.068875  0  1.022229  0  0  0.068665  0  1.024627  0  0  0.080568  0.068872  0  1.021021  0
H  H15  1  0.86986322  0.68265271  0.04686811  1  0  0.050242  0  0.958486  0  0  0.068861  0  1.022246  0  0  0.068651  0  1.024645  0  0  0.080566  0.068862  0  1.02104  0
H  H16  1  0.90586289  0.35838787  0.93832577  1  0  0.047854  0  0.952979  0  0  0.067195  0  1.016295  0  0  0.067242  0  1.018068  0  0  0.079507  0.066907  0  1.015751  0
H  H17  1  0.09413872  0.64161241  0.06167254  1  0  0.047877  0  0.952975  0  0  0.067221  0  1.016278  0  0  0.067267  0  1.018051  0  0  0.079523  0.06694  0  1.015728  0
H  H18  1  0.09787504  0.07559228  0.92816864  1  0  0.059486  0  0.937199  0  0  0.080017  0  0.997928  0  0  0.080309  0  0.998988  0  0  0.087941  0.079426  0  0.998021  0
H  H19  1  0.90212429  0.92440494  0.07183116  1  0  0.059489  0  0.937195  0  0  0.08002  0  0.997936  0  0  0.080311  0  0.998998  0  0  0.08796  0.079432  0  0.998026  0
H  H20  1  0.87732488  0.12530574  0.90538625  1  0  0.065486  0  0.941267  0  0  0.082203  0  1.006245  0  0  0.083342  0  1.006507  0  0  0.088156  0.081273  0  1.00642  0
H  H21  1  0.12267024  0.87469348  0.09461373  1  0  0.065517  0  0.941266  0  0  0.082238  0  1.006241  0  0  0.083377  0  1.006504  0  0  0.08817  0.081308  0  1.006413  0
H  H22  1  0.52828784  0.53339326  0.57940760  1  0  0.106804  0  0.940877  0  0  0.121256  0  1.001628  0  0  0.123245  0  1.001122  0  0  0.100023  0.119992  0  1.001627  0
H  H23  1  0.47171376  0.46660702  0.42059153  1  0  0.106804  0  0.940968  0  0  0.121259  0  1.001696  0  0  0.123249  0  1.001187  0  0  0.10003  0.119992  0  1.001696  0
H  H24  1  0.62734112  0.64395297  0.64791603  1  0  0.10447  0  0.958414  0  0  0.1181  0  1.019933  0  0  0.120738  0  1.018362  0  0  0.101295  0.116208  0  1.021171  0
H  H25  1  0.37265915  0.35604729  0.35208489  1  0  0.104457  0  0.958398  0  0  0.118075  0  1.019931  0  0  0.120714  0  1.018359  0  0  0.101282  0.116182  0  1.02117  0
H  H26  1  0.75171608  0.58377487  0.40658813  1  0  0.053271  0  0.941503  0  0  0.074025  0  1.003236  0  0  0.074585  0  1.003554  0  0  0.087379  0.073545  0  1.003039  0
H  H27  1  0.24828660  0.41622743  0.59341225  1  0  0.053231  0  0.941477  0  0  0.074009  0  1.003231  0  0  0.074569  0  1.003549  0  0  0.087367  0.073527  0  1.003043  0
H  H28  1  0.83657983  0.70460996  0.46763439  1  0  0.062822  0  0.969028  0  0  0.080839  0  1.032367  0  0  0.081266  0  1.034236  0  0  0.097051  0.080201  0  1.031749  0
H  H29  1  0.16342308  0.29539032  0.53236789  1  0  0.062797  0  0.969019  0  0  0.080852  0  1.03235  0  0  0.081277  0  1.034227  0  0  0.097059  0.080224  0  1.031711  0
H  H30  1  0.82815388  0.42305651  0.13453262  1  0  0.054323  0  0.943299  0  0  0.073574  0  1.004701  0  0  0.074078  0  1.005891  0  0  0.082466  0.072925  0  1.0045  0
H  H31  1  0.17184917  0.57694276  0.86546567  1  0  0.054325  0  0.943282  0  0  0.073574  0  1.004712  0  0  0.074075  0  1.005906  0  0  0.082486  0.072939  0  1.004495  0
H  H32  1  0.05431415  0.39139603  0.14921845  1  0  0.059742  0  0.94059  0  0  0.077283  0  1.005768  0  0  0.078494  0  1.005385  0  0  0.085328  0.07612  0  1.006726  0
H  H33  1  0.94569011  0.60860427  0.85077792  1  0  0.059727  0  0.940539  0  0  0.077297  0  1.005718  0  0  0.078509  0  1.00533  0  0  0.085319  0.076132  0  1.006678  0
H  H34  1  0.83051338  0.38163503  0.33684045  1  0  0.10523  0  0.932342  0  0  0.123565  0  0.989287  0  0  0.124996  0  0.989386  0  0  0.105364  0.122595  0  0.989048  0
H  H35  1  0.16948823  0.61836525  0.66315703  1  0  0.105219  0  0.932325  0  0  0.123546  0  0.989277  0  0  0.124973  0  0.989379  0  0  0.105363  0.122585  0  0.989034  0
H  H36  1  0.75952656  0.23480821  0.30429853  1  0  0.112976  0  0.929941  0  0  0.130316  0  0.984921  0  0  0.132375  0  0.984633  0  0  0.111699  0.128798  0  0.985326  0
H  H37  1  0.24047769  0.76519209  0.69569866  1  0  0.112965  0  0.929923  0  0  0.130306  0  0.984898  0  0  0.132365  0  0.984608  0  0  0.111689  0.128789  0  0.985311  0
H  H38  1  0.49932896  0.92007227  0.21141971  1  0  0.392247  0  0.926885  0  0  0.349467  0  1.01127  0  0  0.361128  0  0.994657  0  0  0.282673  0.341152  0  1.023222  0
H  H39  1  0.50066868  0.07992798  0.78857903  1  0  0.392267  0  0.92686  0  0  0.349483  0  1.011252  0  0  0.361145  0  0.994639  0  0  0.282666  0.341172  0  1.023199  0
H  H40  1  0.61903944  0.96276676  0.29566502  1  0  0.425554  0  0.879354  0  0  0.39569  0  0.941946  0  0  0.406665  0  0.92621  0  0  0.293313  0.387842  0  0.953339  0
H  H41  1  0.38095928  0.03723553  0.70433250  1  0  0.425521  0  0.879391  0  0  0.395736  0  0.941863  0  0  0.406711  0  0.926128  0  0  0.293363  0.387889  0  0.953256  0
H  H42  1  0.40293826  0.47435442  0.19838596  1  0  0.100233  0  0.983638  0  0  0.110656  0  1.045446  0  0  0.113612  0  1.044481  0  0  0.107596  0.108569  0  1.046195  0
H  H43  1  0.59705528  0.52564680  0.80161557  1  0  0.100205  0  0.983685  0  0  0.110623  0  1.0455  0  0  0.11358  0  1.044537  0  0  0.107563  0.108531  0  1.046246  0
H  H44  1  0.40302553  0.68579946  0.27648431  1  0  0.094097  0  0.961038  0  0  0.100303  0  1.028093  0  0  0.103524  0  1.025347  0  0  0.122129  0.097923  0  1.030222  0
H  H45  1  0.59697331  0.31420180  0.72351581  1  0  0.09406  0  0.96103  0  0  0.100252  0  1.028103  0  0  0.103473  0  1.025356  0  0  0.122118  0.097876  0  1.030235  0
H  H46  1  0.57881522  0.89552525  0.95894637  1  0  0.082212  0  0.927291  0  0  0.092325  0  0.987588  0  0  0.094908  0  0.985347  0  0  0.122205  0.090897  0  0.988083  0
H  H47  1  0.42118267  0.10447298  0.04105263  1  0  0.0822  0  0.927313  0  0  0.09231  0  0.987616  0  0  0.094892  0  0.985376  0  0  0.122189  0.09088  0  0.988111  0
H  H48  1  0.58958308  0.69679780  0.86743543  1  0  0.121126  0  0.953261  0  0  0.130846  0  1.01287  0  0  0.1347  0  1.010537  0  0  0.11523  0.128197  0  1.014475  0
H  H49  1  0.41040964  0.30319938  0.13256592  1  0  0.121143  0  0.953266  0  0  0.130868  0  1.012864  0  0  0.134723  0  1.010532  0  0  0.115245  0.128216  0  1.014471  0
C  C50  1  0.48876859  0.74551345  0.51797302  1  0  0.727786  0  3.846474  0  0  0.68468  0  4.1446  0  0  0.717678  0  4.140291  0  0  0.214674  0.661861  0  4.150496  0
C  C51  1  0.51123301  0.25448682  0.48202776  1  0  0.727892  0  3.846502  0  0  0.68479  0  4.144593  0  0  0.717788  0  4.140282  0  0  0.214731  0.661975  0  4.150485  0
C  C52  1  0.05589347  0.11054592  0.69504541  1  0  0.761085  0  3.784287  0  0  0.717529  0  4.080688  0  0  0.751864  0  4.07196  0  0  0.236983  0.694238  0  4.087564  0
C  C53  1  0.94410824  0.88945334  0.30495632  1  0  0.761142  0  3.784254  0  0  0.7175  0  4.080775  0  0  0.751841  0  4.072038  0  0  0.236937  0.694205  0  4.087652  0
C  C54  1  0.90890079  0.50014506  0.53729453  1  0  -0.117244  0  3.68656  0  0  -0.157133  0  3.948784  0  0  -0.158256  0  3.962824  0  0  -0.170253  -0.156086  0  3.938683  0
C  C55  1  0.09109924  0.49985722  0.46270614  1  0  -0.117265  0  3.686549  0  0  -0.157154  0  3.948835  0  0  -0.158279  0  3.962877  0  0  -0.170251  -0.156108  0  3.938734  0
C  C56  1  0.07597634  0.21035583  0.77170449  1  0  -0.274226  0  3.680052  0  0  -0.311067  0  3.928265  0  0  -0.316384  0  3.935496  0  0  -0.165423  -0.307059  0  3.922157  0
C  C57  1  0.92402130  0.78964442  0.22829590  1  0  -0.274414  0  3.680112  0  0  -0.311207  0  3.928296  0  0  -0.316525  0  3.935525  0  0  -0.165457  -0.3072  0  3.922191  0
C  C58  1  0.94593880  0.22871850  0.09424106  1  0  -0.112048  0  3.69034  0  0  -0.149709  0  3.949925  0  0  -0.151264  0  3.96517  0  0  -0.169831  -0.148296  0  3.938959  0
C  C59  1  0.05406413  0.77128179  0.90575792  1  0  -0.112086  0  3.690382  0  0  -0.149724  0  3.949965  0  0  -0.151281  0  3.965212  0  0  -0.169843  -0.148312  0  3.939001  0
C  C60  1  0.00024686  0.27482520  0.96786467  1  0  -0.106857  0  3.713508  0  0  -0.145166  0  3.974044  0  0  -0.14624  0  3.989651  0  0  -0.171085  -0.144036  0  3.963073  0
C  C61  1  0.99975355  0.72517406  0.03213473  1  0  -0.106869  0  3.713468  0  0  -0.145181  0  3.974013  0  0  -0.146256  0  3.98962  0  0  -0.171093  -0.144056  0  3.963043  0
C  C62  1  0.00951478  0.16216739  0.89682903  1  0  -0.081913  0  3.694602  0  0  -0.125337  0  3.957743  0  0  -0.125728  0  3.971591  0  0  -0.166991  -0.124851  0  3.948307  0
C  C63  1  0.99048177  0.83783082  0.10317176  1  0  -0.081877  0  3.694585  0  0  -0.12535  0  3.957767  0  0  -0.125741  0  3.971614  0  0  -0.167001  -0.124865  0  3.948332  0
C  C64  1  0.59975072  0.62473739  0.56666064  1  0  -0.279052  0  3.670937  0  0  -0.317482  0  3.919665  0  0  -0.323515  0  3.927043  0  0  -0.164472  -0.313118  0  3.913964  0
C  C65  1  0.40025220  0.37526289  0.43333917  1  0  -0.279078  0  3.670994  0  0  -0.317456  0  3.919715  0  0  -0.323489  0  3.927094  0  0  -0.164467  -0.313095  0  3.914013  0
C  C66  1  0.77679192  0.60749889  0.48744617  1  0  -0.069643  0  3.671988  0  0  -0.110731  0  3.930476  0  0  -0.111243  0  3.944793  0  0  -0.158097  -0.110088  0  3.920358  0
C  C67  1  0.22321087  0.39250240  0.51255434  1  0  -0.069543  0  3.671944  0  0  -0.110759  0  3.930607  0  0  -0.111275  0  3.944931  0  0  -0.158105  -0.110114  0  3.920498  0
C  C68  1  0.92801213  0.34399814  0.16373589  1  0  -0.074568  0  3.703311  0  0  -0.116869  0  3.964898  0  0  -0.116609  0  3.977781  0  0  -0.166943  -0.116703  0  3.955869  0
C  C69  1  0.07199212  0.65600216  0.83626213  1  0  -0.074507  0  3.703196  0  0  -0.116865  0  3.964843  0  0  -0.116605  0  3.977731  0  0  -0.166943  -0.116701  0  3.955802  0
C  C70  1  0.87388626  0.29615297  0.28979170  1  0  -0.265262  0  3.659827  0  0  -0.302011  0  3.90729  0  0  -0.30768  0  3.915315  0  0  -0.156145  -0.297805  0  3.900902  0
C  C71  1  0.12611930  0.70384734  0.71020700  1  0  -0.265297  0  3.65977  0  0  -0.302022  0  3.907226  0  0  -0.307688  0  3.915251  0  0  -0.15616  -0.297819  0  3.900851  0
C  C72  1  0.01809656  0.21267770  0.34720616  1  0  0.735464  0  3.814132  0  0  0.691427  0  4.111991  0  0  0.724708  0  4.107557  0  0  0.213687  0.66846  0  4.11779  0
C  C73  1  0.98190757  0.78732361  0.65279255  1  0  0.735461  0  3.814337  0  0  0.691442  0  4.112161  0  0  0.724722  0  4.107727  0  0  0.213694  0.668472  0  4.117967  0
C  C74  1  0.44373158  0.56484348  0.14121120  1  0  -0.161634  0  3.71711  0  0  -0.17999  0  3.963334  0  0  -0.18736  0  3.985142  0  0  -0.081778  -0.174978  0  3.948374  0
C  C75  1  0.55626088  0.43515571  0.85879072  1  0  -0.161633  0  3.717282  0  0  -0.179988  0  3.963473  0  0  -0.187361  0  3.985284  0  0  -0.081717  -0.174969  0  3.948512  0
C  C76  1  0.44291332  0.68332493  0.18595502  1  0  0.119024  0  3.705901  0  0  0.091827  0  3.958653  0  0  0.097444  0  3.975945  0  0  0.05003  0.088216  0  3.946726  0
C  C77  1  0.55708443  0.31667430  0.81404632  1  0  0.119168  0  3.705907  0  0  0.09198  0  3.95866  0  0  0.097601  0  3.975945  0  0  0.050071  0.088359  0  3.946745  0
C  C78  1  0.49728410  0.56300441  0.02469129  1  0  0.084635  0  3.756483  0  0  0.096269  0  3.987989  0  0  0.099663  0  4.01027  0  0  0.012856  0.09405  0  3.972712  0
C  C79  1  0.50271089  0.43699582  0.97530939  1  0  0.084584  0  3.756607  0  0  0.096264  0  3.988081  0  0  0.099657  0  4.010365  0  0  0.012822  0.094045  0  3.9728  0
C  C80  1  0.54028354  0.80030294  0.01034360  1  0  0.131145  0  3.71143  0  0  0.102104  0  3.969735  0  0  0.108282  0  3.986506  0  0  0.054295  0.098242  0  3.957188  0
C  C81  1  0.45971422  0.19969629  0.98965691  1  0  0.131158  0  3.711522  0  0  0.102118  0  3.969838  0  0  0.108296  0  3.986612  0  0  0.054322  0.098262  0  3.957283  0
C  C82  1  0.54496650  0.68624679  0.95849868  1  0  -0.147963  0  3.665723  0  0  -0.165819  0  3.911784  0  0  -0.172452  0  3.931616  0  0  -0.072449  -0.1618  0  3.898511  0
C  C83  1  0.45502730  0.31375241  0.04150228  1  0  -0.147977  0  3.665806  0  0  -0.165848  0  3.911873  0  0  -0.172483  0  3.931707  0  0  -0.072455  -0.16182  0  3.898588  0
N  N84  1  0.49130154  0.80037569  0.12217190  1  0  -0.316069  0  3.144406  0  0  -0.256847  0  3.396908  0  0  -0.269976  0  3.411419  0  0  -0.30256  -0.247528  0  3.386298  0
N  N85  1  0.50869477  0.19962455  0.87782781  1  0  -0.316108  0  3.144423  0  0  -0.256889  0  3.396926  0  0  -0.270015  0  3.411433  0  0  -0.302578  -0.247574  0  3.386322  0
O  O86  1  0.50138613  0.98059993  0.26922626  1  0  -0.908526  0  1.853218  0  0  -0.857439  0  2.052846  0  0  -0.880686  0  2.015115  0  0  -0.651561  -0.845034  0  2.077054  0
O  O87  1  0.49861271  0.01940134  0.73077221  1  0  -0.908549  0  1.853229  0  0  -0.857509  0  2.052751  0  0  -0.880757  0  2.015021  0  0  -0.651606  -0.845108  0  2.07696  0
O  O88  1  0.19623032  0.05865779  0.63799674  1  0  -0.750082  0  2.019614  0  0  -0.68972  0  2.26038  0  0  -0.720545  0  2.249576  0  0  -0.358512  -0.671807  0  2.267037  0
O  O89  1  0.80377009  0.94134147  0.36200266  1  0  -0.750133  0  2.019569  0  0  -0.689714  0  2.260373  0  0  -0.720541  0  2.249566  0  0  -0.358493  -0.67179  0  2.267013  0
O  O90  1  0.38359807  0.73625814  0.45107709  1  0  -0.670219  0  1.957175  0  0  -0.622531  0  2.197403  0  0  -0.649391  0  2.187701  0  0  -0.348424  -0.606749  0  2.203074  0
O  O91  1  0.61640473  0.26374315  0.54892341  1  0  -0.670289  0  1.957151  0  0  -0.622585  0  2.197362  0  0  -0.649447  0  2.187661  0  0  -0.348453  -0.606803  0  2.20302  0
O  O92  1  0.50531492  0.86229859  0.54514096  1  0  -0.835086  0  2.073589  0  0  -0.77406  0  2.338477  0  0  -0.808806  0  2.325208  0  0  -0.455972  -0.757351  0  2.34697  0
O  O93  1  0.49468523  0.13770268  0.45485983  1  0  -0.835142  0  2.073713  0  0  -0.774105  0  2.338566  0  0  -0.80885  0  2.325296  0  0  -0.455965  -0.757397  0  2.347055  0
O  O94  1  0.17945158  0.20940789  0.30182383  1  0  -0.669842  0  1.919965  0  0  -0.619692  0  2.155251  0  0  -0.647203  0  2.145469  0  0  -0.349353  -0.603584  0  2.161202  0
O  O95  1  0.82055386  0.79059342  0.69817721  1  0  -0.669857  0  1.920096  0  0  -0.619733  0  2.155391  0  0  -0.647243  0  2.145611  0  0  -0.349364  -0.603615  0  2.161334  0
O  O96  1  0.89913708  0.08548156  0.69102885  1  0  -0.721725  0  1.984803  0  0  -0.670913  0  2.240272  0  0  -0.701573  0  2.228134  0  0  -0.400633  -0.653788  0  2.247012  0
O  O97  1  0.10086488  0.91451568  0.30897148  1  0  -0.721735  0  1.984854  0  0  -0.670883  0  2.240324  0  0  -0.701545  0  2.228181  0  0  -0.400616  -0.653758  0  2.247066  0
O  O98  1  0.97282499  0.14318045  0.44631262  1  0  -0.855264  0  2.139883  0  0  -0.798141  0  2.409542  0  0  -0.833325  0  2.397849  0  0  -0.45877  -0.780602  0  2.416451  0
O  O99  1  0.02717792  0.85681983  0.55368801  1  0  -0.85524  0  2.139984  0  0  -0.79808  0  2.409554  0  0  -0.833271  0  2.397884  0  0  -0.458734  -0.780541  0  2.416476  0
