# generated using pymatgen
data_AlH24C30(NO2)3
_symmetry_space_group_name_H-M   'P 1'
_cell_length_a   3.95798172
_cell_length_b   15.80834722
_cell_length_c   15.89259475
_cell_angle_alpha   59.86661405
_cell_angle_beta   87.60137186
_cell_angle_gamma   84.76106663
_symmetry_Int_Tables_number   1
_chemical_formula_structural   AlH24C30(NO2)3
_chemical_formula_sum   'Al1 H24 C30 N3 O6'
_cell_volume   856.40207225
_cell_formula_units_Z   1
loop_
 _symmetry_equiv_pos_site_id
 _symmetry_equiv_pos_as_xyz
  1  'x, y, z'
loop_
 _atom_site_type_symbol
 _atom_site_label
 _atom_site_symmetry_multiplicity
 _atom_site_fract_x
 _atom_site_fract_y
 _atom_site_fract_z
 _atom_site_occupancy
 _atom_site_pbe_bader_charge
 _atom_site_pbe_bader_spin_density
 _atom_site_pbe_cm5_charge
 _atom_site_pbe_ddec_charge
 _atom_site_pbe_ddec_spin_density
 _atom_site_pbe_ddec_sum_bond_order
 _atom_site_pbe_magmom
Al  Al0  1  0.96450989  0.50213617  0.50144153  1  2.502494  0  0.42794  1.584134  0  2.580722  0
H  H1  1  0.53744722  0.85677254  0.59758324  1  0.105871  0  0.102532  0.10574  0  1.022236  0
H  H2  1  0.29871873  0.59742510  0.86123424  1  0.04806  0  0.102447  0.105662  0  1.018935  0
H  H3  1  0.34117025  0.04840385  0.60054375  1  0.061109  0  0.102567  0.105857  0  1.022151  0
H  H4  1  0.71966248  0.04275296  0.85238194  1  0.100651  0  0.102329  0.106792  0  1.017316  0
H  H5  1  0.65302866  0.85249861  0.04765866  1  0.06519  0  0.102503  0.106884  0  1.02215  0
H  H6  1  0.34407304  0.59884377  0.05028757  1  0.071624  0  0.102823  0.106189  0  1.022374  0
H  H7  1  0.48550299  0.42790688  0.78744555  1  0.056327  0  0.091258  0.128428  0  1.024195  0
H  H8  1  0.05662779  0.46429013  0.75048730  1  0.067292  0  0.094357  0.137799  0  1.018044  0
H  H9  1  0.19074433  0.45221689  0.86196632  1  0.039787  0  0.091789  0.129193  0  0.992322  0
H  H10  1  0.32968147  0.78681204  0.43314108  1  0.032263  0  0.091477  0.128115  0  1.018192  0
H  H11  1  0.76210818  0.74358267  0.45809011  1  0.062296  0  0.095669  0.138944  0  1.022575  0
H  H12  1  0.61684540  0.85776664  0.44949316  1  0.030882  0  0.092295  0.129444  0  0.992162  0
H  H13  1  0.21044648  0.19569154  0.45592763  1  0.022792  0  0.091906  0.130044  0  0.992169  0
H  H14  1  0.50976018  0.28345623  0.42795833  1  0.027647  0  0.089998  0.125686  0  1.021076  0
H  H15  1  0.09653053  0.30186841  0.46603574  1  0.076021  0  0.094636  0.140106  0  1.034543  0
H  H16  1  0.53340477  0.28142797  0.78723032  1  0.039739  0  0.090621  0.128573  0  1.01583  0
H  H17  1  0.93470076  0.29247915  0.73076276  1  0.069181  0  0.093953  0.138561  0  1.036403  0
H  H18  1  0.86683072  0.18754191  0.84610925  1  0.043665  0  0.091485  0.130346  0  0.992749  0
H  H19  1  0.69879235  0.86169587  0.18369812  1  0.049349  0  0.090099  0.125524  0  0.994916  0
H  H20  1  0.93938563  0.75545932  0.27264551  1  0.060724  0  0.093743  0.136436  0  1.017243  0
H  H21  1  0.51313569  0.77776126  0.29612436  1  0.049298  0  0.091925  0.129514  0  1.027078  0
H  H22  1  0.03728648  0.47438638  0.27232906  1  0.050847  0  0.093973  0.137846  0  1.01688  0
H  H23  1  0.46331844  0.42998787  0.30257316  1  0.05954  0  0.091177  0.127111  0  1.028578  0
H  H24  1  0.29860789  0.45377461  0.18935917  1  0.011391  0  0.089836  0.12469  0  0.995464  0
C  C25  1  0.46754072  0.57873159  0.35089714  1  1.531037  0  0.27591  0.662664  0  4.03447  0
C  C26  1  0.42592926  0.57561202  0.57939701  1  1.589664  0  0.284357  0.683159  0  4.022673  0
C  C27  1  0.50487629  0.34913181  0.57481737  1  1.615629  0  0.286112  0.685386  0  4.017821  0
C  C28  1  0.51427963  0.92750342  0.78683663  1  1.038787  0  0.257235  0.386346  0  4.012934  0
C  C29  1  0.44480227  0.78527346  0.78830180  1  1.095123  0  0.257695  0.386289  0  4.011134  0
C  C30  1  0.49365168  0.78465315  0.93070324  1  1.075669  0  0.256322  0.380828  0  4.013817  0
C  C31  1  0.47782414  0.73079392  0.58226873  1  0.022854  0  -0.002268  0.161236  0  3.964891  0
C  C32  1  0.48139329  0.78005968  0.63437706  1  -0.061695  0  -0.08403  -0.168378  0  3.938308  0
C  C33  1  0.42119306  0.73218189  0.73470377  1  0.005866  0  -0.008475  0.014132  0  4.014753  0
C  C34  1  0.34908933  0.63358593  0.78333384  1  0.055971  0  -0.085174  -0.16914  0  3.935281  0
C  C35  1  0.34309943  0.58172565  0.73376096  1  -0.048557  0  -0.001557  0.161509  0  3.963519  0
C  C36  1  0.41186586  0.63102861  0.63320378  1  -0.026818  0  -0.00637  -0.152789  0  3.857293  0
C  C37  1  0.42577428  0.08818645  0.63432525  1  -0.070026  0  -0.085099  -0.170782  0  3.944533  0
C  C38  1  0.42088243  0.19023599  0.58134924  1  0.088318  0  -0.002558  0.160364  0  3.968757  0
C  C39  1  0.52520410  0.23903173  0.62841766  1  -0.01466  0  -0.006415  -0.152222  0  3.847476  0
C  C40  1  0.63680417  0.18698214  0.72604656  1  -0.047554  0  -0.002034  0.160138  0  3.963846  0
C  C41  1  0.63603081  0.08490548  0.77671221  1  -0.041588  0  -0.084543  -0.170518  0  3.937244  0
C  C42  1  0.52909045  0.03499569  0.73189077  1  -0.000665  0  -0.00946  0.01333  0  4.020363  0
C  C43  1  0.58336485  0.77709505  0.08910062  1  -0.010362  0  -0.085144  -0.175836  0  3.934168  0
C  C44  1  0.58540977  0.72842057  0.19059289  1  0.065806  0  0.004833  0.173101  0  3.93472  0
C  C45  1  0.48238211  0.63124602  0.24261826  1  -0.084325  0  -0.008965  -0.168438  0  3.841043  0
C  C46  1  0.39265676  0.58377122  0.19191354  1  0.003666  0  0.004186  0.171649  0  3.939463  0
C  C47  1  0.40719672  0.63439778  0.09054947  1  0.023998  0  -0.085666  -0.174125  0  3.934599  0
C  C48  1  0.49606602  0.73121123  0.03831937  1  0.006298  0  -0.001912  0.033096  0  4.000741  0
C  C49  1  0.26441868  0.47586171  0.78650439  1  -0.095458  0  -0.239636  -0.417099  0  3.950662  0
C  C50  1  0.55087413  0.78277513  0.47494592  1  -0.084914  0  -0.240786  -0.417826  0  3.953357  0
C  C51  1  0.30255243  0.24569679  0.47722434  1  -0.055816  0  -0.24248  -0.420888  0  3.956557  0
C  C52  1  0.74973390  0.23980701  0.77531537  1  -0.086623  0  -0.241934  -0.421972  0  3.953011  0
C  C53  1  0.68816553  0.78382587  0.23839599  1  -0.084996  0  -0.24178  -0.414412  0  3.961889  0
C  C54  1  0.29333267  0.47987787  0.24170556  1  -0.047179  0  -0.241218  -0.413039  0  3.964159  0
N  N55  1  0.47130638  0.88258001  0.73570573  1  -1.159387  0  -0.309029  -0.409204  0  3.218651  0
N  N56  1  0.44384591  0.73347993  0.88620520  1  -1.244265  0  -0.310917  -0.412809  0  3.208279  0
N  N57  1  0.53804233  0.88110357  0.88451038  1  -1.210565  0  -0.310851  -0.412428  0  3.206163  0
O  O58  1  0.25208624  0.39307662  0.59359986  1  -1.258384  0  -0.230292  -0.596434  0  2.387622  0
O  O59  1  0.24078552  0.51827342  0.39358678  1  -1.257501  0  -0.232437  -0.595439  0  2.411233  0
O  O60  1  0.18970014  0.59500569  0.51865750  1  -1.249347  0  -0.229542  -0.591933  0  2.373128  0
O  O61  1  0.73656910  0.39302159  0.51408345  1  -1.257502  0  -0.22928  -0.58973  0  2.372103  0
O  O62  1  0.67752795  0.51232940  0.59710379  1  -1.256844  0  -0.23273  -0.598416  0  2.371188  0
O  O63  1  0.68227687  0.59630327  0.39709944  1  -1.267691  0  -0.237404  -0.606986  0  2.42504  0
