# generated using pymatgen
data_HgH6(C5N6)2
_symmetry_space_group_name_H-M   'P 1'
_cell_length_a   9.36994192
_cell_length_b   10.31725534
_cell_length_c   13.44500000
_cell_angle_alpha   93.31334056
_cell_angle_beta   90.00000000
_cell_angle_gamma   90.00000000
_symmetry_Int_Tables_number   1
_chemical_formula_structural   HgH6(C5N6)2
_chemical_formula_sum   'Hg4 H24 C40 N48'
_cell_volume   1297.58347009
_cell_formula_units_Z   4
loop_
 _symmetry_equiv_pos_site_id
 _symmetry_equiv_pos_as_xyz
  1  'x, y, z'
loop_
 _atom_site_type_symbol
 _atom_site_label
 _atom_site_symmetry_multiplicity
 _atom_site_fract_x
 _atom_site_fract_y
 _atom_site_fract_z
 _atom_site_occupancy
 _atom_site_hle17_bader_spin_density
 _atom_site_hle17_ddec_charge
 _atom_site_hle17_ddec_spin_density
 _atom_site_hle17_ddec_sum_bond_order
 _atom_site_hle17_magmom
 _atom_site_hse06_10hf_bader_spin_density
 _atom_site_hse06_10hf_ddec_charge
 _atom_site_hse06_10hf_ddec_spin_density
 _atom_site_hse06_10hf_ddec_sum_bond_order
 _atom_site_hse06_10hf_magmom
 _atom_site_hse06_bader_spin_density
 _atom_site_hse06_ddec_charge
 _atom_site_hse06_ddec_spin_density
 _atom_site_hse06_ddec_sum_bond_order
 _atom_site_hse06_magmom
 _atom_site_pbe_bader_charge
 _atom_site_pbe_bader_spin_density
 _atom_site_pbe_cm5_charge
 _atom_site_pbe_ddec_charge
 _atom_site_pbe_ddec_spin_density
 _atom_site_pbe_ddec_sum_bond_order
 _atom_site_pbe_magmom
Hg  Hg0  1  0.91456703  0.24926192  0.76250168  1  0  0.804706  0  1.904414  0  0  0.577989  0  2.370866  0  0  0.637095  0  2.335367  0  1.001723  0  0.705165  0.536836  0  2.393926  0
Hg  Hg1  1  0.41456820  0.75073819  0.73749840  1  0  0.804714  0  1.904385  0  0  0.578005  0  2.370829  0  0  0.637104  0  2.335343  0  1.001734  0  0.70517  0.53685  0  2.393891  0
Hg  Hg2  1  0.08543169  0.75073819  0.23749840  1  0  0.804721  0  1.904415  0  0  0.578006  0  2.370855  0  0  0.637105  0  2.33537  0  1.001731  0  0.705164  0.536853  0  2.393917  0
Hg  Hg3  1  0.58543266  0.24926192  0.26250168  1  0  0.80469  0  1.904434  0  0  0.577972  0  2.370884  0  0  0.637079  0  2.335387  0  1.001729  0  0.705161  0.536817  0  2.393946  0
H  H4  1  0.22941764  0.03493104  0.43958791  1  0  0.089321  0  0.964897  0  0  0.08763  0  1.046232  0  0  0.091461  0  1.042718  0  0.125748  0  0.113333  0.08495  0  1.048421  0
H  H5  1  0.72941861  0.96506907  0.06041217  1  0  0.089336  0  0.964897  0  0  0.087644  0  1.046229  0  0  0.091475  0  1.042715  0  0.125744  0  0.113327  0.084966  0  1.048416  0
H  H6  1  0.77058108  0.96506810  0.56041213  1  0  0.089321  0  0.964888  0  0  0.087635  0  1.046222  0  0  0.091464  0  1.04271  0  0.125737  0  0.113333  0.084956  0  1.04841  0
H  H7  1  0.27058225  0.03493104  0.93958791  1  0  0.08932  0  0.964897  0  0  0.08763  0  1.046231  0  0  0.091459  0  1.042718  0  0.125752  0  0.113337  0.084952  0  1.048415  0
H  H8  1  0.98618541  0.34865019  0.36017780  1  0  0.085674  0  0.988973  0  0  0.082244  0  1.069347  0  0  0.085779  0  1.066889  0  0.155595  0  0.112225  0.079346  0  1.071742  0
H  H9  1  0.48618551  0.65134992  0.13982228  1  0  0.085631  0  0.988995  0  0  0.082185  0  1.06939  0  0  0.085719  0  1.066933  0  0.155599  0  0.112204  0.079288  0  1.071782  0
H  H10  1  0.01381545  0.65134992  0.63982228  1  0  0.085653  0  0.98898  0  0  0.082208  0  1.069366  0  0  0.085742  0  1.06691  0  0.155598  0  0.112222  0.079311  0  1.07176  0
H  H11  1  0.51381428  0.34865019  0.86017780  1  0  0.085641  0  0.988993  0  0  0.082193  0  1.069388  0  0  0.085727  0  1.066931  0  0.155703  0  0.112206  0.079295  0  1.071781  0
H  H12  1  0.87844301  0.36702687  0.53386229  1  0  0.085454  0  0.994188  0  0  0.083296  0  1.072888  0  0  0.087367  0  1.069508  0  0.175751  0  0.111195  0.08028  0  1.075367  0
H  H13  1  0.37844311  0.63297324  0.96613779  1  0  0.085417  0  0.994224  0  0  0.083283  0  1.072905  0  0  0.087355  0  1.069524  0  0.175746  0  0.111186  0.080267  0  1.075382  0
H  H14  1  0.12155678  0.63297324  0.46613779  1  0  0.085417  0  0.99421  0  0  0.083292  0  1.072888  0  0  0.087363  0  1.069507  0  0.17576  0  0.111195  0.080276  0  1.075366  0
H  H15  1  0.62155668  0.36702687  0.03386229  1  0  0.085468  0  0.994182  0  0  0.083305  0  1.072886  0  0  0.087376  0  1.069506  0  0.175746  0  0.111198  0.080288  0  1.075364  0
H  H16  1  0.24533877  0.47716658  0.06441316  1  0  0.088799  0  0.945219  0  0  0.09255  0  1.017319  0  0  0.09588  0  1.014706  0  0.095261  0  0.115738  0.090162  0  1.019106  0
H  H17  1  0.74533866  0.52283353  0.43558692  1  0  0.088807  0  0.945225  0  0  0.092557  0  1.017319  0  0  0.095887  0  1.014707  0  0.09525  0  0.115735  0.09017  0  1.019108  0
H  H18  1  0.75466209  0.52283256  0.93558688  1  0  0.088802  0  0.945218  0  0  0.092558  0  1.017319  0  0  0.095888  0  1.014706  0  0.095258  0  0.115735  0.09017  0  1.019106  0
H  H19  1  0.25466113  0.47716658  0.56441316  1  0  0.088805  0  0.94521  0  0  0.092558  0  1.017307  0  0  0.095887  0  1.014695  0  0.095265  0  0.115741  0.09017  0  1.019095  0
H  H20  1  0.03926278  0.17376975  0.19317063  1  0  0.089352  0  0.959737  0  0  0.086943  0  1.037812  0  0  0.09063  0  1.034971  0  0.137047  0  0.11169  0.084157  0  1.040144  0
H  H21  1  0.53926268  0.82623036  0.30682945  1  0  0.089347  0  0.959741  0  0  0.086939  0  1.037815  0  0  0.090625  0  1.034975  0  0.137045  0  0.111687  0.084152  0  1.040148  0
H  H22  1  0.96073701  0.82623133  0.80682950  1  0  0.089343  0  0.959758  0  0  0.08693  0  1.037835  0  0  0.090617  0  1.034993  0  0.137042  0  0.111705  0.084143  0  1.040168  0
H  H23  1  0.46073711  0.17376878  0.69316984  1  0  0.089366  0  0.959719  0  0  0.086943  0  1.037812  0  0  0.090631  0  1.034969  0  0.137056  0  0.111692  0.084156  0  1.040145  0
H  H24  1  0.90927671  0.11810767  0.03022966  1  0  0.083456  0  0.964613  0  0  0.082236  0  1.045161  0  0  0.085755  0  1.041908  0  0.155026  0  0.112598  0.079833  0  1.047031  0
H  H25  1  0.40927788  0.88189244  0.46977042  1  0  0.083438  0  0.964671  0  0  0.082224  0  1.045212  0  0  0.085743  0  1.04196  0  0.155029  0  0.112585  0.079821  0  1.047083  0
H  H26  1  0.09072201  0.88189147  0.96977038  1  0  0.083437  0  0.964649  0  0  0.082222  0  1.045193  0  0  0.085741  0  1.04194  0  0.155035  0  0.112579  0.07982  0  1.047062  0
H  H27  1  0.59072298  0.11810767  0.53022891  1  0  0.083438  0  0.964613  0  0  0.082222  0  1.045164  0  0  0.085742  0  1.041909  0  0.155031  0  0.112579  0.079819  0  1.047034  0
C  C28  1  0.14932430  0.04252132  0.63587397  1  0  0.216146  0  3.829359  0  0  0.197537  0  4.098819  0  0  0.204039  0  4.117141  0  0.955028  0  0.209208  0.193046  0  4.086766  0
C  C29  1  0.64932420  0.95747976  0.86412615  1  0  0.216081  0  3.829469  0  0  0.197465  0  4.098936  0  0  0.203968  0  4.117257  0  0.95507  0  0.209177  0.192975  0  4.086886  0
C  C30  1  0.85067550  0.95747976  0.36412615  1  0  0.216115  0  3.829489  0  0  0.197502  0  4.098939  0  0  0.203991  0  4.117277  0  0.955081  0  0.209159  0.193011  0  4.086888  0
C  C31  1  0.35067560  0.04252035  0.13587393  1  0  0.216123  0  3.829467  0  0  0.197498  0  4.098919  0  0  0.204002  0  4.117241  0  0.955083  0  0.209191  0.193008  0  4.086868  0
C  C32  1  0.09922153  0.12495426  0.55859058  1  0  0.122263  0  3.783743  0  0  0.123901  0  4.02026  0  0  0.12748  0  4.041827  0  0.548842  0  0.125641  0.121071  0  4.006357  0
C  C33  1  0.59922250  0.87504585  0.94140950  1  0  0.122251  0  3.78375  0  0  0.123878  0  4.020279  0  0  0.127458  0  4.041845  0  0.549411  0  0.125613  0.121047  0  4.006375  0
C  C34  1  0.90077826  0.87504585  0.44140950  1  0  0.122232  0  3.783778  0  0  0.123876  0  4.020304  0  0  0.127458  0  4.041873  0  0.54942  0  0.125621  0.121044  0  4.006401  0
C  C35  1  0.40077730  0.12495426  0.05859058  1  0  0.122203  0  3.78379  0  0  0.123886  0  4.020241  0  0  0.127468  0  4.041809  0  0.549384  0  0.125631  0.121056  0  4.006337  0
C  C36  1  0.15252389  0.11096107  0.46085654  1  0  0.042942  0  3.674812  0  0  0.009983  0  3.942639  0  0  0.010204  0  3.959815  0  0.502291  0  0.049014  0.010288  0  3.930829  0
C  C37  1  0.65252486  0.88903807  0.03914275  1  0  0.042871  0  3.674869  0  0  0.009917  0  3.942695  0  0  0.010137  0  3.959873  0  0.501744  0  0.048995  0.010221  0  3.930888  0
C  C38  1  0.84747484  0.88903807  0.53914275  1  0  0.042939  0  3.674815  0  0  0.009958  0  3.942672  0  0  0.01018  0  3.95985  0  0.501745  0  0.049008  0.010263  0  3.930865  0
C  C39  1  0.34747601  0.11096204  0.96085658  1  0  0.042945  0  3.674849  0  0  0.009976  0  3.942665  0  0  0.010193  0  3.959844  0  0.501752  0  0.048999  0.01028  0  3.930858  0
C  C40  1  0.01720181  0.28182888  0.41636927  1  0  0.065504  0  3.675722  0  0  0.043042  0  3.93627  0  0  0.043948  0  3.953168  0  0.498141  0  0.04559  0.04252  0  3.925381  0
C  C41  1  0.51720064  0.71817220  0.08363085  1  0  0.065593  0  3.675682  0  0  0.043142  0  3.936244  0  0  0.04405  0  3.95314  0  0.49811  0  0.045617  0.042619  0  3.925354  0
C  C42  1  0.98279905  0.71817220  0.58363085  1  0  0.065571  0  3.67568  0  0  0.043133  0  3.93624  0  0  0.044039  0  3.953139  0  0.498242  0  0.045627  0.042608  0  3.925353  0
C  C43  1  0.48279808  0.28182791  0.91636997  1  0  0.065583  0  3.67572  0  0  0.043136  0  3.936266  0  0  0.044045  0  3.953165  0  0.498066  0  0.045611  0.042613  0  3.925378  0
C  C44  1  0.95926208  0.29433858  0.51223461  1  0  0.085874  0  3.66568  0  0  0.061792  0  3.91276  0  0  0.064431  0  3.930931  0  0.44395  0  0.050491  0.059925  0  3.900332  0
C  C45  1  0.45926218  0.70566153  0.98776546  1  0  0.085866  0  3.665712  0  0  0.061763  0  3.912799  0  0  0.064403  0  3.930969  0  0.443948  0  0.050492  0.059897  0  3.90037  0
C  C46  1  0.04073771  0.70566250  0.48776551  1  0  0.085931  0  3.665649  0  0  0.061806  0  3.912752  0  0  0.064445  0  3.930922  0  0.443844  0  0.050488  0.059938  0  3.900325  0
C  C47  1  0.54073761  0.29433858  0.01223461  1  0  0.085816  0  3.66573  0  0  0.061747  0  3.912807  0  0  0.064383  0  3.930978  0  0.443937  0  0.050498  0.059879  0  3.900379  0
C  C48  1  0.12819717  0.43543846  0.87744012  1  0  0.233266  0  3.823922  0  0  0.202948  0  4.091623  0  0  0.213508  0  4.109921  0  0.970459  0  0.214913  0.195952  0  4.079352  0
C  C49  1  0.62819706  0.56456165  0.62255922  1  0  0.23346  0  3.823713  0  0  0.203039  0  4.091516  0  0  0.213603  0  4.109806  0  0.970426  0  0.21496  0.196041  0  4.079247  0
C  C50  1  0.87180263  0.56456068  0.12255917  1  0  0.233406  0  3.823711  0  0  0.202996  0  4.091516  0  0  0.213562  0  4.109807  0  0.970445  0  0.214957  0.196001  0  4.079244  0
C  C51  1  0.37180273  0.43543846  0.37744012  1  0  0.233266  0  3.823925  0  0  0.202964  0  4.091631  0  0  0.213524  0  4.109929  0  0.970464  0  0.21492  0.195968  0  4.07936  0
C  C52  1  0.10274770  0.36330163  0.96580269  1  0  0.110467  0  3.810619  0  0  0.116515  0  4.04851  0  0  0.118406  0  4.069677  0  0.522592  0  0.120009  0.1148  0  4.034508  0
C  C53  1  0.60274867  0.63669751  0.53419884  1  0  0.110296  0  3.810751  0  0  0.11643  0  4.048578  0  0  0.118318  0  4.069742  0  0.522783  0  0.119984  0.114715  0  4.034578  0
C  C54  1  0.89725103  0.63669751  0.03419884  1  0  0.11045  0  3.810612  0  0  0.116553  0  4.048489  0  0  0.118442  0  4.069656  0  0.522779  0  0.120046  0.114837  0  4.034487  0
C  C55  1  0.39725220  0.36330163  0.46580269  1  0  0.110478  0  3.810649  0  0  0.116485  0  4.048589  0  0  0.118368  0  4.069768  0  0.522786  0  0.120011  0.114768  0  4.034589  0
C  C56  1  0.17088473  0.39586374  0.05671283  1  0  0.04459  0  3.680138  0  0  0.010451  0  3.948033  0  0  0.011492  0  3.965249  0  0.578314  0  0.04835  0.010098  0  3.936051  0
C  C57  1  0.67088463  0.60413540  0.44328647  1  0  0.044563  0  3.680102  0  0  0.010408  0  3.947985  0  0  0.011451  0  3.965198  0  0.578284  0  0.048332  0.010058  0  3.935995  0
C  C58  1  0.82911613  0.60413637  0.94328651  1  0  0.044536  0  3.68011  0  0  0.010368  0  3.948034  0  0  0.011406  0  3.965251  0  0.578149  0  0.048309  0.010013  0  3.936058  0
C  C59  1  0.32911623  0.39586374  0.55671283  1  0  0.044586  0  3.680183  0  0  0.010452  0  3.948102  0  0  0.011495  0  3.965321  0  0.578119  0  0.048331  0.0101  0  3.936118  0
C  C60  1  0.05668445  0.22923281  0.12766692  1  0  0.070125  0  3.681497  0  0  0.04406  0  3.950612  0  0  0.045974  0  3.966886  0  0.56627  0  0.046725  0.042743  0  3.939792  0
C  C61  1  0.55668541  0.77076827  0.37233320  1  0  0.070107  0  3.681507  0  0  0.044045  0  3.950636  0  0  0.045956  0  3.966914  0  0.566268  0  0.04672  0.042727  0  3.939817  0
C  C62  1  0.94331428  0.77076827  0.87233320  1  0  0.070145  0  3.681537  0  0  0.044099  0  3.950637  0  0  0.046011  0  3.966914  0  0.566397  0  0.046731  0.042783  0  3.939817  0
C  C63  1  0.44331652  0.22923281  0.62766618  1  0  0.070174  0  3.681491  0  0  0.044137  0  3.950579  0  0  0.046048  0  3.966858  0  0.566274  0  0.046779  0.04282  0  3.93976  0
C  C64  1  0.98594635  0.19749109  0.03779428  1  0  0.089116  0  3.687484  0  0  0.062307  0  3.946085  0  0  0.064862  0  3.963421  0  0.430707  0  0.052536  0.060751  0  3.933338  0
C  C65  1  0.48594752  0.80250999  0.46220584  1  0  0.089071  0  3.687554  0  0  0.062245  0  3.946186  0  0  0.0648  0  3.963522  0  0.430691  0  0.052482  0.060689  0  3.933439  0
C  C66  1  0.01405345  0.80250999  0.96220584  1  0  0.089071  0  3.687458  0  0  0.062246  0  3.946081  0  0  0.0648  0  3.963414  0  0.430694  0  0.052489  0.060689  0  3.933335  0
C  C67  1  0.51405335  0.19749109  0.53779354  1  0  0.089092  0  3.687521  0  0  0.062259  0  3.946141  0  0  0.064814  0  3.963477  0  0.430694  0  0.052493  0.060702  0  3.933394  0
N  N68  1  0.10664847  0.05342131  0.73219525  1  0  -0.268154  0  3.021317  0  0  -0.232882  0  3.316811  0  0  -0.245706  0  3.328836  0  -0.618913  0  -0.199207  -0.222962  0  3.307987  0
N  N69  1  0.60664837  0.94657880  0.76780483  1  0  -0.268149  0  3.021312  0  0  -0.232875  0  3.316807  0  0  -0.245699  0  3.32883  0  -0.618916  0  -0.19921  -0.222955  0  3.307983  0
N  N70  1  0.89335132  0.94657880  0.26780483  1  0  -0.268202  0  3.021292  0  0  -0.232935  0  3.316802  0  0  -0.245755  0  3.32883  0  -0.618911  0  -0.199207  -0.223016  0  3.30798  0
N  N71  1  0.39335142  0.05342131  0.23219525  1  0  -0.268158  0  3.02132  0  0  -0.232889  0  3.31683  0  0  -0.245715  0  3.328855  0  -0.618905  0  -0.199198  -0.22297  0  3.308008  0
N  N72  1  0.17649736  0.96281276  0.77846606  1  0  -0.057925  0  2.925328  0  0  -0.053515  0  3.211458  0  0  -0.050184  0  3.225196  0  -0.102779  0  -0.073943  -0.055694  0  3.202036  0
N  N73  1  0.67649619  0.03718735  0.72153402  1  0  -0.057913  0  2.925278  0  0  -0.053506  0  3.2114  0  0  -0.050174  0  3.225135  0  -0.102776  0  -0.073932  -0.055684  0  3.201978  0
N  N74  1  0.82350350  0.03718735  0.22153402  1  0  -0.057887  0  2.925283  0  0  -0.053479  0  3.211402  0  0  -0.050149  0  3.225138  0  -0.102777  0  -0.073934  -0.055658  0  3.20198  0
N  N75  1  0.32350254  0.96281276  0.27846606  1  0  -0.057906  0  2.925358  0  0  -0.05351  0  3.211486  0  0  -0.050179  0  3.225224  0  -0.102778  0  -0.07395  -0.055688  0  3.202065  0
N  N76  1  0.25852882  0.89976330  0.71033691  1  0  -0.070627  0  3.318119  0  0  0.009855  0  3.61494  0  0  -0.007448  0  3.638125  0  -0.193753  0  -0.095088  0.021421  0  3.598676  0
N  N77  1  0.75852871  0.10023681  0.78966317  1  0  -0.070637  0  3.318086  0  0  0.009862  0  3.614883  0  0  -0.007441  0  3.638067  0  -0.193741  0  -0.095084  0.021429  0  3.598619  0
N  N78  1  0.74147098  0.10023681  0.28966317  1  0  -0.070647  0  3.31809  0  0  0.009854  0  3.614884  0  0  -0.00745  0  3.638067  0  -0.193751  0  -0.095086  0.021421  0  3.598621  0
N  N79  1  0.24147001  0.89976330  0.21033691  1  0  -0.070672  0  3.318132  0  0  0.00984  0  3.614919  0  0  -0.007462  0  3.638101  0  -0.19375  0  -0.095077  0.021407  0  3.598655  0
N  N80  1  0.24527687  0.94667880  0.62039461  1  0  -0.270306  0  2.920735  0  0  -0.256649  0  3.187058  0  0  -0.263734  0  3.205618  0  -0.621213  0  -0.205533  -0.25187  0  3.174116  0
N  N81  1  0.74527676  0.05332034  0.87960543  1  0  -0.270239  0  2.920821  0  0  -0.256582  0  3.187128  0  0  -0.263668  0  3.205687  0  -0.621288  0  -0.2055  -0.251804  0  3.174186  0
N  N82  1  0.75472293  0.05332034  0.37960543  1  0  -0.270211  0  2.920899  0  0  -0.256555  0  3.187197  0  0  -0.263635  0  3.205761  0  -0.621292  0  -0.205471  -0.251776  0  3.174256  0
N  N83  1  0.25472303  0.94667880  0.12039461  1  0  -0.270234  0  2.920808  0  0  -0.256588  0  3.187119  0  0  -0.263674  0  3.205679  0  -0.621277  0  -0.205511  -0.251809  0  3.174178  0
N  N84  1  0.00012060  0.21603962  0.58302898  1  0  -0.27947  0  3.167391  0  0  -0.215344  0  3.4219  0  0  -0.2317  0  3.440771  0  -1.183842  0  -0.28742  -0.204789  0  3.408927  0
N  N85  1  0.50012050  0.78396049  0.91697110  1  0  -0.279448  0  3.167366  0  0  -0.215314  0  3.421882  0  0  -0.231671  0  3.440752  0  -1.183831  0  -0.287404  -0.20476  0  3.408911  0
N  N86  1  0.99987920  0.78396049  0.41697110  1  0  -0.279523  0  3.167424  0  0  -0.215389  0  3.421947  0  0  -0.231745  0  3.440816  0  -1.183849  0  -0.287441  -0.204835  0  3.408976  0
N  N87  1  0.49987930  0.21604059  0.08302902  1  0  -0.279416  0  3.167426  0  0  -0.215305  0  3.421913  0  0  -0.231663  0  3.440785  0  -1.183832  0  -0.287423  -0.204751  0  3.40894  0
N  N88  1  0.11214584  0.18874644  0.38998361  1  0  -0.231194  0  3.035867  0  0  -0.204491  0  3.313316  0  0  -0.210006  0  3.328441  0  -1.168261  0  -0.299928  -0.20074  0  3.302991  0
N  N89  1  0.61214574  0.81125464  0.11001651  1  0  -0.231156  0  3.035822  0  0  -0.204448  0  3.313265  0  0  -0.209963  0  3.32839  0  -1.168235  0  -0.299895  -0.200697  0  3.30294  0
N  N90  1  0.88785396  0.81125367  0.61001647  1  0  -0.231188  0  3.03583  0  0  -0.204479  0  3.313285  0  0  -0.209993  0  3.328412  0  -1.16825  0  -0.299916  -0.200727  0  3.302961  0
N  N91  1  0.38785406  0.18874644  0.88998361  1  0  -0.231212  0  3.035869  0  0  -0.204515  0  3.313324  0  0  -0.210029  0  3.328451  0  -1.168293  0  -0.299927  -0.200763  0  3.302999  0
N  N92  1  0.21736421  0.53587624  0.87113526  1  0  -0.281084  0  2.956309  0  0  -0.253786  0  3.232096  0  0  -0.26495  0  3.247762  0  -0.673974  0  -0.208362  -0.246305  0  3.221275  0
N  N93  1  0.71736410  0.46412290  0.62886478  1  0  -0.28107  0  2.956315  0  0  -0.253739  0  3.232124  0  0  -0.264905  0  3.247788  0  -0.673985  0  -0.208338  -0.246259  0  3.221304  0
N  N94  1  0.78263665  0.46412290  0.12886478  1  0  -0.281083  0  2.956281  0  0  -0.253749  0  3.232083  0  0  -0.264915  0  3.247749  0  -0.67398  0  -0.208365  -0.246268  0  3.221262  0
N  N95  1  0.28263569  0.53587721  0.37113530  1  0  -0.281091  0  2.956318  0  0  -0.253793  0  3.232102  0  0  -0.264957  0  3.247769  0  -0.673981  0  -0.208374  -0.246313  0  3.221281  0
N  N96  1  0.20329795  0.57252281  0.77711833  1  0  -0.112833  0  3.058579  0  0  -0.080544  0  3.369165  0  0  -0.087654  0  3.383183  0  -0.137984  0  -0.091408  -0.07451  0  3.358886  0
N  N97  1  0.70329785  0.42747633  0.72288096  1  0  -0.112896  0  3.058664  0  0  -0.080609  0  3.369246  0  0  -0.087719  0  3.383264  0  -0.137992  0  -0.091449  -0.074575  0  3.358967  0
N  N98  1  0.79670184  0.42747633  0.22288171  1  0  -0.112883  0  3.058625  0  0  -0.080597  0  3.369208  0  0  -0.087707  0  3.383229  0  -0.138003  0  -0.091421  -0.074563  0  3.35893  0
N  N99  1  0.29670195  0.57252378  0.27711837  1  0  -0.112843  0  3.058586  0  0  -0.080555  0  3.369176  0  0  -0.087665  0  3.383196  0  -0.137998  0  -0.091411  -0.074522  0  3.358897  0
N  N100  1  0.10992491  0.49843355  0.72723588  1  0  -0.05818  0  2.960741  0  0  -0.057944  0  3.254687  0  0  -0.054898  0  3.268175  0  -0.089548  0  -0.078526  -0.059843  0  3.245393  0
N  N101  1  0.60992481  0.50156559  0.77276415  1  0  -0.058171  0  2.960626  0  0  -0.057929  0  3.254559  0  0  -0.054882  0  3.268047  0  -0.08953  0  -0.078535  -0.059827  0  3.245265  0
N  N102  1  0.89007489  0.50156559  0.27276415  1  0  -0.058165  0  2.960651  0  0  -0.057927  0  3.254591  0  0  -0.054882  0  3.268082  0  -0.089534  0  -0.078534  -0.059827  0  3.245297  0
N  N103  1  0.39007499  0.49843355  0.22723588  1  0  -0.058165  0  2.960725  0  0  -0.057931  0  3.254674  0  0  -0.054883  0  3.268163  0  -0.089541  0  -0.078521  -0.059829  0  3.245379  0
N  N104  1  0.06145502  0.41173848  0.78938193  1  0  -0.250115  0  3.272929  0  0  -0.169724  0  3.564498  0  0  -0.192806  0  3.584537  0  -0.696769  0  -0.20735  -0.154122  0  3.550222  0
N  N105  1  0.56145492  0.58826163  0.71061740  1  0  -0.250206  0  3.272717  0  0  -0.16979  0  3.564323  0  0  -0.192873  0  3.584356  0  -0.696756  0  -0.20737  -0.15419  0  3.550049  0
N  N106  1  0.93854477  0.58826163  0.21061740  1  0  -0.250201  0  3.272715  0  0  -0.169783  0  3.564314  0  0  -0.192869  0  3.584351  0  -0.696765  0  -0.20737  -0.154182  0  3.55004  0
N  N107  1  0.43854487  0.41173848  0.28938193  1  0  -0.250118  0  3.272941  0  0  -0.169727  0  3.564507  0  0  -0.19281  0  3.584546  0  -0.696766  0  -0.207348  -0.154127  0  3.550231  0
N  N108  1  0.00945257  0.26396482  0.95703254  1  0  -0.2962  0  3.129519  0  0  -0.244324  0  3.386289  0  0  -0.257193  0  3.403287  0  -1.188665  0  -0.295127  -0.235325  0  3.373829  0
N  N109  1  0.50945246  0.73603529  0.54296680  1  0  -0.296055  0  3.12951  0  0  -0.244191  0  3.386259  0  0  -0.257059  0  3.403256  0  -1.188635  0  -0.295046  -0.235192  0  3.3738  0
N  N110  1  0.99054723  0.73603529  0.04296754  1  0  -0.296145  0  3.129462  0  0  -0.244273  0  3.386229  0  0  -0.257139  0  3.403224  0  -1.188637  0  -0.295092  -0.235274  0  3.37377  0
N  N111  1  0.49054733  0.26396385  0.45703250  1  0  -0.296161  0  3.129482  0  0  -0.244262  0  3.386264  0  0  -0.257129  0  3.403263  0  -1.188682  0  -0.295087  -0.235262  0  3.373804  0
N  N112  1  0.14860711  0.32863758  0.13728649  1  0  -0.230967  0  3.043588  0  0  -0.206086  0  3.325009  0  0  -0.212034  0  3.340734  0  -1.187053  0  -0.302533  -0.202025  0  3.314253  0
N  N113  1  0.64860808  0.67136253  0.36271358  1  0  -0.230904  0  3.043509  0  0  -0.206025  0  3.324926  0  0  -0.211973  0  3.340653  0  -1.187202  0  -0.302498  -0.201963  0  3.314171  0
N  N114  1  0.85139268  0.67136253  0.86271358  1  0  -0.230939  0  3.043632  0  0  -0.206055  0  3.325055  0  0  -0.212  0  3.340781  0  -1.187188  0  -0.302516  -0.201995  0  3.314299  0
N  N115  1  0.35139279  0.32863758  0.63728649  1  0  -0.231039  0  3.043596  0  0  -0.206162  0  3.325011  0  0  -0.212109  0  3.340737  0  -1.187043  0  -0.302561  -0.202101  0  3.314256  0
