# generated using pymatgen
data_La2H17C21N3O16
_symmetry_space_group_name_H-M   'P 1'
_cell_length_a   11.25896985
_cell_length_b   11.36089471
_cell_length_c   12.69000000
_cell_angle_alpha   103.05724050
_cell_angle_beta   106.94720186
_cell_angle_gamma   114.45087403
_symmetry_Int_Tables_number   1
_chemical_formula_structural   La2H17C21N3O16
_chemical_formula_sum   'La4 H34 C42 N6 O32'
_cell_volume   1296.68557202
_cell_formula_units_Z   2
loop_
 _symmetry_equiv_pos_site_id
 _symmetry_equiv_pos_as_xyz
  1  'x, y, z'
loop_
 _atom_site_type_symbol
 _atom_site_label
 _atom_site_symmetry_multiplicity
 _atom_site_fract_x
 _atom_site_fract_y
 _atom_site_fract_z
 _atom_site_occupancy
 _atom_site_hle17_bader_spin_density
 _atom_site_hle17_ddec_charge
 _atom_site_hle17_ddec_spin_density
 _atom_site_hle17_ddec_sum_bond_order
 _atom_site_hle17_magmom
 _atom_site_hse06_10hf_bader_spin_density
 _atom_site_hse06_10hf_ddec_charge
 _atom_site_hse06_10hf_ddec_spin_density
 _atom_site_hse06_10hf_ddec_sum_bond_order
 _atom_site_hse06_10hf_magmom
 _atom_site_hse06_bader_spin_density
 _atom_site_hse06_ddec_charge
 _atom_site_hse06_ddec_spin_density
 _atom_site_hse06_ddec_sum_bond_order
 _atom_site_hse06_magmom
 _atom_site_pbe_bader_charge
 _atom_site_pbe_bader_spin_density
 _atom_site_pbe_cm5_charge
 _atom_site_pbe_ddec_charge
 _atom_site_pbe_ddec_spin_density
 _atom_site_pbe_ddec_sum_bond_order
 _atom_site_pbe_magmom
La  La0  1  0.18566496  0.13471808  0.18072826  1  0  2.042565  0  1.760568  0  0  1.886904  0  2.272769  0  0  1.986104  0  2.183649  0  2.23846  0  1.389915  1.812803  0  2.335086  0
La  La1  1  0.81433117  0.86528186  0.81927104  1  0  2.04263  0  1.760473  0  0  1.886962  0  2.272684  0  0  1.986158  0  2.183563  0  2.238516  0  1.389942  1.812862  0  2.335002  0
La  La2  1  0.16026480  0.43206966  0.52019106  1  0  2.087721  0  1.758113  0  0  1.950315  0  2.263377  0  0  2.04804  0  2.17221  0  2.243224  0  1.406378  1.877386  0  2.326988  0
La  La3  1  0.83973356  0.56792923  0.47980861  1  0  2.087768  0  1.758039  0  0  1.950372  0  2.263308  0  0  2.048098  0  2.172142  0  2.243275  0  1.406376  1.877441  0  2.326924  0
H  H4  1  0.71792830  0.25240866  0.14792934  1  0  0.109465  0  0.950105  0  0  0.117849  0  1.012673  0  0  0.121537  0  1.010436  0  0.091823  0  0.113214  0.115094  0  1.014568  0
H  H5  1  0.28206412  0.74758602  0.85207267  1  0  0.109431  0  0.950084  0  0  0.117815  0  1.012649  0  0  0.1215  0  1.010411  0  0.092214  0  0.113214  0.115051  0  1.014554  0
H  H6  1  0.63321723  0.19854251  0.92771105  1  0  0.121195  0  0.982508  0  0  0.129083  0  1.040551  0  0  0.133278  0  1.037485  0  0.174977  0  0.111482  0.126082  0  1.042795  0
H  H7  1  0.36677983  0.80145744  0.07229164  1  0  0.121145  0  0.982509  0  0  0.129021  0  1.040578  0  0  0.133211  0  1.037513  0  0.174904  0  0.111468  0.126019  0  1.042817  0
H  H8  1  0.36744995  0.10199639  0.80281966  1  0  0.114336  0  0.93849  0  0  0.124559  0  0.996352  0  0  0.1281  0  0.994259  0  0.101903  0  0.114992  0.121971  0  0.998119  0
H  H9  1  0.63254674  0.89800461  0.19718158  1  0  0.114349  0  0.938507  0  0  0.124589  0  0.996325  0  0  0.128129  0  0.994232  0  0.101873  0  0.114996  0.122  0  0.998097  0
H  H10  1  0.00392839  0.47866842  0.91014990  1  0  0.122327  0  0.949774  0  0  0.130358  0  1.012397  0  0  0.134192  0  1.009713  0  0.137873  0  0.115492  0.127529  0  1.014563  0
H  H11  1  0.99607257  0.52132836  0.08984923  1  0  0.122349  0  0.949695  0  0  0.130372  0  1.012333  0  0  0.134203  0  1.009647  0  0.137797  0  0.115477  0.127544  0  1.014499  0
H  H12  1  0.18015035  0.43244489  0.04147357  1  0  0.098026  0  0.946232  0  0  0.110212  0  1.00261  0  0  0.11392  0  0.99916  0  0.104134  0  0.115017  0.107431  0  1.00535  0
H  H13  1  0.81984857  0.56754979  0.95852618  1  0  0.098055  0  0.946207  0  0  0.110243  0  1.002581  0  0  0.11395  0  0.999128  0  0.104143  0  0.115041  0.107461  0  1.005322  0
H  H14  1  0.35791758  0.39983703  0.97263088  1  0  0.11789  0  0.948963  0  0  0.123129  0  1.015017  0  0  0.126578  0  1.013664  0  0.129212  0  0.112658  0.120557  0  1.016257  0
H  H15  1  0.64208821  0.60016713  0.02737020  1  0  0.117948  0  0.948945  0  0  0.123185  0  1.015005  0  0  0.126604  0  1.013683  0  0.129174  0  0.112677  0.12061  0  1.016248  0
H  H16  1  0.21128754  0.03143264  0.60008659  1  0  0.123392  0  0.934849  0  0  0.129802  0  0.999234  0  0  0.134106  0  0.995899  0  0.109732  0  0.116858  0.126683  0  1.001785  0
H  H17  1  0.78871658  0.96856836  0.39991421  1  0  0.123396  0  0.934815  0  0  0.129811  0  0.999197  0  0  0.134114  0  0.995862  0  0.109714  0  0.116863  0.126698  0  1.00174  0
H  H18  1  0.28334217  0.84661221  0.55879570  1  0  0.103576  0  0.966186  0  0  0.112079  0  1.02659  0  0  0.115868  0  1.023685  0  0.128056  0  0.111367  0.10925  0  1.028933  0
H  H19  1  0.71666158  0.15338984  0.44120285  1  0  0.103551  0  0.966171  0  0  0.112063  0  1.02657  0  0  0.115853  0  1.023665  0  0.12805  0  0.111378  0.109233  0  1.028918  0
H  H20  1  0.28362897  0.75881331  0.35919109  1  0  0.124871  0  0.932873  0  0  0.132858  0  0.992167  0  0  0.13733  0  0.989054  0  0.125097  0  0.117304  0.129533  0  0.994663  0
H  H21  1  0.71637292  0.24118874  0.64080540  1  0  0.124849  0  0.932935  0  0  0.13286  0  0.992209  0  0  0.137333  0  0.989095  0  0.125215  0  0.117286  0.129536  0  0.994704  0
H  H22  1  0.88931513  0.14952268  0.29878067  1  0  0.435209  0  0.865081  0  0  0.404524  0  0.929049  0  0  0.415777  0  0.91278  0  0.644897  0  0.301141  0.396428  0  0.940768  0
H  H23  1  0.11068750  0.85047726  0.70121716  1  0  0.435264  0  0.865013  0  0  0.404595  0  0.928969  0  0  0.41585  0  0.912697  0  0.644807  0  0.301117  0.396493  0  0.940698  0
H  H24  1  0.95376495  0.19676123  0.03365254  1  0  0.438504  0  0.860532  0  0  0.406702  0  0.92561  0  0  0.419169  0  0.907505  0  0.64699  0  0.298866  0.397766  0  0.938536  0
H  H25  1  0.04623471  0.80324188  0.96634359  1  0  0.43854  0  0.860481  0  0  0.406738  0  0.925561  0  0  0.419204  0  0.907456  0  0.647011  0  0.298895  0.397801  0  0.938488  0
H  H26  1  0.32100216  0.45890471  0.21818542  1  0  0.428083  0  0.819726  0  0  0.406201  0  0.881234  0  0  0.415746  0  0.87043  0  0.606103  0  0.324735  0.399202  0  0.889242  0
H  H27  1  0.67899453  0.54109629  0.78181818  1  0  0.428073  0  0.819742  0  0  0.406185  0  0.88126  0  0  0.415731  0  0.870456  0  0.606167  0  0.324721  0.399187  0  0.889267  0
H  H28  1  0.45449547  0.64899618  0.53683849  1  0  0.443309  0  0.842929  0  0  0.41554  0  0.899228  0  0  0.427615  0  0.881592  0  0.63722  0  0.312535  0.406831  0  0.911943  0
H  H29  1  0.54550345  0.35099850  0.46316362  1  0  0.443394  0  0.842817  0  0  0.415594  0  0.899157  0  0  0.427666  0  0.881526  0  0.637196  0  0.312542  0.406885  0  0.911873  0
H  H30  1  0.45938517  0.45961195  0.29401851  1  0  0.425179  0  0.892795  0  0  0.389343  0  0.964592  0  0  0.402578  0  0.94575  0  0.64295  0  0.296499  0.379904  0  0.978012  0
H  H31  1  0.54061932  0.54039326  0.70598087  1  0  0.425136  0  0.89287  0  0  0.389281  0  0.964691  0  0  0.402515  0  0.945849  0  0.642777  0  0.296449  0.379842  0  0.978111  0
H  H32  1  0.04585930  0.32707356  0.16630303  1  0  0.435845  0  0.8663  0  0  0.405453  0  0.929315  0  0  0.416975  0  0.912529  0  0.647998  0  0.299707  0.397206  0  0.94131  0
H  H33  1  0.95413907  0.67292533  0.83369585  1  0  0.43582  0  0.866331  0  0  0.405433  0  0.929336  0  0  0.416953  0  0.912554  0  0.647797  0  0.299699  0.397188  0  0.941327  0
H  H34  1  0.82218581  0.24676761  0.33534083  1  0  0.429409  0  0.867438  0  0  0.400305  0  0.929256  0  0  0.410906  0  0.913723  0  0.651948  0  0.304647  0.392668  0  0.94047  0
H  H35  1  0.17781515  0.75322918  0.66465672  1  0  0.429407  0  0.867448  0  0  0.400288  0  0.929293  0  0  0.41089  0  0.913759  0  0.651976  0  0.304606  0.392651  0  0.940508  0
H  H36  1  0.37495963  0.51543540  0.40480004  1  0  0.441831  0  0.853008  0  0  0.414038  0  0.910168  0  0  0.425929  0  0.892754  0  0.652895  0  0.305787  0.405439  0  0.922771  0
H  H37  1  0.62504115  0.48455928  0.59520019  1  0  0.441861  0  0.852975  0  0  0.414045  0  0.910172  0  0  0.42594  0  0.892756  0  0.652912  0  0.305759  0.405441  0  0.922784  0
C  C38  1  0.50851343  0.20176566  0.14154792  1  0  0.090462  0  3.763648  0  0  0.096092  0  4.012505  0  0  0.09591  0  4.032469  0  0.552867  0  0.11692  0.095856  0  3.999192  0
C  C39  1  0.49147936  0.79822796  0.85845397  1  0  0.090579  0  3.763763  0  0  0.096126  0  4.012658  0  0  0.095939  0  4.032629  0  0.552652  0  0.116835  0.09589  0  3.999341  0
C  C40  1  0.60561392  0.21447806  0.09081752  1  0  -0.087545  0  3.672732  0  0  -0.114861  0  3.925859  0  0  -0.118033  0  3.946093  0  -0.042298  0  -0.067063  -0.112736  0  3.91258  0
C  C41  1  0.39438073  0.78551556  0.90918406  1  0  -0.087445  0  3.672833  0  0  -0.114726  0  3.92594  0  0  -0.117892  0  3.946176  0  -0.04282  0  -0.066965  -0.112595  0  3.912666  0
C  C42  1  0.55724058  0.18152765  0.96795862  1  0  0.003846  0  3.653845  0  0  -0.010341  0  3.901537  0  0  -0.009347  0  3.918774  0  -0.012001  0  -0.057678  -0.010959  0  3.889993  0
C  C43  1  0.44275462  0.81847230  0.03204360  1  0  0.003952  0  3.653676  0  0  -0.010244  0  3.901374  0  0  -0.009247  0  3.918609  0  -0.011968  0  -0.057647  -0.01086  0  3.889826  0
C  C44  1  0.41129132  0.12993288  0.89919608  1  0  -0.075967  0  3.658633  0  0  -0.101304  0  3.907004  0  0  -0.103258  0  3.924218  0  -0.040997  0  -0.061237  -0.100258  0  3.89597  0
C  C45  1  0.58870760  0.87006706  0.10080552  1  0  -0.076092  0  3.658567  0  0  -0.10144  0  3.906882  0  0  -0.103393  0  3.924096  0  -0.040911  0  -0.061264  -0.100393  0  3.895848  0
C  C46  1  0.32035115  0.11700231  0.95633133  1  0  0.101119  0  3.755892  0  0  0.10682  0  4.002137  0  0  0.1073  0  4.020629  0  0.563381  0  0.121128  0.106142  0  3.990009  0
C  C47  1  0.67964424  0.88299447  0.04366557  1  0  0.10114  0  3.756171  0  0  0.106903  0  4.002302  0  0  0.107379  0  4.020792  0  0.563646  0  0.121101  0.106227  0  3.990169  0
C  C48  1  0.55407450  0.24159770  0.27412420  1  0  0.65217  0  3.879159  0  0  0.59664  0  4.182089  0  0  0.632254  0  4.173551  0  1.583314  0  0.232967  0.572352  0  4.187049  0
C  C49  1  0.44591848  0.75839804  0.72587659  1  0  0.652159  0  3.879237  0  0  0.596699  0  4.182086  0  0  0.632317  0  4.173547  0  1.583338  0  0.232997  0.572412  0  4.187048  0
C  C50  1  0.16008732  0.05293336  0.88736814  1  0  0.629116  0  3.927895  0  0  0.577711  0  4.228064  0  0  0.612348  0  4.22141  0  1.591592  0  0.22439  0.554112  0  4.23166  0
C  C51  1  0.83990882  0.94706659  0.11262801  1  0  0.629176  0  3.92786  0  0  0.57772  0  4.228061  0  0  0.612357  0  4.221399  0  1.591832  0  0.224356  0.554118  0  4.231652  0
C  C52  1  0.07843678  0.45821539  0.77316020  1  0  0.087516  0  3.785997  0  0  0.094226  0  4.033143  0  0  0.093732  0  4.053544  0  0.498138  0  0.115572  0.094343  0  4.019356  0
C  C53  1  0.92156493  0.54178455  0.22683975  1  0  0.087583  0  3.785972  0  0  0.09432  0  4.033038  0  0  0.093828  0  4.053437  0  0.498282  0  0.115581  0.094431  0  4.019258  0
C  C54  1  0.08035729  0.46040457  0.88391212  1  0  -0.080523  0  3.659073  0  0  -0.108817  0  3.91185  0  0  -0.110604  0  3.929436  0  -0.000371  0  -0.061477  -0.107751  0  3.900278  0
C  C55  1  0.91964534  0.53959538  0.11608886  1  0  -0.080582  0  3.65909  0  0  -0.108906  0  3.911896  0  0  -0.110687  0  3.929477  0  5.7e-05  0  -0.061501  -0.107837  0  3.900323  0
C  C56  1  0.17881014  0.43498188  0.95599314  1  0  0.023593  0  3.64836  0  0  0.005903  0  3.901549  0  0  0.007768  0  3.917166  0  -0.058846  0  -0.052303  0.004761  0  3.890993  0
C  C57  1  0.82119175  0.56501490  0.04400702  1  0  0.02361  0  3.648363  0  0  0.00593  0  3.901534  0  0  0.007797  0  3.917143  0  -0.059527  0  -0.052288  0.004789  0  3.890974  0
C  C58  1  0.27542004  0.41454361  0.91761435  1  0  -0.081088  0  3.648376  0  0  -0.105835  0  3.898341  0  0  -0.108024  0  3.916173  0  -0.009337  0  -0.060911  -0.104434  0  3.886628  0
C  C59  1  0.72458575  0.58546055  0.08238752  1  0  -0.081138  0  3.648358  0  0  -0.10589  0  3.898329  0  0  -0.108051  0  3.916171  0  -0.008632  0  -0.060921  -0.104482  0  3.886609  0
C  C60  1  0.27065627  0.42111324  0.80797670  1  0  0.112609  0  3.744894  0  0  0.117132  0  3.989179  0  0  0.117887  0  4.008425  0  0.546107  0  0.121386  0.116281  0  3.976417  0
C  C61  1  0.72934916  0.57889197  0.19202529  1  0  0.112623  0  3.744776  0  0  0.117146  0  3.989065  0  0  0.117904  0  4.008298  0  0.546055  0  0.121324  0.116289  0  3.9763  0
C  C62  1  0.97634168  0.48256193  0.68805913  1  0  0.629284  0  3.934188  0  0  0.577136  0  4.235269  0  0  0.611445  0  4.229216  0  1.562494  0  0.223573  0.553743  0  4.238404  0
C  C63  1  0.02365687  0.51743380  0.31194152  1  0  0.629206  0  3.934146  0  0  0.577136  0  4.235109  0  0  0.611445  0  4.229055  0  1.562566  0  0.223571  0.553744  0  4.238246  0
C  C64  1  0.38505461  0.42333931  0.76843181  1  0  0.619277  0  3.911283  0  0  0.571504  0  4.209455  0  0  0.604938  0  4.201474  0  1.575265  0  0.215059  0.548731  0  4.214186  0
C  C65  1  0.61495509  0.57667223  0.23157098  1  0  0.61937  0  3.910932  0  0  0.571608  0  4.2091  0  0  0.605044  0  4.201115  0  1.574838  0  0.215162  0.548839  0  4.21383  0
C  C66  1  0.19435287  0.04877951  0.43183968  1  0  0.127501  0  3.734128  0  0  0.13416  0  3.972766  0  0  0.135937  0  3.989734  0  0.509688  0  0.129685  0.132601  0  3.961488  0
C  C67  1  0.80564753  0.95122149  0.56816094  1  0  0.127611  0  3.733929  0  0  0.134211  0  3.972631  0  0  0.135984  0  3.989602  0  0.509144  0  0.129676  0.132652  0  3.961355  0
C  C68  1  0.22042335  0.99337023  0.51768791  1  0  -0.078996  0  3.639628  0  0  -0.104846  0  3.888373  0  0  -0.106883  0  3.904902  0  -0.002148  0  -0.057604  -0.103556  0  3.877547  0
C  C69  1  0.77958151  0.00663393  0.48231214  1  0  -0.079061  0  3.639626  0  0  -0.104896  0  3.888377  0  0  -0.106928  0  3.904905  0  -0.001837  0  -0.057625  -0.103609  0  3.877547  0
C  C70  1  0.25768241  0.89069822  0.49371007  1  0  0.00136  0  3.677502  0  0  -0.016151  0  3.932262  0  0  -0.014813  0  3.949629  0  -0.02816  0  -0.057558  -0.017029  0  3.920698  0
C  C71  1  0.74232078  0.10930278  0.50628891  1  0  0.00137  0  3.677534  0  0  -0.016145  0  3.932294  0  0  -0.014808  0  3.949661  0  -0.028127  0  -0.057599  -0.017025  0  3.920732  0
C  C72  1  0.25838453  0.84101648  0.38297059  1  0  -0.095722  0  3.662227  0  0  -0.120655  0  3.912451  0  0  -0.12428  0  3.931363  0  -0.037677  0  -0.065676  -0.118018  0  3.899744  0
C  C73  1  0.74161588  0.15898452  0.61702767  1  0  -0.095668  0  3.662304  0  0  -0.120627  0  3.912529  0  0  -0.124249  0  3.93144  0  -0.037827  0  -0.065638  -0.117989  0  3.89982  0
C  C74  1  0.22237296  0.89652583  0.29938669  1  0  0.110596  0  3.74838  0  0  0.115646  0  3.994294  0  0  0.116417  0  4.015052  0  0.534553  0  0.120714  0.114853  0  3.980086  0
C  C75  1  0.77762856  0.10347727  0.70061228  1  0  0.110567  0  3.748427  0  0  0.115612  0  3.994379  0  0  0.116378  0  4.015138  0  0.534541  0  0.120729  0.114818  0  3.98017  0
C  C76  1  0.16712000  0.16831038  0.45228768  1  0  0.631108  0  3.90233  0  0  0.58377  0  4.196185  0  0  0.619111  0  4.18959  0  1.578651  0  0.214404  0.559637  0  4.199645  0
C  C77  1  0.83288134  0.83169062  0.54771475  1  0  0.630972  0  3.90244  0  0  0.583671  0  4.19629  0  0  0.619013  0  4.189697  0  1.578658  0  0.214302  0.55954  0  4.199746  0
C  C78  1  0.20688522  0.84041464  0.17320153  1  0  0.614501  0  3.93248  0  0  0.564433  0  4.237962  0  0  0.597663  0  4.230763  0  1.59159  0  0.212599  0.541925  0  4.24191  0
C  C79  1  0.79311147  0.15958636  0.82679655  1  0  0.614504  0  3.932569  0  0  0.564415  0  4.238103  0  0  0.597648  0  4.2309  0  1.591606  0  0.212575  0.541907  0  4.24205  0
N  N80  1  0.36898941  0.15638006  0.07570059  1  0  -0.375128  0  3.234567  0  0  -0.334452  0  3.487104  0  0  -0.351022  0  3.509381  0  -1.269701  0  -0.3501  -0.322284  0  3.47157  0
N  N81  1  0.63100394  0.84361461  0.92429929  1  0  -0.375178  0  3.234709  0  0  -0.334493  0  3.487203  0  0  -0.35106  0  3.509481  0  -1.269736  0  -0.350006  -0.322323  0  3.471668  0
N  N82  1  0.17168154  0.43913152  0.73611100  1  0  -0.389529  0  3.266347  0  0  -0.34955  0  3.520169  0  0  -0.366795  0  3.543748  0  -1.249103  0  -0.363737  -0.336956  0  3.503649  0
N  N83  1  0.82832276  0.56087159  0.26389106  1  0  -0.389612  0  3.266272  0  0  -0.349629  0  3.520062  0  0  -0.366877  0  3.543648  0  -1.249297  0  -0.363704  -0.337028  0  3.503543  0
N  N84  1  0.19596640  0.00165058  0.32567967  1  0  -0.386418  0  3.256657  0  0  -0.345852  0  3.51057  0  0  -0.363446  0  3.532038  0  -1.261716  0  -0.373879  -0.332906  0  3.495359  0
N  N85  1  0.80403234  0.99835253  0.67432016  1  0  -0.386437  0  3.256609  0  0  -0.345861  0  3.51055  0  0  -0.363449  0  3.532019  0  -1.261501  0  -0.373847  -0.332911  0  3.495338  0
O  O86  1  0.68858598  0.29842667  0.34218675  1  0  -0.686957  0  2.0251  0  0  -0.630401  0  2.273564  0  0  -0.660546  0  2.262944  0  -1.218063  0  -0.348625  -0.608657  0  2.280131  0
O  O87  1  0.31140755  0.70157012  0.65781282  1  0  -0.686994  0  2.025128  0  0  -0.630467  0  2.273597  0  0  -0.660602  0  2.262954  0  -1.218053  0  -0.348653  -0.608721  0  2.280163  0
O  O88  1  0.45567854  0.21862347  0.31041405  1  0  -0.646299  0  2.00438  0  0  -0.592218  0  2.243232  0  0  -0.623632  0  2.235126  0  -1.185919  0  -0.332129  -0.569868  0  2.247984  0
O  O89  1  0.54431499  0.78137331  0.68958788  1  0  -0.646405  0  2.004519  0  0  -0.592336  0  2.243313  0  0  -0.623752  0  2.235202  0  -1.185901  0  -0.332202  -0.569987  0  2.248071  0
O  O90  1  0.10118202  0.98911204  0.77519103  1  0  -0.608285  0  1.986881  0  0  -0.559616  0  2.212626  0  0  -0.585423  0  2.204743  0  -1.20486  0  -0.289899  -0.541546  0  2.217603  0
O  O91  1  0.89881299  0.01088053  0.22480570  1  0  -0.608229  0  1.986831  0  0  -0.55956  0  2.212607  0  0  -0.585364  0  2.204719  0  -1.204944  0  -0.289864  -0.54149  0  2.217583  0
O  O92  1  0.08981144  0.06283787  0.94960809  1  0  -0.71134  0  2.064419  0  0  -0.653605  0  2.322646  0  0  -0.691377  0  2.317973  0  -1.205968  0  -0.391723  -0.626155  0  2.324278  0
O  O93  1  0.91018488  0.93715891  0.05038748  1  0  -0.711459  0  2.064416  0  0  -0.653651  0  2.322566  0  0  -0.691437  0  2.317925  0  -1.206065  0  -0.391709  -0.626231  0  2.324271  0
O  O94  1  0.96908735  0.45312559  0.58112121  1  0  -0.727969  0  2.087759  0  0  -0.67288  0  2.349946  0  0  -0.711045  0  2.34646  0  -1.198983  0  -0.408821  -0.645209  0  2.351084  0
O  O95  1  0.03091231  0.54687225  0.41888016  1  0  -0.727895  0  2.08771  0  0  -0.672906  0  2.349944  0  0  -0.711068  0  2.34646  0  -1.199021  0  -0.408835  -0.645235  0  2.351086  0
O  O96  1  0.90542247  0.53141522  0.72068037  1  0  -0.608558  0  2.006874  0  0  -0.557282  0  2.236732  0  0  -0.583262  0  2.227157  0  -1.176675  0  -0.290456  -0.539139  0  2.242934  0
O  O97  1  0.09457793  0.46858051  0.27932155  1  0  -0.608537  0  2.006781  0  0  -0.557281  0  2.236597  0  0  -0.58326  0  2.227021  0  -1.17674  0  -0.29045  -0.539135  0  2.2428  0
O  O98  1  0.47611741  0.39771109  0.82313530  1  0  -0.573335  0  1.894057  0  0  -0.535022  0  2.108433  0  0  -0.556507  0  2.100975  0  -1.156978  0  -0.310449  -0.519876  0  2.113166  0
O  O99  1  0.52389823  0.60230993  0.17687410  1  0  -0.573363  0  1.893821  0  0  -0.53507  0  2.10822  0  0  -0.556556  0  2.100761  0  -1.156801  0  -0.310466  -0.519925  0  2.112953  0
O  O100  1  0.38407262  0.46419794  0.67975641  1  0  -0.71725  0  2.089565  0  0  -0.660128  0  2.330649  0  0  -0.694251  0  2.322835  0  -1.192225  0  -0.378831  -0.635539  0  2.335065  0
O  O101  1  0.61593095  0.53580727  0.32024352  1  0  -0.717283  0  2.089454  0  0  -0.660215  0  2.330571  0  0  -0.694347  0  2.322764  0  -1.192299  0  -0.378913  -0.635625  0  2.334986  0
O  O102  1  0.12273556  0.19568087  0.52956881  1  0  -0.60508  0  1.947435  0  0  -0.566046  0  2.179915  0  0  -0.595567  0  2.174266  0  -1.161422  0  -0.340977  -0.545006  0  2.182842  0
O  O103  1  0.87726727  0.80432118  0.47043580  1  0  -0.605037  0  1.947545  0  0  -0.566027  0  2.180036  0  0  -0.595537  0  2.174365  0  -1.161358  0  -0.340953  -0.544988  0  2.182965  0
O  O104  1  0.19486810  0.24240928  0.38923692  1  0  -0.719576  0  1.994771  0  0  -0.667244  0  2.249064  0  0  -0.705152  0  2.24299  0  -1.20488  0  -0.39447  -0.639816  0  2.251979  0
O  O105  1  0.80512562  0.75758961  0.61076391  1  0  -0.719516  0  1.994707  0  0  -0.667178  0  2.248967  0  0  -0.705086  0  2.24289  0  -1.204989  0  -0.394412  -0.639755  0  2.251882  0
O  O106  1  0.17706240  0.90632284  0.10769340  1  0  -0.708699  0  2.060447  0  0  -0.655554  0  2.31077  0  0  -0.68919  0  2.30255  0  -1.204152  0  -0.384165  -0.631244  0  2.315382  0
O  O107  1  0.82293485  0.09367921  0.89230504  1  0  -0.708672  0  2.060488  0  0  -0.655512  0  2.310812  0  0  -0.689141  0  2.302583  0  -1.20409  0  -0.384125  -0.631203  0  2.315426  0
O  O108  1  0.21991461  0.73655898  0.13956672  1  0  -0.567687  0  1.927429  0  0  -0.530954  0  2.14766  0  0  -0.552959  0  2.139599  0  -1.160944  0  -0.30644  -0.515404  0  2.152686  0
O  O109  1  0.78008357  0.26344307  0.86043275  1  0  -0.5677  0  1.927548  0  0  -0.530967  0  2.147825  0  0  -0.552977  0  2.139765  0  -1.161028  0  -0.306463  -0.515418  0  2.152852  0
O  O110  1  0.36680287  0.55913669  0.47733422  1  0  -0.893496  0  1.879502  0  0  -0.84423  0  2.068342  0  0  -0.86929  0  2.031329  0  -1.282238  0  -0.651141  -0.825934  0  2.094521  0
O  O111  1  0.63319957  0.44085587  0.52266838  1  0  -0.893616  0  1.879418  0  0  -0.844325  0  2.068341  0  0  -0.869388  0  2.031322  0  -1.282211  0  -0.651133  -0.826023  0  2.094526  0
O  O112  1  0.34853066  0.41125194  0.26713851  1  0  -0.856941  0  1.877899  0  0  -0.798595  0  2.07222  0  0  -0.825276  0  2.043631  0  -1.247243  0  -0.591362  -0.779268  0  2.092243  0
O  O113  1  0.65147253  0.58874906  0.73286204  1  0  -0.856908  0  1.87795  0  0  -0.798564  0  2.072337  0  0  -0.825252  0  2.043748  0  -1.247215  0  -0.591313  -0.779237  0  2.09236  0
O  O114  1  0.04140239  0.24512757  0.11239223  1  0  -0.902778  0  1.842598  0  0  -0.850696  0  2.038795  0  0  -0.877894  0  2.004858  0  -1.295951  0  -0.641478  -0.830769  0  2.062368  0
O  O115  1  0.95860117  0.75487765  0.88760297  1  0  -0.902777  0  1.84257  0  0  -0.850693  0  2.038769  0  0  -0.877876  0  2.004806  0  -1.295763  0  -0.641502  -0.830767  0  2.06234  0
O  O116  1  0.91099270  0.24261587  0.35060776  1  0  -0.891688  0  1.867409  0  0  -0.843298  0  2.059063  0  0  -0.868592  0  2.027718  0  -1.294175  0  -0.626798  -0.824777  0  2.080972  0
O  O117  1  0.08901105  0.75738619  0.64938369  1  0  -0.891724  0  1.867321  0  0  -0.843336  0  2.058916  0  0  -0.868636  0  2.027575  0  -1.294171  0  -0.626718  -0.824811  0  2.080827  0
