# generated using pymatgen
data_MnH11C14(NO2)2
_symmetry_space_group_name_H-M   'P 1'
_cell_length_a   7.97081341
_cell_length_b   9.53225572
_cell_length_c   9.46533293
_cell_angle_alpha   103.71228808
_cell_angle_beta   101.91447417
_cell_angle_gamma   101.94053241
_symmetry_Int_Tables_number   1
_chemical_formula_structural   MnH11C14(NO2)2
_chemical_formula_sum   'Mn2 H22 C28 N4 O8'
_cell_volume   658.40024123
_cell_formula_units_Z   2
loop_
 _symmetry_equiv_pos_site_id
 _symmetry_equiv_pos_as_xyz
  1  'x, y, z'
loop_
 _atom_site_type_symbol
 _atom_site_label
 _atom_site_symmetry_multiplicity
 _atom_site_fract_x
 _atom_site_fract_y
 _atom_site_fract_z
 _atom_site_occupancy
 _atom_site_pbe_cm5_charge
 _atom_site_pbe_ddec_charge
 _atom_site_pbe_ddec_spin_density
 _atom_site_pbe_ddec_sum_bond_order
 _atom_site_pbe_magmom
Mn  Mn0  1  0.56875803  0.53618848  0.30331240  1  0.575304  0.670227  0.63863  3.207319  0.531
Mn  Mn1  1  0.42850295  0.71131760  0.47124293  1  0.575896  0.790216  -4.387882  2.665708  -4.116
H  H2  1  0.94902634  0.67784741  0.14171787  1  0.105536  0.109753  8.8e-05  1.050024  0.0
H  H3  1  0.05121027  0.85094618  0.30216522  1  0.104733  0.108161  0.000382  1.051502  0.0
H  H4  1  0.72234441  0.69467597  0.92927969  1  0.102274  0.111078  1.4e-05  1.002032  0.0
H  H5  1  0.28537516  0.06139053  0.29533373  1  0.102065  0.111608  0.00014  1.00265  0.0
H  H6  1  0.00304684  0.50738935  0.62512488  1  0.103558  0.107467  -0.000297  1.073559  0.0
H  H7  1  0.01133402  0.36519151  0.49136450  1  0.101807  0.102927  -3.7e-05  1.083684  0.0
H  H8  1  0.84066660  0.37195729  0.31197534  1  0.115765  0.076613  -0.000451  1.062207  0.0
H  H9  1  0.15620500  0.69782320  0.63989345  1  0.115004  0.075684  -0.001646  1.065952  -0.001
H  H10  1  0.97226387  0.20572958  0.15082411  1  0.102996  0.110091  -0.000146  1.056044  0.0
H  H11  1  0.02275693  0.85768014  0.80564234  1  0.105019  0.11379  -7.8e-05  1.047005  0.0
H  H12  1  0.65067031  0.28247418  0.76681675  1  0.103922  0.107464  0.000568  1.027375  0.0
H  H13  1  0.33754913  0.23848299  0.72179594  1  0.104882  0.108517  -0.00022  1.032175  0.0
H  H14  1  0.50608062  0.42047238  0.94330087  1  0.116809  0.07198  0.000444  1.070969  0.0
H  H15  1  0.48084455  0.06341757  0.58004699  1  0.117567  0.074322  -0.000302  1.050267  0.0
H  H16  1  0.84117756  0.00972284  0.83757221  1  0.10165  0.110527  0.000437  0.97443  0.0
H  H17  1  0.14992546  0.16707266  0.99865653  1  0.102224  0.111719  -0.000364  0.973453  0.0
H  H18  1  0.84362348  0.12945868  0.72161852  1  0.092879  0.098807  6.6e-05  1.022384  0.0
H  H19  1  0.15094934  0.28360513  0.87952632  1  0.093809  0.099466  -4.9e-05  1.025576  0.0
H  H20  1  0.30223869  0.52173183  0.72188599  1  0.296325  0.302095  0.000305  0.981945  0.0
H  H21  1  0.70885311  0.27322052  0.47076207  1  0.299947  0.299469  -0.000194  0.972261  0.0
H  H22  1  0.39874449  0.56632599  0.91523714  1  0.300843  0.296657  -0.000311  0.987373  0.0
H  H23  1  0.61143723  0.08173989  0.43396515  1  0.296787  0.29555  0.000111  1.008603  0.0
C  C24  1  0.25633601  0.61118307  0.14658934  1  0.218988  0.568889  -0.004657  4.124034  -0.004
C  C25  1  0.73762647  0.85253912  0.37049362  1  0.218757  0.570435  -0.002781  4.122895  -0.001
C  C26  1  0.11984021  0.60342010  0.00942982  1  -0.027682  -0.159582  -0.0028  3.916048  -0.002
C  C27  1  0.88274585  0.98351985  0.38055523  1  -0.028008  -0.160281  -0.002864  3.918325  -0.002
C  C28  1  0.96555652  0.64737212  0.02834048  1  -0.083907  -0.073904  -0.000766  3.994648  -0.001
C  C29  1  0.03714934  0.96419963  0.33649229  1  -0.084056  -0.07275  -0.000642  3.985819  -0.001
C  C30  1  0.83418398  0.65160949  0.90892452  1  -0.105935  -0.14758  -0.000296  4.017696  0.0
C  C31  1  0.17291909  0.08300112  0.33717132  1  -0.106635  -0.153002  -0.001089  4.014812  -0.001
C  C32  1  0.13684367  0.55652009  0.85959879  1  0.109154  0.299804  -0.000902  4.057859  -0.001
C  C33  1  0.87014381  0.13343176  0.43322421  1  0.109193  0.301051  -0.000718  4.051203  0.0
C  C34  1  0.99222138  0.54470457  0.73938312  1  -0.102687  -0.231116  -0.001341  3.957743  -0.001
C  C35  1  0.01757905  0.25123938  0.44839495  1  -0.104874  -0.232737  -0.001648  3.969641  -0.001
C  C36  1  0.84651350  0.59730920  0.76065592  1  -0.021715  -0.025543  -0.00127  4.049294  -0.001
C  C37  1  0.16417604  0.23072801  0.39668801  1  -0.019843  -0.019525  -0.002485  4.038002  -0.002
C  C38  1  0.71901134  0.60949056  0.62767238  1  0.221716  0.557393  -0.00762  4.135653  -0.008
C  C39  1  0.29484543  0.37042389  0.40137355  1  0.217745  0.55412  -0.001592  4.133401  -0.001
C  C40  1  0.79672056  0.34394632  0.18991448  1  0.047332  0.09071  0.000732  3.931255  0.0
C  C41  1  0.19723475  0.81885558  0.66525878  1  0.047695  0.09702  -0.010032  3.941884  -0.008
C  C42  1  0.87219804  0.25368836  0.09877118  1  -0.086112  -0.18031  -0.002427  3.92988  -0.003
C  C43  1  0.12124069  0.90906647  0.75563796  1  -0.084976  -0.181561  0.001462  3.926993  0.001
C  C44  1  0.69110145  0.29372650  0.88693737  1  -0.085201  -0.189264  0.001028  3.976579  0.0
C  C45  1  0.29852380  0.11927564  0.71087490  1  -0.083573  -0.187071  0.001523  3.969544  0.001
C  C46  1  0.61446904  0.37570731  0.98503941  1  0.052244  0.09905  0.010315  3.941237  0.007
C  C47  1  0.37481616  0.02204746  0.62793567  1  0.052013  0.10167  -0.008042  3.950851  -0.007
C  C48  1  0.81966150  0.22618134  0.94192642  1  0.016716  0.173824  0.006764  3.932957  0.005
C  C49  1  0.17216327  0.06459842  0.78096848  1  0.019318  0.17821  -0.007217  3.924152  -0.006
C  C50  1  0.89379551  0.12626526  0.83761976  1  -0.154629  -0.189242  -0.000282  3.908378  -0.001
C  C51  1  0.09857029  0.16847192  0.88166811  1  -0.15445  -0.191197  0.000156  3.90588  0.0
N  N52  1  0.66593632  0.40220783  0.13532492  1  -0.319347  -0.18189  0.028434  3.473269  0.024
N  N53  1  0.32550329  0.87300771  0.60423094  1  -0.330728  -0.219621  -0.030136  3.492303  -0.008
N  N54  1  0.28758002  0.52528753  0.82729722  1  -0.590933  -0.608212  -0.001053  3.361772  -0.001
N  N55  1  0.72279805  0.16909698  0.46893279  1  -0.592725  -0.612238  -0.000712  3.363723  -0.001
O  O56  1  0.39329054  0.56176847  0.13258594  1  -0.291202  -0.493248  -0.036044  2.422835  -0.038
O  O57  1  0.60441193  0.87688185  0.42033449  1  -0.30557  -0.537657  -0.044958  2.354075  -0.031
O  O58  1  0.23235179  0.66682643  0.27533015  1  -0.303842  -0.512737  -0.039466  2.348823  -0.024
O  O59  1  0.74785929  0.71900016  0.31412617  1  -0.29482  -0.471616  0.017929  2.401963  0.006
O  O60  1  0.71320945  0.52852849  0.49515878  1  -0.301344  -0.489757  -0.042052  2.43122  -0.034
O  O61  1  0.29653369  0.49431827  0.49232286  1  -0.301706  -0.542345  -0.042455  2.322921  -0.029
O  O62  1  0.62611963  0.70221036  0.65018328  1  -0.30223  -0.516182  -0.036908  2.322707  -0.02
O  O63  1  0.39264218  0.36108080  0.30896663  1  -0.299744  -0.476197  0.017704  2.408884  0.007
