# generated using pymatgen
data_BaH16C14SO10
_symmetry_space_group_name_H-M   'P 1'
_cell_length_a   6.00795725
_cell_length_b   14.21915399
_cell_length_c   13.76549270
_cell_angle_alpha   113.94942030
_cell_angle_beta   86.59412898
_cell_angle_gamma   91.14078353
_symmetry_Int_Tables_number   1
_chemical_formula_structural   BaH16C14SO10
_chemical_formula_sum   'Ba2 H32 C28 S2 O20'
_cell_volume   1072.80462467
_cell_formula_units_Z   2
loop_
 _symmetry_equiv_pos_site_id
 _symmetry_equiv_pos_as_xyz
  1  'x, y, z'
loop_
 _atom_site_type_symbol
 _atom_site_label
 _atom_site_symmetry_multiplicity
 _atom_site_fract_x
 _atom_site_fract_y
 _atom_site_fract_z
 _atom_site_occupancy
 _atom_site_hle17_bader_spin_density
 _atom_site_hle17_ddec_charge
 _atom_site_hle17_ddec_spin_density
 _atom_site_hle17_ddec_sum_bond_order
 _atom_site_hle17_magmom
 _atom_site_hse06_10hf_bader_spin_density
 _atom_site_hse06_10hf_ddec_charge
 _atom_site_hse06_10hf_ddec_spin_density
 _atom_site_hse06_10hf_ddec_sum_bond_order
 _atom_site_hse06_10hf_magmom
 _atom_site_hse06_bader_spin_density
 _atom_site_hse06_ddec_charge
 _atom_site_hse06_ddec_spin_density
 _atom_site_hse06_ddec_sum_bond_order
 _atom_site_hse06_magmom
 _atom_site_pbe_bader_spin_density
 _atom_site_pbe_cm5_charge
 _atom_site_pbe_ddec_charge
 _atom_site_pbe_ddec_spin_density
 _atom_site_pbe_ddec_sum_bond_order
 _atom_site_pbe_magmom
Ba  Ba0  1  0.25988601  0.62836356  0.01340055  1  0  1.66425  0  1.091075  0  0  1.523185  0  1.48269  0  0  1.561706  0  1.437484  0  0  0.913859  1.494976  0  1.514463  0
Ba  Ba1  1  0.74010825  0.37163482  0.98660096  1  0  1.664228  0  1.09109  0  0  1.523156  0  1.482711  0  0  1.561679  0  1.437506  0  0  0.913878  1.49496  0  1.514492  0
H  H2  1  0.77035892  0.35579872  0.27355018  1  0  0.108802  0  0.977548  0  0  0.116211  0  1.042605  0  0  0.120201  0  1.039724  0  0  0.111674  0.113355  0  1.044671  0
H  H3  1  0.22963498  0.64420338  0.72644192  1  0  0.10877  0  0.977325  0  0  0.116253  0  1.042329  0  0  0.120241  0  1.039451  0  0  0.111702  0.113395  0  1.044396  0
H  H4  1  0.88670252  0.43706668  0.46046994  1  0  0.10747  0  0.961658  0  0  0.111886  0  1.033091  0  0  0.115796  0  1.030115  0  0  0.106667  0.109047  0  1.035357  0
H  H5  1  0.11328272  0.56293784  0.53952684  1  0  0.107499  0  0.961471  0  0  0.111894  0  1.032943  0  0  0.115813  0  1.029945  0  0  0.106677  0.109058  0  1.035203  0
H  H6  1  0.27607606  0.33854964  0.56908687  1  0  0.110826  0  0.936214  0  0  0.118308  0  0.995997  0  0  0.122685  0  0.992795  0  0  0.109206  0.115133  0  0.998356  0
H  H7  1  0.72394900  0.66144144  0.43090205  1  0  0.110722  0  0.936176  0  0  0.118224  0  0.995945  0  0  0.1226  0  0.992747  0  0  0.109149  0.115062  0  0.998305  0
H  H8  1  0.15759709  0.25586682  0.38155517  1  0  0.105229  0  0.938118  0  0  0.116518  0  0.994004  0  0  0.119629  0  0.992834  0  0  0.109768  0.114268  0  0.994906  0
H  H9  1  0.84240732  0.74413146  0.61844479  1  0  0.105141  0  0.938198  0  0  0.116436  0  0.994087  0  0  0.119544  0  0.99292  0  0  0.109705  0.114193  0  0.994987  0
H  H10  1  0.19777958  0.05840911  0.21851703  1  0  0.108461  0  0.93671  0  0  0.120263  0  0.991846  0  0  0.123289  0  0.990706  0  0  0.112445  0.118084  0  0.992737  0
H  H11  1  0.80221934  0.94159391  0.78149071  1  0  0.108484  0  0.936641  0  0  0.120288  0  0.991774  0  0  0.123311  0  0.990632  0  0  0.112465  0.118088  0  0.992698  0
H  H12  1  0.34776274  0.88653247  0.18511046  1  0  0.107201  0  0.956514  0  0  0.11902  0  1.01423  0  0  0.122198  0  1.012373  0  0  0.119767  0.116732  0  1.015651  0
H  H13  1  0.65222475  0.11347525  0.81489852  1  0  0.107173  0  0.956406  0  0  0.119001  0  1.014127  0  0  0.122184  0  1.012264  0  0  0.119756  0.116696  0  1.015573  0
H  H14  1  0.96532618  0.95866059  0.05637558  1  0  0.099642  0  0.974032  0  0  0.107198  0  1.042599  0  0  0.11029  0  1.040969  0  0  0.10659  0.105005  0  1.0438  0
H  H15  1  0.03466426  0.04133247  0.94362670  1  0  0.099635  0  0.97407  0  0  0.107207  0  1.042598  0  0  0.110299  0  1.040969  0  0  0.106586  0.105013  0  1.043801  0
H  H16  1  0.81316937  0.13231955  0.08706282  1  0  0.119984  0  0.95202  0  0  0.126227  0  1.018134  0  0  0.130449  0  1.014701  0  0  0.114619  0.123157  0  1.020741  0
H  H17  1  0.18683516  0.86768026  0.91293703  1  0  0.119908  0  0.952058  0  0  0.126137  0  1.018189  0  0  0.130359  0  1.014757  0  0  0.114599  0.123071  0  1.020784  0
H  H18  1  0.76088951  0.55698645  0.89732848  1  0  0.414003  0  0.895374  0  0  0.386403  0  0.954692  0  0  0.397409  0  0.938587  0  0  0.300698  0.378571  0  0.966142  0
H  H19  1  0.23910842  0.44301264  0.10267039  1  0  0.414081  0  0.895275  0  0  0.386496  0  0.95456  0  0  0.3975  0  0.93846  0  0  0.300737  0.378664  0  0.966011  0
H  H20  1  0.59292197  0.47674579  0.82661565  1  0  0.411256  0  0.911085  0  0  0.376663  0  0.981588  0  0  0.389209  0  0.963385  0  0  0.290306  0.367812  0  0.994399  0
H  H21  1  0.40708102  0.52325016  0.17338046  1  0  0.411275  0  0.911079  0  0  0.376692  0  0.981572  0  0  0.389241  0  0.963362  0  0  0.29031  0.36784  0  0.994385  0
H  H22  1  0.77179462  0.64412688  0.11658274  1  0  0.422895  0  0.886374  0  0  0.389422  0  0.953764  0  0  0.401845  0  0.93579  0  0  0.301678  0.380651  0  0.966428  0
H  H23  1  0.22819468  0.35586768  0.88341578  1  0  0.422883  0  0.886387  0  0  0.389407  0  0.953788  0  0  0.401829  0  0.935813  0  0  0.301639  0.380635  0  0.966453  0
H  H24  1  0.86360385  0.59214237  0.18824996  1  0  0.438935  0  0.809227  0  0  0.423032  0  0.858959  0  0  0.43137  0  0.850057  0  0  0.337106  0.417036  0  0.865473  0
H  H25  1  0.13638697  0.40785528  0.81175200  1  0  0.438824  0  0.809246  0  0  0.422924  0  0.858994  0  0  0.431262  0  0.850094  0  0  0.337018  0.416928  0  0.865516  0
H  H26  1  0.94273032  0.55032712  0.76933654  1  0  0.426636  0  0.880112  0  0  0.393587  0  0.947007  0  0  0.405805  0  0.929269  0  0  0.29068  0.384949  0  0.959523  0
H  H27  1  0.05727596  0.44967267  0.23066256  1  0  0.426602  0  0.880169  0  0  0.393551  0  0.947069  0  0  0.405771  0  0.929326  0  0  0.290666  0.384917  0  0.959578  0
H  H28  1  0.94809604  0.66823842  0.84616643  1  0  0.416741  0  0.886446  0  0  0.386957  0  0.94912  0  0  0.396589  0  0.934983  0  0  0.30011  0.380165  0  0.959087  0
H  H29  1  0.05190503  0.33176221  0.15383522  1  0  0.416731  0  0.886463  0  0  0.386952  0  0.94913  0  0  0.396584  0  0.934993  0  0  0.300103  0.380153  0  0.95911  0
H  H30  1  0.33356823  0.68495255  0.27065758  1  0  0.410721  0  0.895213  0  0  0.383496  0  0.95289  0  0  0.393229  0  0.938615  0  0  0.287952  0.376632  0  0.962951  0
H  H31  1  0.66643579  0.31504346  0.72934436  1  0  0.410772  0  0.895152  0  0  0.38356  0  0.952816  0  0  0.393294  0  0.93854  0  0  0.287971  0.376698  0  0.962875  0
H  H32  1  0.42415040  0.76003327  0.22282835  1  0  0.399808  0  0.908173  0  0  0.372872  0  0.966323  0  0  0.383233  0  0.950883  0  0  0.287532  0.365529  0  0.977255  0
H  H33  1  0.57584564  0.23996354  0.77717105  1  0  0.399739  0  0.908253  0  0  0.372802  0  0.966405  0  0  0.383162  0  0.950965  0  0  0.287485  0.365459  0  0.977338  0
C  C34  1  0.66552667  0.35068723  0.33838059  1  0  -0.057394  0  3.7166  0  0  -0.080512  0  3.964692  0  0  -0.081242  0  3.984603  0  0  -0.078108  -0.079865  0  3.951038  0
C  C35  1  0.33447793  0.64933013  0.66161549  1  0  -0.057231  0  3.716781  0  0  -0.080376  0  3.964856  0  0  -0.081106  0  3.984776  0  0  -0.078078  -0.079741  0  3.951223  0
C  C36  1  0.72910160  0.39622902  0.44297739  1  0  -0.056736  0  3.703065  0  0  -0.080104  0  3.952453  0  0  -0.081637  0  3.973211  0  0  -0.074403  -0.078986  0  3.938432  0
C  C37  1  0.27089824  0.60377542  0.55702291  1  0  -0.056817  0  3.703004  0  0  -0.080173  0  3.9524  0  0  -0.081704  0  3.973164  0  0  -0.074432  -0.07905  0  3.938374  0
C  C38  1  0.59158727  0.38954151  0.52560268  1  0  -0.049207  0  3.724838  0  0  -0.026905  0  3.955623  0  0  -0.032876  0  3.978749  0  0  -0.007564  -0.023094  0  3.940108  0
C  C39  1  0.40841627  0.61046750  0.47439728  1  0  -0.049137  0  3.724684  0  0  -0.026841  0  3.955496  0  0  -0.032807  0  3.978606  0  0  -0.007555  -0.023032  0  3.939993  0
C  C40  1  0.38436169  0.34022611  0.50353971  1  0  -0.053989  0  3.703613  0  0  -0.076222  0  3.95062  0  0  -0.077554  0  3.970561  0  0  -0.072963  -0.075208  0  3.937066  0
C  C41  1  0.61564189  0.65978134  0.49645889  1  0  -0.053969  0  3.703543  0  0  -0.076232  0  3.950585  0  0  -0.077564  0  3.97053  0  0  -0.07296  -0.075229  0  3.937046  0
C  C42  1  0.31819535  0.29427170  0.39941558  1  0  -0.065603  0  3.740556  0  0  -0.08804  0  3.989921  0  0  -0.089022  0  4.011022  0  0  -0.07888  -0.087217  0  3.975451  0
C  C43  1  0.68181925  0.70572260  0.60057980  1  0  -0.065381  0  3.740454  0  0  -0.087797  0  3.989853  0  0  -0.088778  0  4.010957  0  0  -0.078697  -0.086975  0  3.97539  0
C  C44  1  0.46229410  0.29892564  0.31775922  1  0  -0.112339  0  3.763713  0  0  -0.090504  0  4.015778  0  0  -0.096675  0  4.039605  0  0  -0.020224  -0.086268  0  3.99959  0
C  C45  1  0.53771187  0.70107959  0.68224646  1  0  -0.112533  0  3.763789  0  0  -0.09079  0  4.01602  0  0  -0.096967  0  4.039847  0  0  -0.020322  -0.08655  0  3.999825  0
C  C46  1  0.49799800  0.10410202  0.15447207  1  0  -0.108221  0  3.758572  0  0  -0.084615  0  4.00677  0  0  -0.091155  0  4.031548  0  0  -0.017731  -0.080135  0  3.989923  0
C  C47  1  0.50198782  0.89589800  0.84553160  1  0  -0.108287  0  3.758713  0  0  -0.084539  0  4.006751  0  0  -0.091084  0  4.031541  0  0  -0.017764  -0.080059  0  3.9899  0
C  C48  1  0.36579790  0.03621371  0.18294257  1  0  -0.063873  0  3.733585  0  0  -0.086021  0  3.982491  0  0  -0.086884  0  4.003171  0  0  -0.076449  -0.085306  0  3.968336  0
C  C49  1  0.63419294  0.96378703  0.81706137  1  0  -0.063916  0  3.733624  0  0  -0.086107  0  3.982508  0  0  -0.086962  0  4.003186  0  0  -0.076425  -0.08537  0  3.968364  0
C  C50  1  0.45185735  0.93974651  0.16412007  1  0  -0.057904  0  3.697848  0  0  -0.081762  0  3.942977  0  0  -0.082605  0  3.96247  0  0  -0.067512  -0.081117  0  3.929746  0
C  C51  1  0.54813966  0.06025346  0.83588789  1  0  -0.057823  0  3.697815  0  0  -0.081694  0  3.942978  0  0  -0.082536  0  3.962464  0  0  -0.067514  -0.081033  0  3.929752  0
C  C52  1  0.66881101  0.91192465  0.11855304  1  0  -0.052605  0  3.716503  0  0  -0.030182  0  3.949123  0  0  -0.035581  0  3.97012  0  0  -0.005175  -0.026848  0  3.93527  0
C  C53  1  0.33118512  0.08807524  0.88144761  1  0  -0.052568  0  3.716459  0  0  -0.030176  0  3.949107  0  0  -0.035572  0  3.970104  0  0  -0.005193  -0.026834  0  3.935237  0
C  C54  1  0.79757036  0.98167897  0.09123847  1  0  -0.061576  0  3.712189  0  0  -0.086329  0  3.961651  0  0  -0.087884  0  3.982121  0  0  -0.078008  -0.085202  0  3.947778  0
C  C55  1  0.20242989  0.01832331  0.90877187  1  0  -0.061566  0  3.71247  0  0  -0.086321  0  3.961951  0  0  -0.087876  0  3.982422  0  0  -0.07793  -0.085192  0  3.948076  0
C  C56  1  0.71360238  0.07797217  0.10836516  1  0  -0.063913  0  3.722152  0  0  -0.087588  0  3.973382  0  0  -0.088251  0  3.993535  0  0  -0.077705  -0.086994  0  3.959634  0
C  C57  1  0.28639093  0.92203154  0.89163343  1  0  -0.063814  0  3.722532  0  0  -0.087523  0  3.97374  0  0  -0.088185  0  3.993899  0  0  -0.077695  -0.086924  0  3.959984  0
C  C58  1  0.66703752  0.43385541  0.63787410  1  0  0.648501  0  3.906354  0  0  0.595575  0  4.205937  0  0  0.628503  0  4.19929  0  0  0.213883  0.573365  0  4.209577  0
C  C59  1  0.33298262  0.56614883  0.36212311  1  0  0.648402  0  3.906106  0  0  0.595457  0  4.205719  0  0  0.628385  0  4.199073  0  0  0.213753  0.573241  0  4.209371  0
C  C60  1  0.76854321  0.80825843  0.09720947  1  0  0.680652  0  3.89115  0  0  0.627059  0  4.189624  0  0  0.661722  0  4.179798  0  0  0.228901  0.603563  0  4.195464  0
C  C61  1  0.23144502  0.19173993  0.90278624  1  0  0.680558  0  3.891054  0  0  0.627018  0  4.189452  0  0  0.66168  0  4.179627  0  0  0.228966  0.603534  0  4.195283  0
S  S62  1  0.39701844  0.22945525  0.18359607  1  0  1.090705  0  5.187953  0  0  1.016082  0  5.674242  0  0  1.055695  0  5.660942  0  0  0.495552  0.988202  0  5.683806  0
S  S63  1  0.60301599  0.77054664  0.81640592  1  0  1.090845  0  5.187689  0  0  1.016185  0  5.673961  0  0  1.055811  0  5.660661  0  0  0.495505  0.988303  0  5.683515  0
O  O64  1  0.63123146  0.51510676  0.90433779  1  0  -0.947441  0  1.871467  0  0  -0.885386  0  2.068233  0  0  -0.908721  0  2.036236  0  0  -0.671967  -0.868741  0  2.090565  0
O  O65  1  0.36876979  0.48488921  0.09565907  1  0  -0.947542  0  1.871454  0  0  -0.885545  0  2.068259  0  0  -0.908878  0  2.036259  0  0  -0.672024  -0.868895  0  2.090591  0
O  O66  1  0.85144711  0.48089350  0.65526607  1  0  -0.621058  0  1.939075  0  0  -0.567225  0  2.156328  0  0  -0.59219  0  2.147517  0  0  -0.317984  -0.549807  0  2.161848  0
O  O67  1  0.14856656  0.51910381  0.34472472  1  0  -0.620996  0  1.93897  0  0  -0.56714  0  2.156208  0  0  -0.592108  0  2.147404  0  0  -0.317875  -0.549717  0  2.161727  0
O  O68  1  0.85916865  0.58286026  0.11426008  1  0  -0.892678  0  1.798317  0  0  -0.83263  0  1.984115  0  0  -0.854238  0  1.956761  0  0  -0.613563  -0.817296  0  2.003165  0
O  O69  1  0.14082049  0.41713432  0.88573990  1  0  -0.892555  0  1.7983  0  0  -0.832517  0  1.984106  0  0  -0.854127  0  1.956761  0  0  -0.613419  -0.817175  0  2.00316  0
O  O70  1  0.53841847  0.41756397  0.70731913  1  0  -0.66002  0  2.000069  0  0  -0.596921  0  2.214756  0  0  -0.621576  0  2.202126  0  0  -0.317686  -0.579651  0  2.222937  0
O  O71  1  0.46160485  0.58243022  0.29267252  1  0  -0.660042  0  1.9999  0  0  -0.596926  0  2.214581  0  0  -0.621581  0  2.201944  0  0  -0.317656  -0.579653  0  2.222768  0
O  O72  1  0.63902619  0.74249185  0.11462667  1  0  -0.729374  0  2.044221  0  0  -0.65364  0  2.266739  0  0  -0.682206  0  2.255078  0  0  -0.344877  -0.633501  0  2.274135  0
O  O73  1  0.36096947  0.25750810  0.88537838  1  0  -0.729289  0  2.044357  0  0  -0.653564  0  2.266846  0  0  -0.682129  0  2.255184  0  0  -0.344848  -0.633429  0  2.274241  0
O  O74  1  0.98967714  0.60013301  0.84254378  1  0  -0.888746  0  1.860789  0  0  -0.827385  0  2.03687  0  0  -0.848708  0  2.005297  0  0  -0.609705  -0.812189  0  2.058827  0
O  O75  1  0.01032916  0.39986754  0.15745563  1  0  -0.888744  0  1.860846  0  0  -0.827359  0  2.036864  0  0  -0.848698  0  2.00533  0  0  -0.609715  -0.812159  0  2.058824  0
O  O76  1  0.96918883  0.79126638  0.06361228  1  0  -0.663362  0  1.931618  0  0  -0.610082  0  2.169245  0  0  -0.635136  0  2.159911  0  0  -0.35676  -0.59255  0  2.175127  0
O  O77  1  0.03079676  0.20873366  0.93639358  1  0  -0.663397  0  1.931402  0  0  -0.610149  0  2.169029  0  0  -0.635204  0  2.159697  0  0  -0.35686  -0.592617  0  2.174902  0
O  O78  1  0.28285197  0.73326866  0.24124702  1  0  -0.866484  0  1.750804  0  0  -0.820526  0  1.887896  0  0  -0.838085  0  1.858414  0  0  -0.636597  -0.808071  0  1.908531  0
O  O79  1  0.71714861  0.26672894  0.75875705  1  0  -0.866475  0  1.750846  0  0  -0.820536  0  1.887913  0  0  -0.838096  0  1.85843  0  0  -0.636572  -0.808083  0  1.908546  0
O  O80  1  0.52563402  0.27081140  0.11703021  1  0  -0.623642  0  1.982768  0  0  -0.574734  0  2.244545  0  0  -0.595507  0  2.233492  0  0  -0.316196  -0.560012  0  2.251845  0
O  O81  1  0.47435458  0.72918093  0.88297323  1  0  -0.623772  0  1.981973  0  0  -0.574893  0  2.2438  0  0  -0.595669  0  2.232747  0  0  -0.316258  -0.560158  0  2.251086  0
O  O82  1  0.15477253  0.22364217  0.17813887  1  0  -0.596523  0  1.976896  0  0  -0.542602  0  2.218988  0  0  -0.563072  0  2.208455  0  0  -0.29898  -0.528158  0  2.225907  0
O  O83  1  0.84523605  0.77636293  0.82185803  1  0  -0.596447  0  1.97749  0  0  -0.542492  0  2.21959  0  0  -0.562972  0  2.20905  0  0  -0.298832  -0.52805  0  2.22651  0
