# generated using pymatgen
data_NiH20(C8O5)2
_symmetry_space_group_name_H-M   'P 1'
_cell_length_a   4.89933927
_cell_length_b   5.57842179
_cell_length_c   15.12908119
_cell_angle_alpha   87.54732447
_cell_angle_beta   83.86372693
_cell_angle_gamma   84.92221323
_symmetry_Int_Tables_number   1
_chemical_formula_structural   NiH20(C8O5)2
_chemical_formula_sum   'Ni1 H20 C16 O10'
_cell_volume   409.27203177
_cell_formula_units_Z   1
loop_
 _symmetry_equiv_pos_site_id
 _symmetry_equiv_pos_as_xyz
  1  'x, y, z'
loop_
 _atom_site_type_symbol
 _atom_site_label
 _atom_site_symmetry_multiplicity
 _atom_site_fract_x
 _atom_site_fract_y
 _atom_site_fract_z
 _atom_site_occupancy
 _atom_site_pbe_cm5_charge
 _atom_site_pbe_ddec_charge
 _atom_site_pbe_ddec_spin_density
 _atom_site_pbe_ddec_sum_bond_order
 _atom_site_pbe_magmom
Ni  Ni0  1  0.99999302  0.00000503  0.00000255  1  0.592179  0.923376  0.010269  2.282514  0.01
H  H1  1  0.33460319  0.45098914  0.23244995  1  0.114387  0.112945  -1.6e-05  0.965229  0.0
H  H2  1  0.66540904  0.54900802  0.76755246  1  0.114386  0.112971  -1.6e-05  0.965252  0.0
H  H3  1  0.07877275  0.30087440  0.30283947  1  0.10588  0.090344  -0.000361  1.03804  0.0
H  H4  1  0.92122390  0.69911531  0.69716622  1  0.105881  0.090305  -0.00036  1.038001  0.0
H  H5  1  0.42610839  0.41131679  0.37774631  1  0.098275  0.100364  -8e-05  1.056611  0.0
H  H6  1  0.57390097  0.58868757  0.62225477  1  0.098266  0.100404  -8e-05  1.056702  0.0
H  H7  1  0.71277769  0.36402913  0.49918835  1  0.097113  0.094777  6e-06  1.039465  0.0
H  H8  1  0.28724433  0.63595377  0.50081125  1  0.097155  0.094901  5e-06  1.039493  0.0
H  H9  1  0.06091609  0.67558472  0.40170820  1  0.095001  0.087766  -1.8e-05  1.044819  0.0
H  H10  1  0.93908769  0.32441427  0.59828853  1  0.095  0.087804  -1.8e-05  1.04471  0.0
H  H11  1  0.77033427  0.72309651  0.27957272  1  0.101336  0.114134  9e-06  1.031985  0.0
H  H12  1  0.22967483  0.27689168  0.72042594  1  0.101293  0.114057  9e-06  1.03188  0.0
H  H13  1  0.75455640  0.69079132  0.12038543  1  0.303695  0.396508  5.6e-05  0.936869  0.0
H  H14  1  0.24544065  0.30921291  0.87961543  1  0.303668  0.396463  5.6e-05  0.936932  0.0
H  H15  1  0.53958811  0.92597527  0.12635249  1  0.304974  0.385307  -6.8e-05  0.949519  0.0
H  H16  1  0.46041554  0.07402535  0.87365215  1  0.304983  0.385307  -6.8e-05  0.949514  0.0
H  H17  1  0.74359762  0.35942074  0.05596045  1  0.296253  0.374406  0.000227  0.970823  0.0
H  H18  1  0.25638514  0.64058319  0.94404753  1  0.29624  0.374391  0.000227  0.97088  0.0
H  H19  1  0.57655918  0.27194504  0.97546400  1  0.29688  0.395216  0.00066  0.9375  0.0
H  H20  1  0.42343094  0.72806627  0.02453966  1  0.296933  0.395266  0.000659  0.937411  0.0
C  C21  1  0.06593011  0.26079021  0.16312786  1  0.220549  0.615286  -0.001443  4.138257  0.0
C  C22  1  0.93403871  0.73922805  0.83687712  1  0.220479  0.61519  -0.001443  4.138488  0.0
C  C23  1  0.22601110  0.28515574  0.24267911  1  -0.067214  -0.131095  -0.005142  3.881636  -0.005
C  C24  1  0.77398412  0.71484663  0.75732382  1  -0.067245  -0.131096  -0.005141  3.88174  -0.005
C  C25  1  0.57448835  0.06855720  0.32062975  1  0.079707  0.255327  2.9e-05  4.05706  0.0
C  C26  1  0.42552690  0.93144921  0.67936251  1  0.079636  0.255339  2.9e-05  4.057181  0.0
C  C27  1  0.56282131  0.24805993  0.38296594  1  -0.111277  -0.218202  -0.000159  4.03333  0.0
C  C28  1  0.43719332  0.75193379  0.61702981  1  -0.111258  -0.218314  -0.000159  4.033395  0.0
C  C29  1  0.72974100  0.21962408  0.45230922  1  -0.093642  -0.108483  -5.4e-05  3.99487  0.0
C  C30  1  0.27025042  0.78035676  0.54768686  1  -0.093775  -0.10873  -5.4e-05  3.995025  0.0
C  C31  1  0.91317884  0.01461820  0.46269485  1  -0.021353  0.038981  -4.1e-05  4.017757  0.0
C  C32  1  0.08682077  0.98536278  0.53729896  1  -0.021209  0.039236  -4.1e-05  4.01756  0.0
C  C33  1  0.92186764  0.83825484  0.39816737  1  -0.092709  -0.103138  -1.3e-05  3.985046  0.0
C  C34  1  0.07814697  0.16173891  0.60182640  1  -0.092703  -0.103256  -1.3e-05  3.985007  0.0
C  C35  1  0.75738267  0.86272689  0.32855465  1  -0.105434  -0.189754  1.6e-05  3.972416  0.0
C  C36  1  0.24262636  0.13726148  0.67143542  1  -0.105378  -0.189611  1.6e-05  3.972377  0.0
O  O37  1  0.16107730  0.09920705  0.10851426  1  -0.300839  -0.531611  -0.042741  2.379887  -0.045
O  O38  1  0.83892490  0.90080627  0.89148564  1  -0.300769  -0.531471  -0.042724  2.380118  -0.045
O  O39  1  0.85128719  0.40302230  0.15816640  1  -0.312701  -0.567854  -0.000511  2.242157  -0.001
O  O40  1  0.14870929  0.59698728  0.84183705  1  -0.312706  -0.56792  -0.000512  2.242107  -0.001
O  O41  1  0.41841925  0.07923322  0.25050569  1  -0.177185  -0.188819  -0.00023  2.620186  0.0
O  O42  1  0.58158002  0.92076933  0.74949049  1  -0.177079  -0.18873  -0.00023  2.620279  0.0
O  O43  1  0.66479310  0.82366815  0.08535273  1  -0.555053  -0.759397  0.006028  2.207472  0.006
O  O44  1  0.33519926  0.17634143  0.91464889  1  -0.555077  -0.759364  0.006027  2.20736  0.006
O  O45  1  0.75951009  0.30650826  0.99324915  1  -0.572742  -0.724742  0.038705  2.201832  0.039
O  O46  1  0.24047840  0.69349938  0.00675660  1  -0.572806  -0.724786  0.038704  2.201836  0.039
