# generated using pymatgen
data_CuH2C12(N2Cl)2
_symmetry_space_group_name_H-M   'P 1'
_cell_length_a   3.64538537
_cell_length_b   11.29140726
_cell_length_c   13.47283204
_cell_angle_alpha   90.82776403
_cell_angle_beta   89.93101707
_cell_angle_gamma   99.32419270
_symmetry_Int_Tables_number   1
_chemical_formula_structural   CuH2C12(N2Cl)2
_chemical_formula_sum   'Cu2 H4 C24 N8 Cl4'
_cell_volume   547.17770466
_cell_formula_units_Z   2
loop_
 _symmetry_equiv_pos_site_id
 _symmetry_equiv_pos_as_xyz
  1  'x, y, z'
loop_
 _atom_site_type_symbol
 _atom_site_label
 _atom_site_symmetry_multiplicity
 _atom_site_fract_x
 _atom_site_fract_y
 _atom_site_fract_z
 _atom_site_occupancy
 _atom_site_pbe_cm5_charge
 _atom_site_pbe_ddec_charge
 _atom_site_pbe_ddec_spin_density
 _atom_site_pbe_ddec_sum_bond_order
 _atom_site_pbe_magmom
Cu  Cu0  1  0.89834720  0.00003597  0.75008871  1  0.740228  0.738213  -0.112333  2.597591  -0.083
Cu  Cu1  1  0.10167433  0.99996270  0.24991155  1  0.740142  0.738077  -0.112308  2.597607  -0.083
H  H2  1  0.20598745  0.38687528  0.85445796  1  0.094472  0.114826  4.4e-05  1.04396  0.0
H  H3  1  0.81915430  0.61299151  0.64559354  1  0.093917  0.112869  -3.5e-05  1.04687  0.0
H  H4  1  0.79401304  0.61312517  0.14553935  1  0.094473  0.114835  4.4e-05  1.043955  0.0
H  H5  1  0.18082972  0.38700895  0.35440675  1  0.093908  0.112841  -3.5e-05  1.046928  0.0
C  C6  1  0.64599000  0.83546876  0.92128066  1  0.183767  0.286674  0.003345  4.077496  0.003
C  C7  1  0.81330133  0.16433837  0.57864039  1  0.183423  0.286426  0.001003  4.08078  0.0
C  C8  1  0.35402511  0.16453350  0.07872038  1  0.183895  0.286897  0.003344  4.077444  0.003
C  C9  1  0.18670006  0.83566389  0.42135917  1  0.183316  0.286403  0.001003  4.080808  0.0
C  C10  1  0.64683182  0.75897048  0.00196241  1  -0.022972  -0.130359  -0.017443  4.133203  -0.016
C  C11  1  0.88993567  0.24085782  0.49796596  1  -0.024286  -0.133815  -0.00399  4.136871  -0.004
C  C12  1  0.35316957  0.24103177  0.99803493  1  -0.02299  -0.130443  -0.017442  4.133244  -0.016
C  C13  1  0.11004975  0.75913995  0.50203578  1  -0.02426  -0.133879  -0.003991  4.136853  -0.004
C  C14  1  0.57079418  0.62945966  0.99825234  1  -0.007176  0.05282  -0.002686  4.048064  -0.001
C  C15  1  0.94230495  0.37049060  0.50181027  1  -0.008268  0.050898  -0.000125  4.047095  0.0
C  C16  1  0.42920905  0.37054080  0.00174721  1  -0.007168  0.052825  -0.002686  4.048051  -0.001
C  C17  1  0.05767773  0.62950717  0.49818777  1  -0.008345  0.050835  -0.000124  4.04725  0.0
C  C18  1  0.40830950  0.55953059  0.91614680  1  0.007573  0.087509  -0.003395  4.044461  -0.003
C  C19  1  0.84925365  0.44033364  0.58389452  1  0.006626  0.089544  -0.000566  4.039108  0.0
C  C20  1  0.59169463  0.44047166  0.08384979  1  0.007594  0.087544  -0.003395  4.044415  -0.003
C  C21  1  0.15072399  0.55966502  0.41610575  1  0.006622  0.089571  -0.000566  4.039154  0.0
C  C22  1  0.34049149  0.43562420  0.91849511  1  -0.102874  -0.195447  -0.002517  3.976391  -0.002
C  C23  1  0.90492434  0.56427733  0.58151879  1  -0.102988  -0.195107  -0.000655  3.977191  0.0
C  C24  1  0.65950625  0.56437626  0.08150443  1  -0.102891  -0.195501  -0.002519  3.976576  -0.002
C  C25  1  0.09505650  0.43572223  0.41848001  1  -0.103029  -0.195147  -0.000655  3.977154  0.0
C  C26  1  0.74289786  0.82036312  0.09169754  1  0.192147  0.302309  0.003041  4.024234  0.003
C  C27  1  0.92292716  0.17952206  0.40817275  1  0.192665  0.304735  0.001178  4.024166  0.001
C  C28  1  0.25710492  0.17963645  0.90830422  1  0.192108  0.302247  0.003042  4.024236  0.003
C  C29  1  0.07706649  0.82047571  0.59182677  1  0.192732  0.304854  0.001179  4.023903  0.001
N  N30  1  0.65620957  0.90711092  0.85852728  1  -0.379113  -0.427206  -0.01133  3.337119  -0.013
N  N31  1  0.75024022  0.09287876  0.64151222  1  -0.379353  -0.427051  -0.004489  3.336635  -0.005
N  N32  1  0.34379775  0.09289224  0.14147155  1  -0.379219  -0.427357  -0.011322  3.337304  -0.013
N  N33  1  0.24977083  0.90711542  0.35849022  1  -0.379221  -0.426948  -0.004484  3.336797  -0.005
N  N34  1  0.80974882  0.87653310  0.16538487  1  -0.365632  -0.419543  -0.010736  3.303381  -0.013
N  N35  1  0.93119437  0.12317918  0.33445045  1  -0.368332  -0.423456  -0.00472  3.301183  -0.006
N  N36  1  0.19025764  0.12346288  0.83461611  1  -0.365608  -0.4195  -0.010742  3.303256  -0.013
N  N37  1  0.06881754  0.87682219  0.66555430  1  -0.368438  -0.423619  -0.004725  3.300972  -0.006
Cl  Cl38  1  0.28070699  0.62792249  0.81088113  1  0.034324  -0.035341  -0.000287  1.782457  0.0
Cl  Cl39  1  0.65129519  0.37201028  0.68917513  1  0.031969  -0.039334  1.8e-05  1.780327  0.0
Cl  Cl40  1  0.71931949  0.37208606  0.18912146  1  0.034292  -0.035368  -0.000288  1.782329  0.0
Cl  Cl41  1  0.34869801  0.62798659  0.31082512  1  0.031972  -0.039331  1.7e-05  1.780299  0.0
