# generated using pymatgen
data_CsH10C15NO5
_symmetry_space_group_name_H-M   'P 1'
_cell_length_a   6.60259283
_cell_length_b   9.38907536
_cell_length_c   11.34326713
_cell_angle_alpha   100.51853426
_cell_angle_beta   89.99980724
_cell_angle_gamma   90.00052954
_symmetry_Int_Tables_number   1
_chemical_formula_structural   CsH10C15NO5
_chemical_formula_sum   'Cs2 H20 C30 N2 O10'
_cell_volume   691.37800872
_cell_formula_units_Z   2
loop_
 _symmetry_equiv_pos_site_id
 _symmetry_equiv_pos_as_xyz
  1  'x, y, z'
loop_
 _atom_site_type_symbol
 _atom_site_label
 _atom_site_symmetry_multiplicity
 _atom_site_fract_x
 _atom_site_fract_y
 _atom_site_fract_z
 _atom_site_occupancy
 _atom_site_hle17_bader_spin_density
 _atom_site_hle17_ddec_charge
 _atom_site_hle17_ddec_spin_density
 _atom_site_hle17_ddec_sum_bond_order
 _atom_site_hle17_magmom
 _atom_site_hse06_10hf_bader_spin_density
 _atom_site_hse06_10hf_ddec_charge
 _atom_site_hse06_10hf_ddec_spin_density
 _atom_site_hse06_10hf_ddec_sum_bond_order
 _atom_site_hse06_10hf_magmom
 _atom_site_hse06_bader_spin_density
 _atom_site_hse06_ddec_charge
 _atom_site_hse06_ddec_spin_density
 _atom_site_hse06_ddec_sum_bond_order
 _atom_site_hse06_magmom
 _atom_site_pbe_bader_spin_density
 _atom_site_pbe_cm5_charge
 _atom_site_pbe_ddec_charge
 _atom_site_pbe_ddec_spin_density
 _atom_site_pbe_ddec_sum_bond_order
 _atom_site_pbe_magmom
Cs  Cs0  1  0.66985213  0.40750004  0.87732940  1  0  0.937574  0  0.639607  0  0  0.883138  0  0.88668  0  0  0.898805  0  0.863164  0  0  0.916881  0.871214  0  0.903672  0
Cs  Cs1  1  0.16984895  0.59250364  0.12267263  1  0  0.937584  0  0.639588  0  0  0.883128  0  0.886697  0  0  0.898808  0  0.863158  0  0  0.916887  0.871202  0  0.903691  0
H  H2  1  0.24699909  0.71750571  0.87498364  1  0  0.35789  0  0.958479  0  0  0.332098  0  1.034147  0  0  0.343829  0  1.016967  0  0  0.280702  0.323828  0  1.04625  0
H  H3  1  0.74699440  0.28249738  0.12501993  1  0  0.357982  0  0.958273  0  0  0.332166  0  1.034031  0  0  0.343894  0  1.016856  0  0  0.280736  0.323898  0  1.046132  0
H  H4  1  0.52379833  0.86197883  0.02264093  1  0  0.040677  0  0.929104  0  0  0.053226  0  1.002215  0  0  0.054064  0  1.000287  0  0  0.096869  0.052522  0  1.00371  0
H  H5  1  0.02379023  0.13802391  0.97735860  1  0  0.040626  0  0.929133  0  0  0.053177  0  1.002259  0  0  0.054015  0  1.000332  0  0  0.096861  0.052473  0  1.003752  0
H  H6  1  0.38431003  0.92040395  0.90605653  1  0  0.046792  0  0.928655  0  0  0.063141  0  0.993623  0  0  0.063447  0  0.993084  0  0  0.100542  0.062772  0  0.994106  0
H  H7  1  0.88429831  0.07959887  0.09394233  1  0  0.046767  0  0.928665  0  0  0.0631  0  0.993664  0  0  0.063424  0  0.993106  0  0  0.100557  0.062733  0  0.994146  0
H  H8  1  0.73396087  0.96425652  0.89601175  1  0  0.089654  0  0.93928  0  0  0.101203  0  1.000965  0  0  0.103601  0  0.999156  0  0  0.129155  0.099588  0  1.002202  0
H  H9  1  0.23395045  0.03574538  0.10398814  1  0  0.089624  0  0.939453  0  0  0.101178  0  1.001071  0  0  0.103575  0  0.999267  0  0  0.129125  0.099564  0  1.002306  0
H  H10  1  0.66737595  0.47860317  0.47867683  1  0  0.100955  0  0.937425  0  0  0.112157  0  0.996261  0  0  0.115332  0  0.994083  0  0  0.110931  0.109909  0  0.997651  0
H  H11  1  0.16736496  0.52139725  0.52132562  1  0  0.100983  0  0.93732  0  0  0.112159  0  0.996189  0  0  0.115334  0  0.994007  0  0  0.11091  0.109906  0  0.997588  0
H  H12  1  0.66279501  0.47244027  0.25808685  1  0  0.111648  0  0.964696  0  0  0.119479  0  1.025882  0  0  0.12334  0  1.024026  0  0  0.115631  0.116233  0  1.028476  0
H  H13  1  0.16279645  0.52755685  0.74191336  1  0  0.11161  0  0.964765  0  0  0.119436  0  1.025974  0  0  0.123279  0  1.024142  0  0  0.115621  0.116187  0  1.028566  0
H  H14  1  0.66348750  0.20702103  0.58231728  1  0  0.096534  0  0.937442  0  0  0.108174  0  0.997181  0  0  0.111571  0  0.994553  0  0  0.112358  0.104442  0  1.00143  0
H  H15  1  0.16349130  0.79298039  0.41768003  1  0  0.096515  0  0.937499  0  0  0.108172  0  0.997214  0  0  0.111547  0  0.994606  0  0  0.11236  0.10444  0  1.00146  0
H  H16  1  0.66064778  0.97499325  0.21770281  1  0  0.103009  0  0.941269  0  0  0.110926  0  1.009248  0  0  0.114583  0  1.005958  0  0  0.109446  0.107968  0  1.011974  0
H  H17  1  0.16066810  0.02500059  0.78229517  1  0  0.103004  0  0.941197  0  0  0.110929  0  1.009194  0  0  0.114589  0  1.0059  0  0  0.10943  0.107974  0  1.011919  0
H  H18  1  0.67172206  0.70449679  0.17854284  1  0  0.10477  0  0.965611  0  0  0.112958  0  1.031742  0  0  0.116925  0  1.028806  0  0  0.116249  0.10997  0  1.033871  0
H  H19  1  0.17173663  0.29550253  0.82145504  1  0  0.104741  0  0.965595  0  0  0.112933  0  1.031733  0  0  0.116899  0  1.028796  0  0  0.116259  0.109945  0  1.033861  0
H  H20  1  0.65684832  0.20509417  0.35986548  1  0  0.11099  0  0.946268  0  0  0.121468  0  1.004311  0  0  0.124935  0  1.002977  0  0  0.105822  0.118987  0  1.005533  0
H  H21  1  0.15685691  0.79490182  0.64013282  1  0  0.110977  0  0.946214  0  0  0.121464  0  1.004244  0  0  0.124925  0  1.002921  0  0  0.105789  0.118984  0  1.005456  0
C  C22  1  0.86831886  0.76037325  0.89487805  1  0  0.652753  0  3.926981  0  0  0.601678  0  4.239911  0  0  0.635073  0  4.230807  0  0  0.181232  0.578902  0  4.24547  0
C  C23  1  0.36831264  0.23962842  0.10512420  1  0  0.652615  0  3.927177  0  0  0.601506  0  4.240136  0  0  0.634911  0  4.231014  0  0  0.18118  0.578727  0  4.245701  0
C  C24  1  0.67590846  0.71006066  0.65410610  1  0  0.531467  0  3.776229  0  0  0.485076  0  4.060669  0  0  0.515388  0  4.05917  0  0  0.252146  0.465363  0  4.060043  0
C  C25  1  0.17589847  0.28994194  0.34589224  1  0  0.53134  0  3.776403  0  0  0.484957  0  4.060852  0  0  0.515265  0  4.05936  0  0  0.252099  0.465232  0  4.060228  0
C  C26  1  0.48789599  0.83564430  0.92585885  1  0  0.135167  0  3.664002  0  0  0.070204  0  3.947502  0  0  0.078381  0  3.951687  0  0  -0.077034  0.064802  0  3.944433  0
C  C27  1  0.98788853  0.16435484  0.07413928  1  0  0.135393  0  3.663803  0  0  0.0704  0  3.94732  0  0  0.078568  0  3.951508  0  0  -0.076946  0.064999  0  3.944246  0
C  C28  1  0.68879009  0.85121935  0.86188631  1  0  -0.035142  0  3.578785  0  0  -0.061228  0  3.823242  0  0  -0.060885  0  3.832955  0  0  0.004267  -0.061721  0  3.816835  0
C  C29  1  0.18878096  0.14878115  0.13811082  1  0  -0.035261  0  3.578879  0  0  -0.061239  0  3.823228  0  0  -0.060902  0  3.832947  0  0  0.004265  -0.061724  0  3.816806  0
C  C30  1  0.66871318  0.70982260  0.52391925  1  0  -0.115705  0  3.785115  0  0  -0.099978  0  4.024111  0  0  -0.111075  0  4.048966  0  0  -0.015239  -0.092212  0  4.006218  0
C  C31  1  0.16870849  0.29017671  0.47608040  1  0  -0.115708  0  3.785061  0  0  -0.099989  0  4.024061  0  0  -0.11108  0  4.048919  0  0  -0.015208  -0.092173  0  4.006108  0
C  C32  1  0.66798142  0.97844561  0.69189253  1  0  0.515914  0  3.803293  0  0  0.469821  0  4.089769  0  0  0.499662  0  4.090639  0  0  0.245313  0.449861  0  4.088339  0
C  C33  1  0.16797871  0.02155589  0.30811008  1  0  0.516107  0  3.802703  0  0  0.469952  0  4.089302  0  0  0.499796  0  4.090173  0  0  0.245405  0.449984  0  4.087885  0
C  C34  1  0.66653170  0.84209697  0.48070356  1  0  0.030759  0  3.791988  0  0  0.032504  0  4.013266  0  0  0.035128  0  4.039418  0  0  0.002007  0.030628  0  3.995942  0
C  C35  1  0.16653410  0.15790344  0.51929800  1  0  0.030695  0  3.792143  0  0  0.032445  0  4.013395  0  0  0.035066  0  4.03955  0  0  0.001968  0.030556  0  3.99606  0
C  C36  1  0.66694506  0.57908397  0.44348562  1  0  -0.016966  0  3.676999  0  0  -0.044375  0  3.927551  0  0  -0.04006  0  3.944568  0  0  -0.05948  -0.046166  0  3.913869  0
C  C37  1  0.16693860  0.42091639  0.55651065  1  0  -0.016941  0  3.676833  0  0  -0.044325  0  3.927376  0  0  -0.04001  0  3.944385  0  0  -0.059489  -0.04613  0  3.913679  0
C  C38  1  0.66577658  0.97597063  0.56183649  1  0  -0.116705  0  3.808626  0  0  -0.09921  0  4.044809  0  0  -0.110732  0  4.070694  0  0  -0.016115  -0.091643  0  4.027619  0
C  C39  1  0.16577618  0.02402759  0.43816300  1  0  -0.116703  0  3.808574  0  0  -0.099218  0  4.044814  0  0  -0.110738  0  4.070688  0  0  -0.01614  -0.091653  0  4.027637  0
C  C40  1  0.66625489  0.84050478  0.35446053  1  0  0.056205  0  3.784111  0  0  0.074625  0  4.014679  0  0  0.071815  0  4.039468  0  0  0.000467  0.075737  0  3.997706  0
C  C41  1  0.16626113  0.15949235  0.64553880  1  0  0.056138  0  3.784372  0  0  0.074629  0  4.014856  0  0  0.071821  0  4.039641  0  0  0.000477  0.075738  0  3.997888  0
C  C42  1  0.66560654  0.57660767  0.31893942  1  0  -0.080152  0  3.756871  0  0  -0.094547  0  4.016209  0  0  -0.099111  0  4.036785  0  0  -0.083995  -0.092069  0  4.002142  0
C  C43  1  0.16560848  0.42339163  0.68106022  1  0  -0.080085  0  3.756832  0  0  -0.094482  0  4.016161  0  0  -0.099029  0  4.036742  0  0  -0.083927  -0.092002  0  4.002089  0
C  C44  1  0.66440483  0.10506751  0.51852704  1  0  -0.027359  0  3.702007  0  0  -0.056613  0  3.958838  0  0  -0.051888  0  3.976527  0  0  -0.064946  -0.060121  0  3.948592  0
C  C45  1  0.16441264  0.89493286  0.48147188  1  0  -0.027423  0  3.701952  0  0  -0.056672  0  3.958766  0  0  -0.051928  0  3.976459  0  0  -0.064961  -0.060179  0  3.948518  0
C  C46  1  0.66400375  0.97454658  0.31376312  1  0  -0.054796  0  3.661049  0  0  -0.084663  0  3.924301  0  0  -0.082762  0  3.941567  0  0  -0.066921  -0.084872  0  3.912478  0
C  C47  1  0.16401555  0.02544945  0.68623517  1  0  -0.054737  0  3.66102  0  0  -0.084666  0  3.924309  0  0  -0.082767  0  3.941576  0  0  -0.066877  -0.08488  0  3.912483  0
C  C48  1  0.66714025  0.70493267  0.27504840  1  0  -0.118467  0  3.731531  0  0  -0.143464  0  3.985569  0  0  -0.143486  0  4.00528  0  0  -0.081922  -0.141903  0  3.971358  0
C  C49  1  0.16714781  0.29506556  0.72495109  1  0  -0.118433  0  3.731548  0  0  -0.143461  0  3.985586  0  0  -0.143482  0  4.005287  0  0  -0.081957  -0.141899  0  3.971372  0
C  C50  1  0.66283157  0.10421345  0.39428288  1  0  -0.078905  0  3.737151  0  0  -0.100045  0  4.011449  0  0  -0.105431  0  4.031902  0  0  -0.090152  -0.09731  0  3.997966  0
C  C51  1  0.16284320  0.89578475  0.60571661  1  0  -0.078897  0  3.736996  0  0  -0.10002  0  4.011307  0  0  -0.105401  0  4.031745  0  0  -0.090153  -0.097282  0  3.997819  0
N  N52  1  0.67173955  0.84512556  0.73134301  1  0  -0.272673  0  3.329754  0  0  -0.193986  0  3.556828  0  0  -0.21855  0  3.57408  0  0  -0.23248  -0.177191  0  3.54444  0
N  N53  1  0.17172823  0.15487378  0.26865751  1  0  -0.272586  0  3.329632  0  0  -0.193925  0  3.556726  0  0  -0.21849  0  3.57398  0  0  -0.232576  -0.177131  0  3.544348  0
O  O54  1  0.68740459  0.59681018  0.69454415  1  0  -0.548694  0  1.99429  0  0  -0.508705  0  2.228585  0  0  -0.529438  0  2.223672  0  0  -0.362788  -0.494075  0  2.230995  0
O  O55  1  0.18739482  0.40318820  0.30545885  1  0  -0.548601  0  1.994538  0  0  -0.508614  0  2.228843  0  0  -0.529347  0  2.223939  0  0  -0.362689  -0.493981  0  2.231261  0
O  O56  1  0.39154817  0.69832316  0.89804241  1  0  -0.628122  0  2.105336  0  0  -0.576979  0  2.341635  0  0  -0.59436  0  2.327399  0  0  -0.504812  -0.564523  0  2.350983  0
O  O57  1  0.89154539  0.30167756  0.10195877  1  0  -0.628256  0  2.105145  0  0  -0.577086  0  2.341506  0  0  -0.59447  0  2.327284  0  0  -0.504862  -0.564632  0  2.350856  0
O  O58  1  0.84564377  0.69792356  0.98363387  1  0  -0.722498  0  1.994292  0  0  -0.671968  0  2.239278  0  0  -0.695894  0  2.229262  0  0  -0.524752  -0.655087  0  2.245693  0
O  O59  1  0.34564343  0.30208339  0.01636918  1  0  -0.722406  0  1.994295  0  0  -0.671875  0  2.239285  0  0  -0.695804  0  2.229263  0  0  -0.524679  -0.654991  0  2.245701  0
O  O60  1  0.66822223  0.09340033  0.76582602  1  0  -0.561811  0  1.985103  0  0  -0.521653  0  2.220334  0  0  -0.54258  0  2.215931  0  0  -0.366998  -0.506844  0  2.22265  0
O  O61  1  0.16822709  0.90659356  0.23417196  1  0  -0.561948  0  1.984532  0  0  -0.521765  0  2.2198  0  0  -0.542694  0  2.215399  0  0  -0.367071  -0.506952  0  2.22212  0
O  O62  1  0.02925476  0.76473234  0.83376889  1  0  -0.644762  0  1.991699  0  0  -0.594461  0  2.225221  0  0  -0.619629  0  2.215706  0  0  -0.332385  -0.576993  0  2.232066  0
O  O63  1  0.52924467  0.23527045  0.16623328  1  0  -0.64472  0  1.991784  0  0  -0.594396  0  2.225315  0  0  -0.619566  0  2.215795  0  0  -0.33239  -0.576928  0  2.232166  0
