# generated using pymatgen
data_ZnH10(C7N2)2
_symmetry_space_group_name_H-M   'P 1'
_cell_length_a   16.58873836
_cell_length_b   16.42725747
_cell_length_c   20.55710426
_cell_angle_alpha   89.99834472
_cell_angle_beta   90.00051288
_cell_angle_gamma   90.00801613
_symmetry_Int_Tables_number   1
_chemical_formula_structural   ZnH10(C7N2)2
_chemical_formula_sum   'Zn8 H80 C112 N32'
_cell_volume   5601.96454027
_cell_formula_units_Z   8
loop_
 _symmetry_equiv_pos_site_id
 _symmetry_equiv_pos_as_xyz
  1  'x, y, z'
loop_
 _atom_site_type_symbol
 _atom_site_label
 _atom_site_symmetry_multiplicity
 _atom_site_fract_x
 _atom_site_fract_y
 _atom_site_fract_z
 _atom_site_occupancy
 _atom_site_pbe_bader_charge
 _atom_site_pbe_bader_spin_density
 _atom_site_pbe_cm5_charge
 _atom_site_pbe_ddec_charge
 _atom_site_pbe_ddec_spin_density
 _atom_site_pbe_ddec_sum_bond_order
 _atom_site_pbe_magmom
Zn  Zn0  1  0.64663549  0.51037075  0.00134054  1  1.186454  0  0.748983  0.640244  0  2.357287  0
Zn  Zn1  1  0.48908793  0.35286642  0.99885734  1  1.18458  0  0.746493  0.643141  0  2.333576  0
Zn  Zn2  1  0.35335853  0.48961084  0.00137058  1  1.186618  0  0.749049  0.640386  0  2.357161  0
Zn  Zn3  1  0.51090515  0.64713127  0.99886726  1  1.184396  0  0.746581  0.643215  0  2.333667  0
Zn  Zn4  1  0.14664610  0.98962292  0.49863908  1  1.186396  0  0.749113  0.640337  0  2.357251  0
Zn  Zn5  1  0.01092791  0.85287059  0.50112443  1  1.184508  0  0.74656  0.643196  0  2.333727  0
Zn  Zn6  1  0.85335836  0.01039683  0.49864159  1  1.186265  0  0.748968  0.64025  0  2.357212  0
Zn  Zn7  1  0.98908550  0.14713896  0.50111220  1  1.184917  0  0.746506  0.643112  0  2.333622  0
H  H8  1  0.74236340  0.58966339  0.12801444  1  0.066136  0  0.108707  0.090717  0  1.040179  0
H  H9  1  0.09092716  0.75693198  0.62853042  1  0.06269  0  0.108548  0.090347  0  1.040553  0
H  H10  1  0.83159365  0.00020032  0.65093558  1  0.10777  0  0.118759  0.113242  0  1.015334  0
H  H11  1  0.90899712  0.24313689  0.62849744  1  0.062332  0  0.108489  0.090274  0  1.040629  0
H  H12  1  0.75764303  0.08966018  0.37195753  1  0.065144  0  0.108691  0.090648  0  1.040016  0
H  H13  1  0.99983024  0.83163784  0.34812509  1  0.112258  0  0.118418  0.112474  0  1.014831  0
H  H14  1  0.24234806  0.91039081  0.37195769  1  0.06492  0  0.108603  0.090542  0  1.040024  0
H  H15  1  0.00016173  0.16834095  0.34810491  1  0.11276  0  0.118451  0.112427  0  1.014851  0
H  H16  1  0.66717035  0.10090826  0.27761801  1  0.015495  0  0.088752  0.090534  0  1.000767  0
H  H17  1  0.01632045  0.29571065  0.24707822  1  0.014116  0  0.092834  0.09859  0  0.98801  0
H  H18  1  0.33266751  0.89915994  0.27750068  1  0.014148  0  0.088754  0.090405  0  1.0007  0
H  H19  1  0.50015725  0.33166426  0.15187901  1  0.111501  0  0.118484  0.11246  0  1.014809  0
H  H20  1  0.98373316  0.70435785  0.24703236  1  0.012756  0  0.092842  0.098656  0  0.987963  0
H  H21  1  0.29526211  0.01501976  0.75214479  1  0.053651  0  0.092884  0.098462  0  0.988157  0
H  H22  1  0.89724020  0.33268201  0.72260572  1  0.032352  0  0.088668  0.090355  0  0.999427  0
H  H23  1  0.70473112  0.98500263  0.75215379  1  0.054191  0  0.092791  0.0982  0  0.988152  0
H  H24  1  0.10266914  0.66763630  0.72285773  1  0.026517  0  0.088592  0.090154  0  1.000023  0
H  H25  1  0.20468356  0.51500068  0.74783809  1  0.053311  0  0.092809  0.098371  0  0.988051  0
H  H26  1  0.60270832  0.83233363  0.77713069  1  0.026848  0  0.088626  0.090127  0  1.000158  0
H  H27  1  0.79501385  0.48518324  0.74755944  1  0.055017  0  0.092948  0.098776  0  0.987726  0
H  H28  1  0.39730808  0.16766639  0.77712338  1  0.026503  0  0.088626  0.090198  0  1.000133  0
H  H29  1  0.83273099  0.60090718  0.22238058  1  0.015244  0  0.08878  0.090569  0  1.000279  0
H  H30  1  0.25765183  0.41034663  0.12803488  1  0.066428  0  0.108716  0.090668  0  1.040101  0
H  H31  1  0.48368651  0.79579072  0.25288830  1  0.01479  0  0.092666  0.098352  0  0.987738  0
H  H32  1  0.16736874  0.39909597  0.22244290  1  0.014266  0  0.088593  0.090238  0  1.000105  0
H  H33  1  0.51620834  0.20438319  0.25299826  1  0.011492  0  0.092885  0.098623  0  0.987891  0
H  H34  1  0.59517788  0.12973081  0.33818605  1  0.046362  0  0.08928  0.091984  0  0.99327  0
H  H35  1  0.08755724  0.32692196  0.30731785  1  0.032935  0  0.089844  0.092986  0  0.993466  0
H  H36  1  0.40472406  0.87044101  0.33805671  1  0.045319  0  0.089322  0.09224  0  0.992607  0
H  H37  1  0.91253029  0.67306029  0.30726885  1  0.033489  0  0.089777  0.092807  0  0.993442  0
H  H38  1  0.32639915  0.08704628  0.69202774  1  0.065371  0  0.089653  0.092465  0  0.994619  0
H  H39  1  0.86877001  0.40557439  0.66219714  1  0.005832  0  0.089301  0.091911  0  0.992215  0
H  H40  1  0.67359510  0.91298442  0.69203309  1  0.065766  0  0.089644  0.092462  0  0.994417  0
H  H41  1  0.49983057  0.66837960  0.15186332  1  0.111989  0  0.118503  0.112518  0  1.015003  0
H  H42  1  0.13089441  0.59461104  0.66249346  1  0.0085  0  0.089127  0.091646  0  0.99262  0
H  H43  1  0.17355504  0.58700125  0.80795807  1  0.06652  0  0.089626  0.092461  0  0.994466  0
H  H44  1  0.63093279  0.90537369  0.83749265  1  0.009146  0  0.089363  0.091999  0  0.99271  0
H  H45  1  0.82633485  0.41328881  0.80769765  1  0.022634  0  0.089695  0.092344  0  0.994617  0
H  H46  1  0.36906871  0.09461979  0.83748708  1  0.009266  0  0.089411  0.092045  0  0.992645  0
H  H47  1  0.90476015  0.62973151  0.16182880  1  0.046405  0  0.089338  0.092126  0  0.993014  0
H  H48  1  0.41247348  0.82700249  0.19263836  1  0.034556  0  0.089805  0.092973  0  0.993435  0
H  H49  1  0.09530084  0.37036648  0.16189689  1  0.047338  0  0.089447  0.092284  0  0.992529  0
H  H50  1  0.58737598  0.17309453  0.19274728  1  0.067365  0  0.089804  0.092979  0  0.993875  0
H  H51  1  0.26659629  0.55270084  0.13496400  1  0.085215  0  0.115549  0.100598  0  1.006335  0
H  H52  1  0.33156065  0.49982377  0.84905608  1  0.107829  0  0.118675  0.112973  0  1.015593  0
H  H53  1  0.61161668  0.80972440  0.07948409  1  0.075421  0  0.115625  0.103251  0  1.001694  0
H  H54  1  0.73339819  0.44731213  0.13493894  1  0.084808  0  0.115543  0.100583  0  1.006338  0
H  H55  1  0.38834490  0.19027469  0.07946547  1  0.075533  0  0.115689  0.103055  0  1.001804  0
H  H56  1  0.80851977  0.61102748  0.92115012  1  0.088021  0  0.115766  0.103066  0  1.001492  0
H  H57  1  0.44824790  0.73438250  0.86447731  1  0.069012  0  0.115599  0.100687  0  1.006844  0
H  H58  1  0.19148163  0.38894350  0.92116057  1  0.088043  0  0.115807  0.103223  0  1.001612  0
H  H59  1  0.55176706  0.26558458  0.86449640  1  0.068965  0  0.115441  0.100505  0  1.006715  0
H  H60  1  0.69145002  0.11097627  0.57881984  1  0.08744  0  0.115844  0.103364  0  1.00184  0
H  H61  1  0.05169608  0.23434294  0.63551801  1  0.069305  0  0.115404  0.10042  0  1.006697  0
H  H62  1  0.30852312  0.88897841  0.57883118  1  0.087723  0  0.115868  0.103222  0  1.001757  0
H  H63  1  0.40907914  0.25694099  0.87144858  1  0.063034  0  0.108536  0.090294  0  1.040467  0
H  H64  1  0.94825687  0.76564912  0.63553615  1  0.069056  0  0.115521  0.100595  0  1.00661  0
H  H65  1  0.23338123  0.05268651  0.36502919  1  0.085285  0  0.11564  0.10063  0  1.006256  0
H  H66  1  0.88839058  0.30972558  0.42050378  1  0.075561  0  0.115671  0.10322  0  1.001686  0
H  H67  1  0.76662157  0.94731222  0.36504070  1  0.085108  0  0.115591  0.100532  0  1.006383  0
H  H68  1  0.11164874  0.69029310  0.42051072  1  0.07573  0  0.115668  0.103089  0  1.001549  0
H  H69  1  0.38146267  0.80302662  0.65224538  1  0.053472  0  0.093304  0.09372  0  1.012152  0
H  H70  1  0.94968602  0.77133274  0.76145879  1  0.034405  0  0.092815  0.092193  0  1.016137  0
H  H71  1  0.61850170  0.19679366  0.65235678  1  0.052835  0  0.093393  0.093879  0  1.012254  0
H  H72  1  0.05032373  0.22869581  0.76143482  1  0.034401  0  0.092764  0.092169  0  1.015884  0
H  H73  1  0.77147507  0.95108893  0.23897454  1  0.065776  0  0.092539  0.091625  0  1.016675  0
H  H74  1  0.66834940  0.50019857  0.84901347  1  0.107867  0  0.118666  0.112912  0  1.015889  0
H  H75  1  0.19742477  0.61759197  0.34715595  1  0.049825  0  0.093555  0.093942  0  1.012507  0
H  H76  1  0.22844260  0.04886908  0.23891926  1  0.065688  0  0.092617  0.091654  0  1.016533  0
H  H77  1  0.80266369  0.38241562  0.34708642  1  0.049745  0  0.093455  0.093897  0  1.012324  0
H  H78  1  0.72856814  0.45110089  0.26101122  1  0.066103  0  0.092574  0.091604  0  1.016804  0
H  H79  1  0.30254457  0.11755897  0.15282260  1  0.050279  0  0.093465  0.093989  0  1.012537  0
H  H80  1  0.27151629  0.54892601  0.26107802  1  0.065383  0  0.092679  0.091664  0  1.016822  0
H  H81  1  0.69737208  0.88241409  0.15288206  1  0.049818  0  0.093432  0.093757  0  1.012562  0
H  H82  1  0.11854301  0.30299138  0.84774241  1  0.053761  0  0.093257  0.093766  0  1.012327  0
H  H83  1  0.55033267  0.27110063  0.73865346  1  0.077782  0  0.092756  0.092075  0  1.016295  0
H  H84  1  0.88147740  0.69702330  0.84777182  1  0.053985  0  0.093333  0.093886  0  1.012182  0
H  H85  1  0.59094641  0.74310330  0.87147603  1  0.06274  0  0.108529  0.090404  0  1.040274  0
H  H86  1  0.44966224  0.72873195  0.73855083  1  0.034458  0  0.092707  0.092021  0  1.01595  0
H  H87  1  0.16844433  0.99983145  0.65093468  1  0.107886  0  0.118723  0.113152  0  1.015407  0
C  C88  1  0.70128797  0.63566087  0.10969761  1  0.392788  0  -0.000102  -0.053658  0  3.989362  0
C  C89  1  0.13641735  0.79820545  0.60982738  1  0.384919  0  0.000187  -0.052305  0  3.991283  0
C  C90  1  0.11275692  0.21295747  0.77271914  1  -0.044561  0  -0.102561  -0.148018  0  4.033909  0
C  C91  1  0.78727246  0.88819320  0.22737164  1  -0.078891  0  -0.10254  -0.146896  0  4.034144  0
C  C92  1  0.24490564  0.65125262  0.32209234  1  -0.038478  0  -0.103196  -0.146824  0  4.029694  0
C  C93  1  0.21267819  0.11178161  0.22733504  1  -0.079171  0  -0.102394  -0.146552  0  4.033947  0
C  C94  1  0.75514336  0.34877858  0.32205446  1  -0.036364  0  -0.102843  -0.146757  0  4.028817  0
C  C95  1  0.71275389  0.38820630  0.27261769  1  -0.08089  0  -0.102387  -0.14653  0  4.034502  0
C  C96  1  0.25506732  0.15120537  0.17788678  1  -0.03846  0  -0.102981  -0.146953  0  4.029233  0
C  C97  1  0.28728369  0.61184154  0.27264747  1  -0.078583  0  -0.102376  -0.14669  0  4.034806  0
C  C98  1  0.74487974  0.84877635  0.17792319  1  -0.038564  0  -0.102866  -0.146519  0  4.028957  0
C  C99  1  0.15190005  0.25536302  0.82232719  1  -0.038181  0  -0.102984  -0.146135  0  4.027611  0
C  C100  1  0.86423204  0.94589311  0.63652337  1  0.439496  0  0.008622  -0.039827  0  3.942823  0
C  C101  1  0.61272574  0.28692905  0.72730784  1  -0.07476  0  -0.102457  -0.147457  0  4.035087  0
C  C102  1  0.84811950  0.74465220  0.82235011  1  -0.041716  0  -0.103025  -0.146208  0  4.027034  0
C  C103  1  0.38722680  0.71298968  0.72727021  1  -0.045096  0  -0.102502  -0.147987  0  4.033735  0
C  C104  1  0.86351606  0.20183468  0.60981632  1  0.38594  0  0.000254  -0.052198  0  3.991293  0
C  C105  1  0.79871421  0.13565980  0.39027390  1  0.395561  0  5.2e-05  -0.053379  0  3.989165  0
C  C106  1  0.94578537  0.86390778  0.36288414  1  0.434337  0  0.009002  -0.037951  0  3.942767  0
C  C107  1  0.20128765  0.86437799  0.39027148  1  0.395668  0  -9e-05  -0.053549  0  3.989641  0
C  C108  1  0.05420484  0.13607126  0.36286607  1  0.433622  0  0.009004  -0.037904  0  3.942726  0
C  C109  1  0.63062053  0.15160813  0.29645891  1  -0.028359  0  -0.155894  -0.191796  0  3.897947  0
C  C110  1  0.08094771  0.30240718  0.25779475  1  -7.5e-05  0  -0.155486  -0.194524  0  3.898154  0
C  C111  1  0.36926487  0.84850399  0.29635867  1  -0.027287  0  -0.155861  -0.191901  0  3.897665  0
C  C112  1  0.55421037  0.36392609  0.13712237  1  0.434831  0  0.008912  -0.037983  0  3.94283  0
C  C113  1  0.91910851  0.69762094  0.25775513  1  0.000591  0  -0.155393  -0.194334  0  3.897344  0
C  C114  1  0.30181962  0.08028409  0.74143718  1  -0.085783  0  -0.155082  -0.192881  0  3.897418  0
C  C115  1  0.84706278  0.36979550  0.70393570  1  0.007143  0  -0.155841  -0.191897  0  3.898748  0
C  C116  1  0.69818063  0.91973606  0.74144399  1  -0.087694  0  -0.154998  -0.192688  0  3.896681  0
C  C117  1  0.15274295  0.63039484  0.70417569  1  0.009227  0  -0.155417  -0.191223  0  3.899343  0
C  C118  1  0.19814566  0.58026575  0.75854910  1  -0.087815  0  -0.15511  -0.192908  0  3.896573  0
C  C119  1  0.65277835  0.86959591  0.79581515  1  0.007118  0  -0.155756  -0.191671  0  3.899975  0
C  C120  1  0.80166951  0.41994111  0.75830914  1  -0.046077  0  -0.155437  -0.193307  0  3.896768  0
C  C121  1  0.34723314  0.13040788  0.79580848  1  0.007722  0  -0.155774  -0.191658  0  3.899979  0
C  C122  1  0.86931642  0.65159977  0.20354687  1  -0.028593  0  -0.155894  -0.191903  0  3.897549  0
C  C123  1  0.29871649  0.36434531  0.10970940  1  0.39488  0  -5.2e-05  -0.053412  0  3.988971  0
C  C124  1  0.41905901  0.80247439  0.24216108  1  -0.002995  0  -0.155505  -0.194364  0  3.896951  0
C  C125  1  0.13074423  0.34843798  0.20359767  1  -0.02914  0  -0.155681  -0.191522  0  3.896825  0
C  C126  1  0.58082901  0.19764676  0.24226282  1  -0.032544  0  -0.155473  -0.1945  0  3.897887  0
C  C127  1  0.32725852  0.57615441  0.12853031  1  0.386631  0  0.007996  -0.046375  0  3.988063  0
C  C128  1  0.63506483  0.74848333  0.08534252  1  0.423052  0  0.005711  -0.055371  0  3.980402  0
C  C129  1  0.67273138  0.42386829  0.12851186  1  0.387554  0  0.007977  -0.046036  0  3.98779  0
C  C130  1  0.36491762  0.25151953  0.08533096  1  0.423296  0  0.005595  -0.055174  0  3.980557  0
C  C131  1  0.74792445  0.63481730  0.91514558  1  0.413438  0  0.005489  -0.054816  0  3.983573  0
C  C132  1  0.42467018  0.67333355  0.87123088  1  0.440034  0  0.006704  -0.048058  0  3.986482  0
C  C133  1  0.25208139  0.36517308  0.91515368  1  0.413685  0  0.005403  -0.055194  0  3.984232  0
C  C134  1  0.44577378  0.63611447  0.13711921  1  0.434787  0  0.008928  -0.037982  0  3.943332  0
C  C135  1  0.57532705  0.32664808  0.87122186  1  0.439569  0  0.006905  -0.047813  0  3.986365  0
C  C136  1  0.75204092  0.13478417  0.58484171  1  0.413862  0  0.005449  -0.05546  0  3.984488  0
C  C137  1  0.07529097  0.17329969  0.62876378  1  0.440389  0  0.007102  -0.047603  0  3.985257  0
C  C138  1  0.24792296  0.86519312  0.58484262  1  0.413471  0  0.005339  -0.055269  0  3.984541  0
C  C139  1  0.92468875  0.82669791  0.62877096  1  0.440454  0  0.006872  -0.047971  0  3.985666  0
C  C140  1  0.17271753  0.07612877  0.37146511  1  0.386991  0  0.007911  -0.046574  0  3.988062  0
C  C141  1  0.86494509  0.24847999  0.41463787  1  0.423931  0  0.005726  -0.055395  0  3.980461  0
C  C142  1  0.82728080  0.92386630  0.37147965  1  0.387381  0  0.007937  -0.04608  0  3.987951  0
C  C143  1  0.13508359  0.75154285  0.41464735  1  0.422663  0  0.005609  -0.055102  0  3.980592  0
C  C144  1  0.70299442  0.72055064  0.11988852  1  -0.000736  0  -0.039391  -0.036259  0  4.097531  0
C  C145  1  0.36420208  0.55413254  0.86346543  1  0.420949  0  0.009004  -0.039022  0  3.94308  0
C  C146  1  0.62475031  0.38049207  0.17276263  1  -0.013303  0  -0.033685  -0.027124  0  4.08081  0
C  C147  1  0.29699459  0.27945118  0.11988128  1  -0.001065  0  -0.039444  -0.036423  0  4.097572  0
C  C148  1  0.37523311  0.61956124  0.17276428  1  -0.013436  0  -0.033756  -0.027179  0  4.081415  0
C  C149  1  0.38040859  0.62516106  0.82757374  1  -0.014249  0  -0.033845  -0.026407  0  4.081555  0
C  C150  1  0.27946018  0.29691062  0.88011853  1  -0.002651  0  -0.039771  -0.037991  0  4.103333  0
C  C151  1  0.61954083  0.37483977  0.82754569  1  -0.014223  0  -0.03375  -0.026254  0  4.082094  0
C  C152  1  0.72055360  0.70309977  0.88012661  1  -0.003282  0  -0.039868  -0.038162  0  4.10333  0
C  C153  1  0.11956433  0.12514021  0.67241199  1  -0.014722  0  -0.033925  -0.026437  0  4.081211  0
C  C154  1  0.22053679  0.79691666  0.61987415  1  -0.002396  0  -0.039767  -0.038033  0  4.103737  0
C  C155  1  0.88043848  0.87487045  0.67242055  1  -0.032277  0  -0.033756  -0.026181  0  4.081155  0
C  C156  1  0.36358764  0.29820899  0.89016101  1  0.384489  0  7.8e-05  -0.052552  0  3.990791  0
C  C157  1  0.77939685  0.20308141  0.61986479  1  -0.002653  0  -0.040105  -0.038332  0  4.103672  0
C  C158  1  0.79700728  0.22054395  0.38009174  1  -0.001733  0  -0.039382  -0.036137  0  4.097075  0
C  C159  1  0.87524901  0.88047880  0.32724072  1  -0.013604  0  -0.033782  -0.027253  0  4.080905  0
C  C160  1  0.20301003  0.77949515  0.38009426  1  -0.000512  0  -0.039262  -0.03623  0  4.098393  0
C  C161  1  0.12473650  0.11949967  0.32722221  1  -0.014194  0  -0.033899  -0.027004  0  4.08113  0
C  C162  1  0.63261974  0.27128010  0.25784074  1  -0.079381  0  -0.018289  0.022595  0  3.908695  0
C  C163  1  0.17605559  0.26882739  0.19358688  1  -0.045031  0  -0.019594  0.017992  0  3.88738  0
C  C164  1  0.36733280  0.72881558  0.25779330  1  -0.0758  0  -0.018075  0.022932  0  3.907898  0
C  C165  1  0.82395660  0.73118790  0.19357527  1  -0.04381  0  -0.019496  0.01819  0  3.887352  0
C  C166  1  0.26831761  0.17580780  0.80586599  1  -0.03512  0  -0.020115  0.017343  0  3.895031  0
C  C167  1  0.63573877  0.44587551  0.86343016  1  0.422279  0  0.008997  -0.039043  0  3.943798  0
C  C168  1  0.72857852  0.36769211  0.74284543  1  -0.056713  0  -0.017978  0.02244  0  3.905261  0
C  C169  1  0.73169713  0.82420810  0.80587720  1  -0.034054  0  -0.020254  0.017416  0  3.894575  0
C  C170  1  0.27129449  0.63238316  0.74295444  1  -0.023462  0  -0.01796  0.022433  0  3.904658  0
C  C171  1  0.23167103  0.67580863  0.69412302  1  -0.035615  0  -0.020176  0.017354  0  3.894939  0
C  C172  1  0.77132924  0.86764506  0.75704488  1  -0.02297  0  -0.0179  0.02263  0  3.904247  0
C  C173  1  0.76819113  0.32424968  0.69402642  1  -0.036104  0  -0.019816  0.017871  0  3.89435  0
C  C174  1  0.22867887  0.13237884  0.75703475  1  -0.024185  0  -0.017888  0.022493  0  3.904586  0
C  C175  1  0.86735849  0.77126173  0.24216567  1  -0.077623  0  -0.018464  0.022567  0  3.908485  0
C  C176  1  0.32394449  0.76888350  0.30637959  1  -0.046854  0  -0.019563  0.01795  0  3.887634  0
C  C177  1  0.13265310  0.22874924  0.24217408  1  -0.076194  0  -0.018466  0.022481  0  3.908446  0
C  C178  1  0.63642637  0.70181168  0.89017207  1  0.384619  0  1e-05  -0.052814  0  3.990735  0
C  C179  1  0.67601769  0.23119874  0.30642037  1  -0.042579  0  -0.019521  0.018308  0  3.887258  0
C  C180  1  0.65232523  0.34892221  0.23534084  1  0.016563  0  -0.015135  0.031292  0  4.064861  0
C  C181  1  0.24197311  0.23397943  0.16147436  1  0.035319  0  -0.014837  0.033728  0  4.073368  0
C  C182  1  0.34765768  0.65115398  0.23533356  1  0.018115  0  -0.015168  0.031482  0  4.065233  0
C  C183  1  0.75800893  0.76601940  0.16148663  1  0.035777  0  -0.014979  0.0336  0  4.073352  0
C  C184  1  0.23394060  0.24203072  0.83838502  1  0.012331  0  -0.014771  0.034522  0  4.077211  0
C  C185  1  0.65158647  0.34751219  0.76508027  1  0.009822  0  -0.015181  0.031192  0  4.064273  0
C  C186  1  0.76607654  0.75798450  0.83840041  1  0.012639  0  -0.014706  0.034502  0  4.076945  0
C  C187  1  0.34833694  0.65249253  0.76511787  1  -0.0249  0  -0.014865  0.031761  0  4.063103  0
C  C188  1  0.26605513  0.74204482  0.66160260  1  0.013417  0  -0.014932  0.034193  0  4.077407  0
C  C189  1  0.13578658  0.05412251  0.63651841  1  0.421357  0  0.008788  -0.039609  0  3.942626  0
C  C190  1  0.84836782  0.84754862  0.73488686  1  -0.026645  0  -0.014878  0.031602  0  4.063254  0
C  C191  1  0.73384802  0.25793379  0.66158292  1  0.012518  0  -0.014776  0.034456  0  4.077302  0
C  C192  1  0.15163990  0.15247095  0.73487281  1  -0.025532  0  -0.01505  0.031492  0  4.063468  0
C  C193  1  0.84767679  0.84890300  0.26465627  1  0.015954  0  -0.014908  0.031473  0  4.064625  0
C  C194  1  0.25801595  0.73403023  0.33849633  1  0.036177  0  -0.014908  0.03349  0  4.073846  0
C  C195  1  0.15230502  0.15108547  0.26464020  1  0.016585  0  -0.014999  0.031473  0  4.064509  0
C  C196  1  0.74199628  0.26601673  0.33849799  1  0.035511  0  -0.015141  0.033241  0  4.07288  0
C  C197  1  0.34809819  0.75539074  0.67766239  1  -0.038611  0  -0.102877  -0.145811  0  4.027492  0
C  C198  1  0.88725362  0.78706407  0.77273991  1  -0.041583  0  -0.102661  -0.14816  0  4.033858  0
C  C199  1  0.65183932  0.24450509  0.67770859  1  -0.053927  0  -0.102969  -0.146512  0  4.028317  0
N  N200  1  0.63773079  0.61473081  0.07250894  1  -0.775372  0  -0.269361  -0.218434  0  3.480615  0
N  N201  1  0.11543729  0.86182928  0.57216986  1  -0.762577  0  -0.269058  -0.220287  0  3.478593  0
N  N202  1  0.89593317  0.94002721  0.57610621  1  -0.792535  0  -0.272201  -0.20272  0  3.53331  0
N  N203  1  0.88452525  0.13822102  0.57216217  1  -0.762667  0  -0.268751  -0.22007  0  3.47829  0
N  N204  1  0.86226537  0.11473077  0.42745663  1  -0.777571  0  -0.269611  -0.2189  0  3.480259  0
N  N205  1  0.93979684  0.89469374  0.42370842  1  -0.792182  0  -0.270843  -0.203652  0  3.531356  0
N  N206  1  0.13774173  0.88529086  0.42746158  1  -0.77833  0  -0.269359  -0.218402  0  3.479972  0
N  N207  1  0.06020377  0.10531094  0.42369803  1  -0.791216  0  -0.270892  -0.203787  0  3.531244  0
N  N208  1  0.36557966  0.56911744  0.07116960  1  -0.792743  0  -0.291149  -0.180297  0  3.650657  0
N  N209  1  0.59745093  0.68475333  0.05762346  1  -0.796231  0  -0.286037  -0.175165  0  3.653452  0
N  N210  1  0.63440996  0.43088383  0.07114873  1  -0.793099  0  -0.291076  -0.180476  0  3.650895  0
N  N211  1  0.56019969  0.39469636  0.07629307  1  -0.792079  0  -0.270814  -0.203555  0  3.530957  0
N  N212  1  0.40254643  0.31524746  0.05762442  1  -0.796558  0  -0.285917  -0.174897  0  3.653247  0
N  N213  1  0.68463193  0.59743710  0.94304378  1  -0.795381  0  -0.28717  -0.175219  0  3.659729  0
N  N214  1  0.43251443  0.63458757  0.92854117  1  -0.813262  0  -0.28849  -0.178576  0  3.646807  0
N  N215  1  0.31536564  0.40255835  0.94305663  1  -0.79566  0  -0.286998  -0.175007  0  3.659636  0
N  N216  1  0.56749634  0.36539176  0.92853327  1  -0.813395  0  -0.288623  -0.178754  0  3.646772  0
N  N217  1  0.81532989  0.09744100  0.55693489  1  -0.795515  0  -0.287082  -0.174712  0  3.659031  0
N  N218  1  0.06746286  0.13455191  0.57145013  1  -0.814183  0  -0.288511  -0.178541  0  3.64662  0
N  N219  1  0.18465311  0.90257261  0.55693759  1  -0.795691  0  -0.286999  -0.17476  0  3.65851  0
N  N220  1  0.93252984  0.86543582  0.57145417  1  -0.813441  0  -0.288495  -0.178415  0  3.646287  0
N  N221  1  0.13440142  0.06913175  0.42883454  1  -0.793202  0  -0.291015  -0.180046  0  3.650587  0
N  N222  1  0.36227927  0.38527082  0.07252426  1  -0.777786  0  -0.269532  -0.218776  0  3.481071  0
N  N223  1  0.90256071  0.18476510  0.44235073  1  -0.796452  0  -0.285906  -0.174664  0  3.652996  0
N  N224  1  0.86560503  0.93088414  0.42884427  1  -0.793384  0  -0.291002  -0.180246  0  3.650766  0
N  N225  1  0.09745971  0.81525007  0.44236253  1  -0.796031  0  -0.285992  -0.175065  0  3.652918  0
N  N226  1  0.43978551  0.60531735  0.07630005  1  -0.791879  0  -0.270826  -0.203606  0  3.531325  0
N  N227  1  0.39590481  0.55998572  0.92388187  1  -0.792306  0  -0.272322  -0.202892  0  3.533672  0
N  N228  1  0.38456839  0.36183829  0.92782473  1  -0.762633  0  -0.26892  -0.219867  0  3.479054  0
N  N229  1  0.60407298  0.44000848  0.92385759  1  -0.792734  0  -0.272157  -0.202687  0  3.533766  0
N  N230  1  0.61543458  0.63817404  0.92782440  1  -0.762156  0  -0.268744  -0.219657  0  3.478875  0
N  N231  1  0.10408167  0.05997365  0.57610290  1  -0.792265  0  -0.272181  -0.202528  0  3.533247  0
