# generated using pymatgen
data_ZnH14C12S(NO3)2
_symmetry_space_group_name_H-M   'P 1'
_cell_length_a   7.33202489
_cell_length_b   9.69379602
_cell_length_c   13.62922959
_cell_angle_alpha   110.83275406
_cell_angle_beta   93.52338922
_cell_angle_gamma   90.02823450
_symmetry_Int_Tables_number   1
_chemical_formula_structural   ZnH14C12S(NO3)2
_chemical_formula_sum   'Zn2 H28 C24 S2 N4 O12'
_cell_volume   903.39774517
_cell_formula_units_Z   2
loop_
 _symmetry_equiv_pos_site_id
 _symmetry_equiv_pos_as_xyz
  1  'x, y, z'
loop_
 _atom_site_type_symbol
 _atom_site_label
 _atom_site_symmetry_multiplicity
 _atom_site_fract_x
 _atom_site_fract_y
 _atom_site_fract_z
 _atom_site_occupancy
 _atom_site_hle17_bader_spin_density
 _atom_site_hle17_ddec_charge
 _atom_site_hle17_ddec_spin_density
 _atom_site_hle17_ddec_sum_bond_order
 _atom_site_hle17_magmom
 _atom_site_hse06_10hf_bader_spin_density
 _atom_site_hse06_10hf_ddec_charge
 _atom_site_hse06_10hf_ddec_spin_density
 _atom_site_hse06_10hf_ddec_sum_bond_order
 _atom_site_hse06_10hf_magmom
 _atom_site_hse06_bader_spin_density
 _atom_site_hse06_ddec_charge
 _atom_site_hse06_ddec_spin_density
 _atom_site_hse06_ddec_sum_bond_order
 _atom_site_hse06_magmom
 _atom_site_pbe_bader_spin_density
 _atom_site_pbe_cm5_charge
 _atom_site_pbe_ddec_charge
 _atom_site_pbe_ddec_spin_density
 _atom_site_pbe_ddec_sum_bond_order
 _atom_site_pbe_magmom
Zn  Zn0  1  0.22055980  0.33729384  0.53564507  1  0  1.122491  0  1.74693  0  0  0.94716  0  2.196626  0  0  0.990993  0  2.144068  0  0  0.6994  0.915398  0  2.232799  0
Zn  Zn1  1  0.77902607  0.80215868  0.46442158  1  0  1.123236  0  1.748265  0  0  0.947711  0  2.198206  0  0  0.991513  0  2.145612  0  0  0.699801  0.916341  0  2.23516  0
H  H2  1  0.49671320  0.18164759  0.61997445  1  0  0.428112  0  0.880263  0  0  0.394252  0  0.948172  0  0  0.405538  0  0.931856  0  0  0.289359  0.38625  0  0.959734  0
H  H3  1  0.50261025  0.56203130  0.37999190  1  0  0.427902  0  0.880475  0  0  0.39411  0  0.948301  0  0  0.405396  0  0.931985  0  0  0.288992  0.386112  0  0.959859  0
H  H4  1  0.30277842  0.11280312  0.63251007  1  0  0.416022  0  0.823127  0  0  0.402531  0  0.869536  0  0  0.41022  0  0.861401  0  0  0.323424  0.396983  0  0.875581  0
H  H5  1  0.69656832  0.48087240  0.36751343  1  0  0.415778  0  0.823346  0  0  0.402175  0  0.869994  0  0  0.409901  0  0.861738  0  0  0.32273  0.396606  0  0.876104  0
H  H6  1  0.52727721  0.47869650  0.49989444  1  0  0.416268  0  0.884171  0  0  0.385791  0  0.952191  0  0  0.395947  0  0.937275  0  0  0.291382  0.378413  0  0.963058  0
H  H7  1  0.47229264  0.97856796  0.50008335  1  0  0.415879  0  0.884458  0  0  0.385376  0  0.952829  0  0  0.395563  0  0.937855  0  0  0.291472  0.377986  0  0.963701  0
H  H8  1  0.57169538  0.31877936  0.50152737  1  0  0.42127  0  0.890226  0  0  0.390108  0  0.954461  0  0  0.400964  0  0.938759  0  0  0.285687  0.382394  0  0.965609  0
H  H9  1  0.42816056  0.81693809  0.49835348  1  0  0.421458  0  0.890281  0  0  0.389783  0  0.955206  0  0  0.400643  0  0.93952  0  0  0.285646  0.382055  0  0.966361  0
H  H10  1  0.12740749  0.29607442  0.73809082  1  0  0.080322  0  0.943247  0  0  0.088396  0  1.005437  0  0  0.091234  0  1.002071  0  0  0.118307  0.086281  0  1.007799  0
H  H11  1  0.87286859  0.55830411  0.26199042  1  0  0.080563  0  0.943129  0  0  0.08867  0  1.005464  0  0  0.091509  0  1.0021  0  0  0.11818  0.086609  0  1.007747  0
H  H12  1  0.14102600  0.43706189  0.93128624  1  0  0.097675  0  0.946794  0  0  0.109967  0  1.002334  0  0  0.113135  0  1.001794  0  0  0.103625  0.107635  0  1.002914  0
H  H13  1  0.85888812  0.50556521  0.06870407  1  0  0.098406  0  0.946626  0  0  0.110677  0  1.001984  0  0  0.113848  0  1.001475  0  0  0.103987  0.10842  0  1.002495  0
H  H14  1  0.34916082  0.81022180  0.86505802  1  0  0.096033  0  0.959298  0  0  0.108575  0  1.015603  0  0  0.111333  0  1.01524  0  0  0.103625  0.106688  0  1.015875  0
H  H15  1  0.65174127  0.94508994  0.13468893  1  0  0.096011  0  0.959823  0  0  0.10868  0  1.015965  0  0  0.111454  0  1.015593  0  0  0.103488  0.106771  0  1.016233  0
H  H16  1  0.33810335  0.65080805  0.67672603  1  0  0.103743  0  0.962785  0  0  0.109836  0  1.026304  0  0  0.112746  0  1.023662  0  0  0.119493  0.107571  0  1.028384  0
H  H17  1  0.66296668  0.97437099  0.32302431  1  0  0.104355  0  0.961176  0  0  0.110042  0  1.025493  0  0  0.113014  0  1.022744  0  0  0.11943  0.107697  0  1.027688  0
H  H18  1  0.21270738  0.66393718  0.07959760  1  0  0.09545  0  0.94097  0  0  0.109557  0  0.996724  0  0  0.112271  0  0.995539  0  0  0.10701  0.107585  0  0.997647  0
H  H19  1  0.78776572  0.58400465  0.92031574  1  0  0.095241  0  0.939398  0  0  0.108926  0  0.995913  0  0  0.111638  0  0.994741  0  0  0.10682  0.106994  0  0.996758  0
H  H20  1  0.15036779  0.99343742  0.42553695  1  0  0.102193  0  0.94686  0  0  0.109567  0  1.009026  0  0  0.112222  0  1.006379  0  0  0.122266  0.107387  0  1.011392  0
H  H21  1  0.84949539  0.56881654  0.57423338  1  0  0.102719  0  0.947435  0  0  0.110327  0  1.009068  0  0  0.113006  0  1.006379  0  0  0.122444  0.108144  0  1.011446  0
H  H22  1  0.17421456  0.80720754  0.24890010  1  0  0.118441  0  0.937859  0  0  0.128901  0  0.995691  0  0  0.132015  0  0.995147  0  0  0.111639  0.126745  0  0.996156  0
H  H23  1  0.82584145  0.55839668  0.75065741  1  0  0.117978  0  0.938026  0  0  0.128618  0  0.995714  0  0  0.131803  0  0.995071  0  0  0.111526  0.12648  0  0.996095  0
H  H24  1  0.30050272  0.16587599  0.14209282  1  0  0.095845  0  0.945191  0  0  0.10747  0  0.99997  0  0  0.110794  0  0.999446  0  0  0.101928  0.105025  0  1.000538  0
H  H25  1  0.69938025  0.02378872  0.85837332  1  0  0.094975  0  0.945378  0  0  0.106324  0  1.000601  0  0  0.109685  0  1.000044  0  0  0.101166  0.103889  0  1.001138  0
H  H26  1  0.27928455  0.33778004  0.32594898  1  0  0.087363  0  1.01256  0  0  0.091863  0  1.080459  0  0  0.095033  0  1.076935  0  0  0.111899  0.089524  0  1.082988  0
H  H27  1  0.72014224  0.01261326  0.67466566  1  0  0.086807  0  1.012382  0  0  0.090961  0  1.080753  0  0  0.094105  0  1.077286  0  0  0.11181  0.088654  0  1.083238  0
H  H28  1  0.27308888  0.93313586  0.01510396  1  0  0.079063  0  0.950995  0  0  0.092223  0  1.010393  0  0  0.095262  0  1.008225  0  0  0.099705  0.090039  0  1.011955  0
H  H29  1  0.72696635  0.91757617  0.98489132  1  0  0.079662  0  0.952487  0  0  0.093078  0  1.011439  0  0  0.096036  0  1.009336  0  0  0.100313  0.09096  0  1.012942  0
C  C30  1  0.18141456  0.40908201  0.77053182  1  0  0.13427  0  3.735778  0  0  0.101936  0  3.98833  0  0  0.109665  0  4.006524  0  0  0.047436  0.097039  0  3.975805  0
C  C31  1  0.81915103  0.63882855  0.22945253  1  0  0.133815  0  3.735368  0  0  0.101171  0  3.988382  0  0  0.1089  0  4.006593  0  0  0.046764  0.09616  0  3.975972  0
C  C32  1  0.18589295  0.48932017  0.87774182  1  0  -0.186422  0  3.73759  0  0  -0.202516  0  3.984563  0  0  -0.211659  0  4.0067  0  0  -0.090479  -0.196478  0  3.969462  0
C  C33  1  0.81453250  0.61159512  0.12219277  1  0  -0.188188  0  3.737167  0  0  -0.204153  0  3.984396  0  0  -0.213334  0  4.006534  0  0  -0.090947  -0.198229  0  3.969512  0
C  C34  1  0.24323227  0.63861923  0.91640562  1  0  0.134468  0  3.821316  0  0  0.1477  0  4.056103  0  0  0.153155  0  4.079537  0  0  0.004646  0.144434  0  4.039898  0
C  C35  1  0.75727355  0.72205736  0.08336771  1  0  0.135039  0  3.821377  0  0  0.148328  0  4.055948  0  0  0.153821  0  4.079356  0  0  0.004325  0.144884  0  4.040003  0
C  C36  1  0.29973528  0.69645657  0.84175261  1  0  -0.165282  0  3.704037  0  0  -0.181772  0  3.949126  0  0  -0.190622  0  3.971969  0  0  -0.084843  -0.176366  0  3.933883  0
C  C37  1  0.70101345  0.85465511  0.15800052  1  0  -0.165163  0  3.704984  0  0  -0.181521  0  3.950012  0  0  -0.190395  0  3.972857  0  0  -0.083881  -0.175861  0  3.93464  0
C  C38  1  0.29603033  0.60801193  0.73610203  1  0  0.141008  0  3.67235  0  0  0.108948  0  3.922736  0  0  0.116473  0  3.940304  0  0  0.053435  0.104268  0  3.910773  0
C  C39  1  0.70493496  0.87212574  0.26369478  1  0  0.140878  0  3.672566  0  0  0.108657  0  3.923585  0  0  0.116174  0  3.941215  0  0  0.053192  0.103873  0  3.911667  0
C  C40  1  0.23706541  0.72545940  0.02803689  1  0  -0.099282  0  3.722287  0  0  -0.120939  0  3.976786  0  0  -0.123397  0  3.996685  0  0  -0.080266  -0.119147  0  3.962955  0
C  C41  1  0.76324770  0.69706055  0.97174078  1  0  -0.098708  0  3.721234  0  0  -0.120071  0  3.975743  0  0  -0.122519  0  3.995563  0  0  -0.080207  -0.118315  0  3.962105  0
C  C42  1  0.18758824  0.02695251  0.36108788  1  0  0.159208  0  3.644715  0  0  0.125999  0  3.89835  0  0  0.133997  0  3.91522  0  0  0.058015  0.120862  0  3.887369  0
C  C43  1  0.81210997  0.66652398  0.63880816  1  0  0.157658  0  3.646275  0  0  0.124482  0  3.898943  0  0  0.132476  0  3.915803  0  0  0.057052  0.119206  0  3.888057  0
C  C44  1  0.19859140  0.92299761  0.26052461  1  0  -0.147079  0  3.649313  0  0  -0.165671  0  3.897275  0  0  -0.174068  0  3.918917  0  0  -0.076071  -0.160385  0  3.882823  0
C  C45  1  0.80134237  0.66269479  0.73926434  1  0  -0.146099  0  3.647373  0  0  -0.1649  0  3.895662  0  0  -0.173319  0  3.917215  0  0  -0.075877  -0.159474  0  3.881177  0
C  C46  1  0.23976481  0.96998617  0.17775117  1  0  0.122164  0  3.841498  0  0  0.136084  0  4.076197  0  0  0.141259  0  4.099882  0  0  0.001627  0.132986  0  4.059647  0
C  C47  1  0.76028673  0.79223262  0.82226242  1  0  0.122969  0  3.841364  0  0  0.136243  0  4.077029  0  0  0.14143  0  4.100684  0  0  0.00175  0.13301  0  4.060772  0
C  C48  1  0.26913346  0.12246863  0.20303611  1  0  -0.184052  0  3.741053  0  0  -0.197916  0  3.9813  0  0  -0.207431  0  4.003913  0  0  -0.09313  -0.191653  0  3.965835  0
C  C49  1  0.73078452  0.91963770  0.79726586  1  0  -0.183208  0  3.741749  0  0  -0.19654  0  3.982241  0  0  -0.206094  0  4.004875  0  0  -0.091923  -0.190265  0  3.96694  0
C  C50  1  0.25828031  0.21919025  0.30556664  1  0  0.125664  0  3.718615  0  0  0.097861  0  3.959875  0  0  0.105066  0  3.978595  0  0  0.040347  0.093421  0  3.94696  0
C  C51  1  0.74134468  0.91425502  0.69483559  1  0  0.128137  0  3.715845  0  0  0.099941  0  3.957423  0  0  0.107137  0  3.976179  0  0  0.040469  0.095341  0  3.944715  0
C  C52  1  0.25191408  0.87413803  0.06873995  1  0  -0.094466  0  3.742712  0  0  -0.116505  0  3.998862  0  0  -0.118922  0  4.018361  0  0  -0.080522  -0.114692  0  3.985215  0
C  C53  1  0.74823728  0.80508624  0.93112816  1  0  -0.095016  0  3.745957  0  0  -0.117098  0  4.002173  0  0  -0.119431  0  4.021666  0  0  -0.080615  -0.115434  0  3.988763  0
S  S54  1  0.18291975  0.61897609  0.45092123  1  0  1.585759  0  5.813025  0  0  1.463166  0  6.35342  0  0  1.518123  0  6.318452  0  0  0.561817  1.42483  0  6.376447  0
S  S55  1  0.81668918  0.16820194  0.54925503  1  0  1.583986  0  5.814248  0  0  1.461574  0  6.354765  0  0  1.516623  0  6.319833  0  0  0.562404  1.423222  0  6.377763  0
N  N56  1  0.23605071  0.46638469  0.70041358  1  0  -0.30801  0  3.248759  0  0  -0.227896  0  3.508658  0  0  -0.246956  0  3.525592  0  0  -0.314323  -0.215309  0  3.496963  0
N  N57  1  0.76469090  0.76633871  0.29959792  1  0  -0.308479  0  3.247855  0  0  -0.228023  0  3.507718  0  0  -0.247091  0  3.524655  0  0  -0.313696  -0.215242  0  3.496273  0
N  N58  1  0.21787223  0.17265788  0.38386986  1  0  -0.318998  0  3.247102  0  0  -0.238719  0  3.509515  0  0  -0.258489  0  3.526313  0  0  -0.316579  -0.225437  0  3.497945  0
N  N59  1  0.78169445  0.78962575  0.61626139  1  0  -0.321967  0  3.247204  0  0  -0.240771  0  3.508836  0  0  -0.260518  0  3.525555  0  0  -0.316939  -0.227371  0  3.497649  0
O  O60  1  0.10312041  0.49435743  0.47667811  1  0  -0.759445  0  2.007216  0  0  -0.695466  0  2.291139  0  0  -0.718461  0  2.270123  0  0  -0.365244  -0.678707  0  2.305147  0
O  O61  1  0.89662635  0.01791646  0.52339306  1  0  -0.758663  0  2.008871  0  0  -0.695003  0  2.292945  0  0  -0.717994  0  2.271765  0  0  -0.365676  -0.678362  0  2.307265  0
O  O62  1  0.03171998  0.70693545  0.42797126  1  0  -0.755423  0  2.089356  0  0  -0.692855  0  2.388894  0  0  -0.716714  0  2.367673  0  0  -0.36425  -0.675779  0  2.403563  0
O  O63  1  0.96794474  0.27926774  0.57266386  1  0  -0.755512  0  2.089487  0  0  -0.692948  0  2.388716  0  0  -0.716845  0  2.367576  0  0  -0.364593  -0.675829  0  2.403103  0
O  O64  1  0.28751982  0.55924686  0.35411750  1  0  -0.743913  0  1.906383  0  0  -0.688974  0  2.135784  0  0  -0.709451  0  2.11673  0  0  -0.381677  -0.674325  0  2.148391  0
O  O65  1  0.71163353  0.20490722  0.64587082  1  0  -0.742191  0  1.907456  0  0  -0.687186  0  2.136767  0  0  -0.707581  0  2.117609  0  0  -0.380755  -0.672536  0  2.149297  0
O  O66  1  0.30623046  0.71322079  0.54080735  1  0  -0.727872  0  1.917457  0  0  -0.668408  0  2.145271  0  0  -0.68925  0  2.128257  0  0  -0.366227  -0.653464  0  2.15665  0
O  O67  1  0.69383868  0.17262702  0.45926452  1  0  -0.727941  0  1.918598  0  0  -0.66819  0  2.145855  0  0  -0.689214  0  2.128952  0  0  -0.366553  -0.653218  0  2.157213  0
O  O68  1  0.36743146  0.15133888  0.58728100  1  0  -0.824646  0  1.903908  0  0  -0.768396  0  2.098876  0  0  -0.788818  0  2.071367  0  0  -0.556618  -0.753538  0  2.117906  0
O  O69  1  0.63188232  0.56458514  0.41272492  1  0  -0.824565  0  1.905512  0  0  -0.768258  0  2.100163  0  0  -0.788666  0  2.072676  0  0  -0.555743  -0.753559  0  2.119315  0
O  O70  1  0.49164692  0.40640330  0.53148049  1  0  -0.847867  0  1.945433  0  0  -0.79182  0  2.161697  0  0  -0.813263  0  2.128745  0  0  -0.58608  -0.776365  0  2.184672  0
O  O71  1  0.50799379  0.87477253  0.46833253  1  0  -0.847827  0  1.94557  0  0  -0.79123  0  2.162401  0  0  -0.812618  0  2.129136  0  0  -0.586115  -0.775828  0  2.185839  0
