# generated using pymatgen
data_CdH8C6(N5O2)2
_symmetry_space_group_name_H-M   'P 1'
_cell_length_a   8.67162783
_cell_length_b   8.67162564
_cell_length_c   8.86892519
_cell_angle_alpha   76.93950714
_cell_angle_beta   76.93962005
_cell_angle_gamma   76.09673359
_symmetry_Int_Tables_number   1
_chemical_formula_structural   CdH8C6(N5O2)2
_chemical_formula_sum   'Cd2 H16 C12 N20 O8'
_cell_volume   620.15154091
_cell_formula_units_Z   2
loop_
 _symmetry_equiv_pos_site_id
 _symmetry_equiv_pos_as_xyz
  1  'x, y, z'
loop_
 _atom_site_type_symbol
 _atom_site_label
 _atom_site_symmetry_multiplicity
 _atom_site_fract_x
 _atom_site_fract_y
 _atom_site_fract_z
 _atom_site_occupancy
 _atom_site_hle17_bader_spin_density
 _atom_site_hle17_ddec_charge
 _atom_site_hle17_ddec_spin_density
 _atom_site_hle17_ddec_sum_bond_order
 _atom_site_hle17_magmom
 _atom_site_hse06_10hf_bader_spin_density
 _atom_site_hse06_10hf_ddec_charge
 _atom_site_hse06_10hf_ddec_spin_density
 _atom_site_hse06_10hf_ddec_sum_bond_order
 _atom_site_hse06_10hf_magmom
 _atom_site_hse06_bader_spin_density
 _atom_site_hse06_ddec_charge
 _atom_site_hse06_ddec_spin_density
 _atom_site_hse06_ddec_sum_bond_order
 _atom_site_hse06_magmom
 _atom_site_pbe_bader_spin_density
 _atom_site_pbe_cm5_charge
 _atom_site_pbe_ddec_charge
 _atom_site_pbe_ddec_spin_density
 _atom_site_pbe_ddec_sum_bond_order
 _atom_site_pbe_magmom
Cd  Cd0  1  0.69975619  0.30024422  0.75000093  1  0  1.128793  0  1.635592  0  0  0.92636  0  2.084937  0  0  0.982735  0  2.035381  0  0  0.804879  0.886232  0  2.118983  0
Cd  Cd1  1  0.30024521  0.69975498  0.25000010  1  0  1.128788  0  1.635567  0  0  0.926367  0  2.084923  0  0  0.982742  0  2.03537  0  0  0.804878  0.886235  0  2.118969  0
H  H2  1  0.02699101  0.70029519  0.57878404  1  0  0.356193  0  0.909949  0  0  0.335025  0  0.976274  0  0  0.343242  0  0.969041  0  0  0.30381  0.329209  0  0.9814  0
H  H3  1  0.29970583  0.97300784  0.92121479  1  0  0.356202  0  0.909914  0  0  0.335025  0  0.976255  0  0  0.343241  0  0.969021  0  0  0.303796  0.329209  0  0.981381  0
H  H4  1  0.97300779  0.29970523  0.42121502  1  0  0.356195  0  0.909913  0  0  0.335016  0  0.976253  0  0  0.343233  0  0.969022  0  0  0.3038  0.3292  0  0.981381  0
H  H5  1  0.70029415  0.02699258  0.07878516  1  0  0.356206  0  0.909908  0  0  0.335028  0  0.976248  0  0  0.343244  0  0.969014  0  0  0.3038  0.329212  0  0.981372  0
H  H6  1  0.98726174  0.51101085  0.68662219  1  0  0.358438  0  0.907195  0  0  0.337525  0  0.973162  0  0  0.345559  0  0.966188  0  0  0.305773  0.331862  0  0.978054  0
H  H7  1  0.48898893  0.01273817  0.81337660  1  0  0.358448  0  0.907163  0  0  0.337532  0  0.973126  0  0  0.345565  0  0.966153  0  0  0.305798  0.331869  0  0.978018  0
H  H8  1  0.01273849  0.48898836  0.31337683  1  0  0.358428  0  0.907201  0  0  0.337507  0  0.973173  0  0  0.345541  0  0.966199  0  0  0.305775  0.331844  0  0.978065  0
H  H9  1  0.51101106  0.98726226  0.18662222  1  0  0.358443  0  0.907187  0  0  0.337523  0  0.97316  0  0  0.345556  0  0.966187  0  0  0.305773  0.331858  0  0.978054  0
H  H10  1  0.71620012  0.01743006  0.36242577  1  0  0.132821  0  0.917465  0  0  0.142567  0  0.982657  0  0  0.145343  0  0.980439  0  0  0.132283  0.140525  0  0.984393  0
H  H11  1  0.98257176  0.28379743  0.13757902  1  0  0.132798  0  0.917476  0  0  0.142557  0  0.982667  0  0  0.145332  0  0.980449  0  0  0.132287  0.140526  0  0.984392  0
H  H12  1  0.28379865  0.98257033  0.63757895  1  0  0.132817  0  0.917451  0  0  0.142586  0  0.982649  0  0  0.145362  0  0.98043  0  0  0.132294  0.140541  0  0.984369  0
H  H13  1  0.01742988  0.71620057  0.86242108  1  0  0.132823  0  0.917444  0  0  0.142592  0  0.982636  0  0  0.145371  0  0.980417  0  0  0.132307  0.14056  0  0.984352  0
H  H14  1  0.91231860  0.91867727  0.39830868  1  0  0.121605  0  0.931164  0  0  0.132268  0  0.993962  0  0  0.134854  0  0.992542  0  0  0.121119  0.130415  0  0.99508  0
H  H15  1  0.08132493  0.08768103  0.10169043  1  0  0.1216  0  0.931132  0  0  0.132253  0  0.993956  0  0  0.134838  0  0.992537  0  0  0.121114  0.130399  0  0.995074  0
H  H16  1  0.08768280  0.08132194  0.60169121  1  0  0.12162  0  0.931138  0  0  0.132284  0  0.993966  0  0  0.134869  0  0.992546  0  0  0.121119  0.130416  0  0.995077  0
H  H17  1  0.91867648  0.91231817  0.89830947  1  0  0.121613  0  0.931115  0  0  0.132265  0  0.993952  0  0  0.134852  0  0.992531  0  0  0.121124  0.130404  0  0.995067  0
C  C18  1  0.79933986  0.65811421  0.59483044  1  0  0.559476  0  3.819655  0  0  0.496601  0  4.105202  0  0  0.522889  0  4.112711  0  0  0.354127  0.478967  0  4.099721  0
C  C19  1  0.34188508  0.20065871  0.90517070  1  0  0.559576  0  3.819494  0  0  0.496681  0  4.105065  0  0  0.522966  0  4.112578  0  0  0.354136  0.479047  0  4.099585  0
C  C20  1  0.20065942  0.34188379  0.40517018  1  0  0.559493  0  3.819649  0  0  0.496586  0  4.105227  0  0  0.52285  0  4.112767  0  0  0.354105  0.47895  0  4.099749  0
C  C21  1  0.65811515  0.79934050  0.09482946  1  0  0.559627  0  3.819456  0  0  0.496649  0  4.105132  0  0  0.522915  0  4.112671  0  0  0.354123  0.479013  0  4.099651  0
C  C22  1  0.78475867  0.94717237  0.45373319  1  0  -0.160085  0  3.64303  0  0  -0.221295  0  3.893865  0  0  -0.222007  0  3.899537  0  0  -0.048144  -0.220872  0  3.890299  0
C  C23  1  0.05282702  0.21524253  0.04626831  1  0  -0.160028  0  3.643079  0  0  -0.221276  0  3.893848  0  0  -0.221982  0  3.899518  0  0  -0.048163  -0.220856  0  3.890268  0
C  C24  1  0.21524297  0.05282562  0.54626918  1  0  -0.160113  0  3.643052  0  0  -0.221406  0  3.893903  0  0  -0.222114  0  3.899573  0  0  -0.048189  -0.220913  0  3.89024  0
C  C25  1  0.94717440  0.78475668  0.95373046  1  0  -0.160037  0  3.643017  0  0  -0.221286  0  3.893788  0  0  -0.221998  0  3.899458  0  0  -0.048164  -0.220835  0  3.890163  0
C  C26  1  0.76470791  0.04991982  0.57814216  1  0  0.676665  0  3.888931  0  0  0.621826  0  4.200149  0  0  0.654682  0  4.194026  0  0  0.203389  0.599535  0  4.203533  0
C  C27  1  0.95008120  0.23529186  0.92185887  1  0  0.676655  0  3.889146  0  0  0.621942  0  4.200168  0  0  0.654796  0  4.194043  0  0  0.203423  0.599648  0  4.203559  0
C  C28  1  0.23529348  0.95007937  0.42186000  1  0  0.676677  0  3.889078  0  0  0.621952  0  4.200155  0  0  0.654807  0  4.19403  0  0  0.203434  0.599639  0  4.203541  0
C  C29  1  0.04992021  0.76470735  0.07813990  1  0  0.676634  0  3.889091  0  0  0.621901  0  4.200164  0  0  0.654759  0  4.194037  0  0  0.203422  0.599597  0  4.203549  0
N  N30  1  0.72644522  0.79897186  0.51449813  1  0  -0.066528  0  3.493201  0  0  0.016837  0  3.726603  0  0  0.001989  0  3.747153  0  0  -0.139354  0.026535  0  3.712818  0
N  N31  1  0.20102857  0.27355417  0.98550351  1  0  -0.066583  0  3.493149  0  0  0.016789  0  3.726558  0  0  0.001942  0  3.747109  0  0  -0.13934  0.026484  0  3.712777  0
N  N32  1  0.27355499  0.20102734  0.48550315  1  0  -0.066522  0  3.493159  0  0  0.016874  0  3.72658  0  0  0.002033  0  3.747137  0  0  -0.139303  0.02655  0  3.712785  0
N  N33  1  0.79897165  0.72644504  0.01449664  1  0  -0.066607  0  3.493125  0  0  0.016797  0  3.726571  0  0  0.001957  0  3.747126  0  0  -0.139329  0.026482  0  3.712782  0
N  N34  1  0.57321655  0.78676093  0.50791855  1  0  -0.095058  0  2.886636  0  0  -0.100976  0  3.188936  0  0  -0.099682  0  3.197626  0  0  -0.07584  -0.10182  0  3.1832  0
N  N35  1  0.21324078  0.42678305  0.99208265  1  0  -0.095149  0  2.8867  0  0  -0.101079  0  3.189014  0  0  -0.099786  0  3.197704  0  0  -0.075894  -0.101919  0  3.183275  0
N  N36  1  0.42678342  0.21323948  0.49208253  1  0  -0.095035  0  2.886602  0  0  -0.100958  0  3.188897  0  0  -0.099665  0  3.197587  0  0  -0.075847  -0.101802  0  3.183166  0
N  N37  1  0.78676062  0.57321616  0.00791725  1  0  -0.095054  0  2.886607  0  0  -0.100975  0  3.188898  0  0  -0.099681  0  3.197585  0  0  -0.075862  -0.101818  0  3.183161  0
N  N38  1  0.55502296  0.64415032  0.57890705  1  0  -0.024778  0  2.978767  0  0  -0.03552  0  3.289427  0  0  -0.02848  0  3.297626  0  0  -0.080897  -0.039949  0  3.283761  0
N  N39  1  0.35585009  0.44497623  0.92109237  1  0  -0.024659  0  2.978801  0  0  -0.035389  0  3.289448  0  0  -0.028347  0  3.297645  0  0  -0.080856  -0.039818  0  3.28378  0
N  N40  1  0.44497702  0.35585009  0.42109290  1  0  -0.024797  0  2.978751  0  0  -0.035522  0  3.289413  0  0  -0.028479  0  3.29761  0  0  -0.080902  -0.039951  0  3.283746  0
N  N41  1  0.64415014  0.55502299  0.07890665  1  0  -0.024781  0  2.978735  0  0  -0.035508  0  3.289393  0  0  -0.028464  0  3.297587  0  0  -0.080884  -0.039937  0  3.283723  0
N  N42  1  0.69159319  0.55983257  0.63432777  1  0  -0.436714  0  3.111593  0  0  -0.365212  0  3.415152  0  0  -0.391049  0  3.426304  0  0  -0.258848  -0.347715  0  3.407175  0
N  N43  1  0.44016642  0.30840687  0.86567084  1  0  -0.436736  0  3.111579  0  0  -0.365245  0  3.415163  0  0  -0.391082  0  3.426314  0  0  -0.25882  -0.347748  0  3.407186  0
N  N44  1  0.30840728  0.44016544  0.36567146  1  0  -0.436727  0  3.11155  0  0  -0.365253  0  3.415156  0  0  -0.391084  0  3.426316  0  0  -0.258874  -0.347755  0  3.407178  0
N  N45  1  0.55983356  0.69159355  0.13432910  1  0  -0.436747  0  3.111537  0  0  -0.36525  0  3.415165  0  0  -0.391082  0  3.426324  0  0  -0.258869  -0.347752  0  3.407185  0
N  N46  1  0.94679985  0.62574954  0.62990003  1  0  -0.690139  0  3.084047  0  0  -0.654627  0  3.330536  0  0  -0.675478  0  3.32384  0  0  -0.57223  -0.640124  0  3.334892  0
N  N47  1  0.37425167  0.05319966  0.87009840  1  0  -0.690222  0  3.083899  0  0  -0.654673  0  3.33037  0  0  -0.675522  0  3.323676  0  0  -0.572272  -0.64017  0  3.334726  0
N  N48  1  0.05320014  0.37425088  0.37009879  1  0  -0.690137  0  3.084019  0  0  -0.65457  0  3.330494  0  0  -0.675415  0  3.323811  0  0  -0.572208  -0.640066  0  3.334848  0
N  N49  1  0.62574974  0.94679955  0.12990150  1  0  -0.690214  0  3.083886  0  0  -0.654625  0  3.330382  0  0  -0.675468  0  3.323696  0  0  -0.572215  -0.640121  0  3.334734  0
O  O50  1  0.81538908  0.18284030  0.52914916  1  0  -0.657281  0  2.005118  0  0  -0.584316  0  2.250086  0  0  -0.613832  0  2.239284  0  0  -0.328682  -0.563629  0  2.256682  0
O  O51  1  0.81716200  0.18460931  0.97085181  1  0  -0.657292  0  2.005213  0  0  -0.584349  0  2.250079  0  0  -0.613881  0  2.239313  0  0  -0.328682  -0.563662  0  2.256678  0
O  O52  1  0.18460947  0.81716132  0.47085196  1  0  -0.657274  0  2.005202  0  0  -0.584326  0  2.250076  0  0  -0.613854  0  2.239302  0  0  -0.328671  -0.56364  0  2.256683  0
O  O53  1  0.18283917  0.81539111  0.02914788  1  0  -0.657298  0  2.005191  0  0  -0.584355  0  2.250078  0  0  -0.613883  0  2.239302  0  0  -0.328694  -0.563669  0  2.25668  0
O  O54  1  0.70077986  0.00456369  0.71875436  1  0  -0.638999  0  1.986951  0  0  -0.583891  0  2.228087  0  0  -0.609397  0  2.219559  0  0  -0.318938  -0.566064  0  2.23334  0
O  O55  1  0.99543878  0.29921742  0.78124688  1  0  -0.639018  0  1.987065  0  0  -0.583958  0  2.228131  0  0  -0.609464  0  2.219602  0  0  -0.318971  -0.566132  0  2.233386  0
O  O56  1  0.29921868  0.99543792  0.28124790  1  0  -0.63902  0  1.98702  0  0  -0.583948  0  2.228098  0  0  -0.609452  0  2.219568  0  0  -0.318972  -0.566121  0  2.233361  0
O  O57  1  0.00456144  0.70078179  0.21875328  1  0  -0.639001  0  1.987016  0  0  -0.583929  0  2.228088  0  0  -0.609435  0  2.219557  0  0  -0.318973  -0.566103  0  2.233346  0
