# generated using pymatgen
data_CdH18C26N2(ClO2)2
_symmetry_space_group_name_H-M   'P 1'
_cell_length_a   10.10278068
_cell_length_b   10.64066123
_cell_length_c   11.84700000
_cell_angle_alpha   88.76077607
_cell_angle_beta   70.07017742
_cell_angle_gamma   83.22471996
_symmetry_Int_Tables_number   1
_chemical_formula_structural   CdH18C26N2(ClO2)2
_chemical_formula_sum   'Cd2 H36 C52 N4 Cl4 O8'
_cell_volume   1188.68655658
_cell_formula_units_Z   2
loop_
 _symmetry_equiv_pos_site_id
 _symmetry_equiv_pos_as_xyz
  1  'x, y, z'
loop_
 _atom_site_type_symbol
 _atom_site_label
 _atom_site_symmetry_multiplicity
 _atom_site_fract_x
 _atom_site_fract_y
 _atom_site_fract_z
 _atom_site_occupancy
 _atom_site_hle17_bader_spin_density
 _atom_site_hle17_ddec_charge
 _atom_site_hle17_ddec_spin_density
 _atom_site_hle17_ddec_sum_bond_order
 _atom_site_hle17_magmom
 _atom_site_hse06_10hf_bader_spin_density
 _atom_site_hse06_10hf_ddec_charge
 _atom_site_hse06_10hf_ddec_spin_density
 _atom_site_hse06_10hf_ddec_sum_bond_order
 _atom_site_hse06_10hf_magmom
 _atom_site_hse06_bader_spin_density
 _atom_site_hse06_ddec_charge
 _atom_site_hse06_ddec_spin_density
 _atom_site_hse06_ddec_sum_bond_order
 _atom_site_hse06_magmom
 _atom_site_pbe_bader_charge
 _atom_site_pbe_bader_spin_density
 _atom_site_pbe_cm5_charge
 _atom_site_pbe_ddec_charge
 _atom_site_pbe_ddec_spin_density
 _atom_site_pbe_ddec_sum_bond_order
 _atom_site_pbe_magmom
Cd  Cd0  1  0.09736271  0.60755145  0.08157994  1  0  1.124581  0  1.684813  0  0  0.933796  0  2.133084  0  0  0.993289  0  2.080226  0  1.283166  0  0.774096  0.891416  0  2.169207  0
Cd  Cd1  1  0.90263710  0.39244783  0.91841946  1  0  1.124613  0  1.684878  0  0  0.933835  0  2.133154  0  0  0.99333  0  2.080291  0  1.283145  0  0.774103  0.891456  0  2.16928  0
H  H2  1  0.77344374  0.70798728  0.21023114  1  0  0.080435  0  0.940179  0  0  0.087214  0  1.007945  0  0  0.089449  0  1.00585  0  0.114741  0  0.113733  0.085498  0  1.009557  0
H  H3  1  0.22655755  0.29201673  0.78976857  1  0  0.080439  0  0.940205  0  0  0.087228  0  1.007947  0  0  0.089463  0  1.00585  0  0.114694  0  0.113766  0.085511  0  1.00956  0
H  H4  1  0.58136203  0.85985692  0.18443031  1  0  0.097165  0  0.972265  0  0  0.105178  0  1.039417  0  0  0.108111  0  1.038664  0  0.098527  0  0.099631  0.102984  0  1.040206  0
H  H5  1  0.41864057  0.14014520  0.81556906  1  0  0.097208  0  0.972244  0  0  0.105206  0  1.039418  0  0  0.10814  0  1.038665  0  0.098484  0  0.099642  0.103022  0  1.040197  0
H  H6  1  0.89423195  0.00335755  0.87591199  1  0  0.116438  0  0.956004  0  0  0.122137  0  1.024256  0  0  0.125454  0  1.023546  0  0.106589  0  0.104871  0.1197  0  1.025163  0
H  H7  1  0.10577250  0.99664647  0.12408765  1  0  0.116419  0  0.956  0  0  0.122156  0  1.024202  0  0  0.125475  0  1.023491  0  0.106642  0  0.104854  0.119719  0  1.02511  0
H  H8  1  0.07556162  0.84216141  0.91503884  1  0  0.080395  0  0.948678  0  0  0.086821  0  1.015839  0  0  0.089221  0  1.013953  0  0.094228  0  0.112558  0.085086  0  1.017223  0
H  H9  1  0.92444308  0.15784072  0.08495992  1  0  0.080337  0  0.948645  0  0  0.086756  0  1.015834  0  0  0.089156  0  1.013949  0  0.094297  0  0.112523  0.085022  0  1.017217  0
H  H10  1  0.65843290  0.09699877  0.93060581  1  0  0.095256  0  0.970536  0  0  0.106071  0  1.031421  0  0  0.108903  0  1.029236  0  0.099076  0  0.105548  0.104115  0  1.032928  0
H  H11  1  0.34157050  0.90300525  0.06939244  1  0  0.095146  0  0.970549  0  0  0.105962  0  1.031463  0  0  0.10879  0  1.029289  0  0.099188  0  0.105525  0.104005  0  1.032969  0
H  H12  1  0.45330202  0.02107105  0.17053381  1  0  0.065286  0  0.950303  0  0  0.080525  0  1.007543  0  0  0.081472  0  1.007369  0  0.05097  0  0.100611  0.079801  0  1.007874  0
H  H13  1  0.54670268  0.97893107  0.82946411  1  0  0.065255  0  0.950306  0  0  0.080462  0  1.007589  0  0  0.081407  0  1.007415  0  0.051011  0  0.100578  0.079737  0  1.007923  0
H  H14  1  0.23876965  0.16991350  0.26628868  1  0  0.10214  0  0.964712  0  0  0.113989  0  1.026379  0  0  0.116194  0  1.027178  0  0.076188  0  0.104796  0.112469  0  1.025863  0
H  H15  1  0.76123214  0.83008673  0.73371265  1  0  0.102133  0  0.964712  0  0  0.113978  0  1.026378  0  0  0.116184  0  1.027175  0  0.07617  0  0.104789  0.112459  0  1.025861  0
H  H16  1  0.10613264  0.38429771  0.26686269  1  0  0.083351  0  0.931717  0  0  0.093916  0  0.993758  0  0  0.095801  0  0.992155  0  0.099591  0  0.119284  0.09251  0  0.994894  0
H  H17  1  0.89387021  0.61570252  0.73313917  1  0  0.08334  0  0.931699  0  0  0.093875  0  0.993775  0  0  0.095761  0  0.992172  0  0.100002  0  0.11927  0.092469  0  0.994913  0
H  H18  1  0.40784552  0.47750350  0.95124230  1  0  0.076462  0  0.966349  0  0  0.083121  0  1.0351  0  0  0.085232  0  1.033592  0  0.119989  0  0.109836  0.081453  0  1.036407  0
H  H19  1  0.59215379  0.52249957  0.04875800  1  0  0.076472  0  0.966384  0  0  0.083137  0  1.035129  0  0  0.08525  0  1.033618  0  0.119997  0  0.109856  0.081467  0  1.036442  0
H  H20  1  0.55925896  0.27232676  0.94016186  1  0  0.121614  0  0.969663  0  0  0.128211  0  1.035137  0  0  0.131792  0  1.033753  0  0.141924  0  0.106336  0.125584  0  1.036488  0
H  H21  1  0.44074141  0.72767631  0.05983898  1  0  0.121608  0  0.969566  0  0  0.128186  0  1.035066  0  0  0.131767  0  1.033679  0  0.141929  0  0.106308  0.125557  0  1.036415  0
H  H22  1  0.40122544  0.72771796  0.69952350  1  0  0.09978  0  0.9447  0  0  0.107348  0  1.008124  0  0  0.111414  0  1.004864  0  0.084065  0  0.099763  0.104489  0  1.010444  0
H  H23  1  0.59876700  0.27228132  0.30048225  1  0  0.099794  0  0.944705  0  0  0.107386  0  1.008096  0  0  0.111454  0  1.004835  0  0.084154  0  0.09977  0.104527  0  1.010416  0
H  H24  1  0.51121436  0.74146905  0.47536752  1  0  0.103623  0  0.937346  0  0  0.115395  0  0.992925  0  0  0.118837  0  0.991374  0  0.084566  0  0.101275  0.113004  0  0.993985  0
H  H25  1  0.48878130  0.25853781  0.52463800  1  0  0.10365  0  0.937474  0  0  0.115418  0  0.993046  0  0  0.11886  0  0.991495  0  0.084748  0  0.101286  0.113028  0  0.994108  0
H  H26  1  0.24210969  0.47490323  0.43187258  1  0  0.106284  0  0.939078  0  0  0.117476  0  0.996257  0  0  0.120805  0  0.99489  0  0.092538  0  0.102885  0.11515  0  0.997163  0
H  H27  1  0.75789817  0.52509890  0.56812104  1  0  0.10628  0  0.939098  0  0  0.117478  0  0.996257  0  0  0.120805  0  0.994893  0  0.092643  0  0.102891  0.115136  0  0.997179  0
H  H28  1  0.13321769  0.46167276  0.65399958  1  0  0.115108  0  0.983911  0  0  0.122189  0  1.051256  0  0  0.126284  0  1.047407  0  0.151071  0  0.10182  0.119287  0  1.053875  0
H  H29  1  0.86678498  0.53832084  0.34599234  1  0  0.115037  0  0.983896  0  0  0.122224  0  1.05114  0  0  0.126323  0  1.047283  0  0.150636  0  0.101827  0.119321  0  1.053761  0
H  H30  1  0.97610829  0.72060530  0.51002143  1  0  0.099848  0  0.936544  0  0  0.11206  0  0.99259  0  0  0.115448  0  0.990153  0  0.083629  0  0.105282  0.109685  0  0.994199  0
H  H31  1  0.02388440  0.27939209  0.48997923  1  0  0.099825  0  0.936625  0  0  0.112021  0  0.992692  0  0  0.115407  0  0.990259  0  0.083897  0  0.105266  0.109647  0  0.994299  0
H  H32  1  0.00892050  0.83259140  0.68234836  1  0  0.099103  0  0.959812  0  0  0.108034  0  1.025456  0  0  0.110665  0  1.025216  0  0.056152  0  0.099676  0.106159  0  1.025715  0
H  H33  1  0.99107405  0.16740788  0.31765257  1  0  0.098971  0  0.959708  0  0  0.107897  0  1.025396  0  0  0.110539  0  1.025125  0  0.056094  0  0.099651  0.106009  0  1.025669  0
H  H34  1  0.32563999  0.03319684  0.43095943  1  0  0.101919  0  0.941172  0  0  0.114121  0  0.996796  0  0  0.117798  0  0.994749  0  0.073905  0  0.100728  0.111614  0  0.998058  0
H  H35  1  0.67435598  0.96679960  0.56904451  1  0  0.102052  0  0.941149  0  0  0.114176  0  0.996859  0  0  0.117853  0  0.994812  0  0.074131  0  0.100756  0.111669  0  0.998122  0
H  H36  1  0.29112176  0.91924396  0.26083877  1  0  0.083829  0  0.993453  0  0  0.090377  0  1.065927  0  0  0.093568  0  1.063173  0  0.084085  0  0.096629  0.088092  0  1.067896  0
H  H37  1  0.70887410  0.08075343  0.73916519  1  0  0.083805  0  0.9934  0  0  0.090347  0  1.065881  0  0  0.093538  0  1.063128  0  0.084051  0  0.096599  0.08806  0  1.067854  0
C  C38  1  0.79593126  0.77553391  0.13747476  1  0  0.13501  0  3.730037  0  0  0.103337  0  3.985409  0  0  0.1113  0  4.003627  0  0.449284  0  0.041003  0.098111  0  3.972893  0
C  C39  1  0.20407134  0.22446821  0.86252377  1  0  0.135022  0  3.730075  0  0  0.103355  0  3.985437  0  0  0.11132  0  4.003654  0  0.449782  0  0.040984  0.098129  0  3.972925  0
C  C40  1  0.68909021  0.86161947  0.12207767  1  0  -0.184126  0  3.744833  0  0  -0.201719  0  3.995291  0  0  -0.210136  0  4.017376  0  -0.03684  0  -0.094386  -0.195946  0  3.980569  0
C  C41  1  0.31091214  0.13838455  0.87792089  1  0  -0.184158  0  3.74498  0  0  -0.201758  0  3.995414  0  0  -0.210176  0  4.017498  0  -0.038647  0  -0.094383  -0.195994  0  3.980688  0
C  C42  1  0.72109458  0.94316235  0.02440660  1  0  0.138208  0  3.714261  0  0  0.150404  0  3.946553  0  0  0.155621  0  3.968997  0  -0.071548  0  0.010893  0.146657  0  3.931791  0
C  C43  1  0.27890895  0.05684072  0.97559080  1  0  0.138311  0  3.713996  0  0  0.150576  0  3.946202  0  0  0.155795  0  3.968647  0  -0.069463  0  0.010981  0.146828  0  3.931443  0
C  C44  1  0.86348026  0.93864807  0.95055262  1  0  -0.171278  0  3.704853  0  0  -0.188853  0  3.956965  0  0  -0.197213  0  3.978621  0  0.018612  0  -0.086897  -0.184171  0  3.943355  0
C  C45  1  0.13652116  0.06135500  0.04944624  1  0  -0.171464  0  3.704691  0  0  -0.189074  0  3.95679  0  0  -0.197439  0  3.978449  0  0.018617  0  -0.086974  -0.184392  0  3.943182  0
C  C46  1  0.96431054  0.85014114  0.97209443  1  0  0.12966  0  3.720425  0  0  0.098657  0  3.973017  0  0  0.106052  0  3.992327  0  0.457782  0  0.043237  0.093997  0  3.959873  0
C  C47  1  0.03569324  0.14986003  0.02790461  1  0  0.129812  0  3.720464  0  0  0.0988  0  3.973056  0  0  0.106196  0  3.992366  0  0.457774  0  0.043313  0.094139  0  3.959913  0
C  C48  1  0.61022009  0.01988403  0.98677932  1  0  -0.072327  0  3.511285  0  0  -0.083515  0  3.73825  0  0  -0.085423  0  3.751421  0  0.012117  0  -0.073126  -0.082008  0  3.728914  0
C  C49  1  0.38978542  0.98011999  0.01321917  1  0  -0.072097  0  3.511144  0  0  -0.083354  0  3.738204  0  0  -0.085263  0  3.751378  0  0.011619  0  -0.073094  -0.081846  0  3.728866  0
C  C50  1  0.46446224  0.06174878  0.08237700  1  0  -0.05358  0  3.518768  0  0  -0.0651  0  3.750079  0  0  -0.06656  0  3.764053  0  -0.002662  0  -0.069069  -0.063926  0  3.740211  0
C  C51  1  0.53553918  0.93825429  0.91762269  1  0  -0.053468  0  3.518799  0  0  -0.064953  0  3.750091  0  0  -0.066412  0  3.76407  0  -0.002711  0  -0.068998  -0.063782  0  3.740226  0
C  C52  1  0.40702273  0.19908356  0.09889779  1  0  0.134492  0  3.706204  0  0  0.146655  0  3.938886  0  0  0.152164  0  3.960819  0  -0.019214  0  0.013435  0.143354  0  3.92361  0
C  C53  1  0.59297999  0.80091762  0.90110325  1  0  0.134396  0  3.70614  0  0  0.146537  0  3.938828  0  0  0.152041  0  3.960768  0  -0.019089  0  0.013381  0.143237  0  3.923548  0
C  C54  1  0.28161458  0.23604688  0.19516899  1  0  -0.179139  0  3.719049  0  0  -0.195172  0  3.963248  0  0  -0.203889  0  3.986078  0  -0.06071  0  -0.08806  -0.189383  0  3.947666  0
C  C55  1  0.71838908  0.76395525  0.80483092  1  0  -0.179022  0  3.718852  0  0  -0.195036  0  3.96304  0  0  -0.20375  0  3.985865  0  -0.060799  0  -0.087973  -0.189248  0  3.947462  0
C  C56  1  0.20663950  0.35438458  0.19602753  1  0  0.132564  0  3.72009  0  0  0.10128  0  3.973566  0  0  0.109056  0  3.99224  0  0.469757  0  0.046391  0.096214  0  3.960743  0
C  C57  1  0.79336217  0.64561659  0.80397381  1  0  0.132498  0  3.720111  0  0  0.101224  0  3.973592  0  0  0.108999  0  3.992265  0  0.469412  0  0.046333  0.096157  0  3.960769  0
C  C58  1  0.37615203  0.40675835  0.02030230  1  0  0.128893  0  3.712277  0  0  0.097947  0  3.965214  0  0  0.105504  0  3.983932  0  0.461048  0  0.044891  0.093081  0  3.952726  0
C  C59  1  0.62384753  0.59324282  0.97969882  1  0  0.128873  0  3.712266  0  0  0.097903  0  3.965214  0  0  0.105459  0  3.983929  0  0.461139  0  0.044849  0.093036  0  3.952726  0
C  C60  1  0.45864391  0.29087894  0.01391650  1  0  -0.153489  0  3.670054  0  0  -0.170499  0  3.916982  0  0  -0.178292  0  3.937294  0  0.010875  0  -0.082079  -0.165736  0  3.903658  0
C  C61  1  0.54135869  0.70912319  0.98608288  1  0  -0.153495  0  3.670049  0  0  -0.170462  0  3.916965  0  0  -0.178254  0  3.937279  0  0.010822  0  -0.082044  -0.165692  0  3.903636  0
C  C62  1  0.19829234  0.58820224  0.82463041  1  0  0.633316  0  3.936718  0  0  0.581806  0  4.232097  0  0  0.617031  0  4.22491  0  1.553355  0  0.191375  0.557766  0  4.236316  0
C  C63  1  0.80170271  0.41179325  0.17536875  1  0  0.633476  0  3.936821  0  0  0.581959  0  4.232203  0  0  0.617185  0  4.225012  0  1.553438  0  0.191365  0.557927  0  4.236425  0
C  C64  1  0.26053770  0.59506406  0.69073618  1  0  -0.080602  0  3.778551  0  0  -0.059888  0  4.017873  0  0  -0.068459  0  4.041033  0  -0.062877  0  -0.028344  -0.054228  0  4.0024  0
C  C65  1  0.73945933  0.40493238  0.30925986  1  0  -0.080597  0  3.778556  0  0  -0.059894  0  4.017917  0  0  -0.068466  0  4.041086  0  -0.0628  0  -0.028436  -0.054263  0  4.002481  0
C  C66  1  0.36711621  0.67340747  0.63970168  1  0  -0.052912  0  3.749079  0  0  -0.079717  0  4.005  0  0  -0.078074  0  4.023673  0  0.03647  0  -0.086009  -0.080806  0  3.99259  0
C  C67  1  0.63287951  0.32659086  0.36030229  1  0  -0.052963  0  3.748978  0  0  -0.079779  0  4.004891  0  0  -0.078138  0  4.023569  0  0.036198  0  -0.085974  -0.080859  0  3.992493  0
C  C68  1  0.42820774  0.68099532  0.51562230  1  0  -0.142282  0  3.774462  0  0  -0.161888  0  4.025934  0  0  -0.166834  0  4.048265  0  -0.012211  0  -0.098716  -0.15861  0  4.011002  0
C  C69  1  0.57178737  0.31900775  0.48438261  1  0  -0.142305  0  3.774601  0  0  -0.161894  0  4.026079  0  0  -0.166839  0  4.048406  0  -0.012311  0  -0.098721  -0.158618  0  4.011151  0
C  C70  1  0.38215971  0.60871291  0.44236245  1  0  0.150707  0  3.787698  0  0  0.161761  0  4.049086  0  0  0.166024  0  4.072185  0  -0.060707  0  0.018758  0.158821  0  4.033778  0
C  C71  1  0.61784301  0.39128826  0.55763690  1  0  0.150708  0  3.787786  0  0  0.161686  0  4.049274  0  0  0.165948  0  4.072375  0  -0.060744  0  0.018675  0.158746  0  4.033962  0
C  C72  1  0.27651838  0.52972961  0.49118625  1  0  -0.131689  0  3.750224  0  0  -0.150657  0  3.999386  0  0  -0.15519  0  4.020378  0  0.053824  0  -0.095548  -0.147624  0  3.984964  0
C  C73  1  0.72348354  0.47026968  0.50881000  1  0  -0.131638  0  3.750156  0  0  -0.150587  0  3.999355  0  0  -0.155118  0  4.020343  0  0.053694  0  -0.09552  -0.147542  0  3.98494  0
C  C74  1  0.21578312  0.52323317  0.61559247  1  0  -0.065191  0  3.715203  0  0  -0.08949  0  3.965178  0  0  -0.088668  0  3.984275  0  -0.089847  0  -0.087515  -0.08977  0  3.951879  0
C  C75  1  0.78421707  0.47676327  0.38440096  1  0  -0.065227  0  3.715119  0  0  -0.089608  0  3.965082  0  0  -0.088787  0  3.984179  0  -0.089325  0  -0.087538  -0.089877  0  3.951786  0
C  C76  1  0.11917680  0.74278575  0.27261038  1  0  0.619138  0  3.96827  0  0  0.566689  0  4.270371  0  0  0.601244  0  4.263822  0  1.549522  0  0.18231  0.543454  0  4.273688  0
C  C77  1  0.88082487  0.25721542  0.72738590  1  0  0.619258  0  3.968148  0  0  0.566811  0  4.270264  0  0  0.601366  0  4.26371  0  1.549335  0  0.182391  0.543584  0  4.27358  0
C  C78  1  0.13156859  0.81418783  0.37547058  1  0  -0.067717  0  3.762152  0  0  -0.047595  0  3.997633  0  0  -0.055772  0  4.020273  0  0.027575  0  -0.025678  -0.042667  0  3.983021  0
C  C79  1  0.86842485  0.18580388  0.62453419  1  0  -0.067666  0  3.762083  0  0  -0.047603  0  3.99763  0  0  -0.055782  0  4.020266  0  0.027728  0  -0.025672  -0.042701  0  3.98305  0
C  C80  1  0.05114656  0.79023726  0.49419708  1  0  -0.040913  0  3.722962  0  0  -0.062949  0  3.970086  0  0  -0.061743  0  3.990074  0  -0.052756  0  -0.077738  -0.063673  0  3.956756  0
C  C81  1  0.94885326  0.20976202  0.50580062  1  0  -0.040929  0  3.722796  0  0  -0.062936  0  3.96993  0  0  -0.061733  0  3.989925  0  -0.05284  0  -0.0777  -0.063652  0  3.956598  0
C  C82  1  0.06892025  0.85211289  0.58951178  1  0  -0.136887  0  3.753035  0  0  -0.157996  0  4.004964  0  0  -0.163002  0  4.02799  0  0.009715  0  -0.096878  -0.154754  0  3.989691  0
C  C83  1  0.93107108  0.14787883  0.41049360  1  0  -0.136755  0  3.753123  0  0  -0.157867  0  4.005042  0  0  -0.162869  0  4.028079  0  0.00982  0  -0.096913  -0.154611  0  3.98977  0
C  C84  1  0.16819602  0.93869161  0.56526917  1  0  0.149567  0  3.804131  0  0  0.162136  0  4.064031  0  0  0.166466  0  4.086585  0  -0.006237  0  0.014967  0.159217  0  4.048825  0
C  C85  1  0.83180863  0.06130294  0.43472891  1  0  0.149596  0  3.804037  0  0  0.162169  0  4.063908  0  0  0.166497  0  4.086464  0  -0.00624  0  0.014997  0.159252  0  4.048697  0
C  C86  1  0.24860859  0.96530210  0.44751848  1  0  -0.152589  0  3.787678  0  0  -0.174134  0  4.041165  0  0  -0.178914  0  4.061737  0  0.017059  0  -0.104307  -0.170771  0  4.026746  0
C  C87  1  0.75138851  0.03468583  0.55248952  1  0  -0.152738  0  3.787521  0  0  -0.174237  0  4.041026  0  0  -0.179016  0  4.0616  0  0.01686  0  -0.10435  -0.170867  0  4.026591  0
C  C88  1  0.22919095  0.90253479  0.35367390  1  0  -0.064786  0  3.770478  0  0  -0.092388  0  4.030559  0  0  -0.090802  0  4.04992  0  -0.047665  0  -0.0917  -0.093291  0  4.017486  0
C  C89  1  0.77081370  0.09745976  0.64632418  1  0  -0.064817  0  3.770674  0  0  -0.092355  0  4.030695  0  0  -0.090771  0  4.05006  0  -0.047867  0  -0.091678  -0.093249  0  4.017627  0
N  N90  1  0.93071363  0.76797162  0.06250025  1  0  -0.326487  0  3.262341  0  0  -0.248499  0  3.523516  0  0  -0.269406  0  3.5431  0  -1.198416  0  -0.332029  -0.23388  0  3.50965  0
N  N91  1  0.06928804  0.23202956  0.93749941  1  0  -0.326544  0  3.262383  0  0  -0.248564  0  3.523569  0  0  -0.269469  0  3.543149  0  -1.198861  0  -0.332088  -0.233944  0  3.509706  0
N  N92  1  0.25023874  0.43687405  0.10704158  1  0  -0.329721  0  3.254916  0  0  -0.25325  0  3.521807  0  0  -0.273841  0  3.540177  0  -1.25282  0  -0.331269  -0.239237  0  3.509023  0
N  N93  1  0.74976268  0.56312902  0.89295896  1  0  -0.329652  0  3.254891  0  0  -0.253163  0  3.521769  0  0  -0.273754  0  3.540139  0  -1.252855  0  -0.331205  -0.23915  0  3.508985  0
Cl  Cl94  1  0.45764410  0.61738745  0.28781500  1  0  -0.087581  0  1.387772  0  0  -0.066317  0  1.628014  0  0  -0.071714  0  1.626088  0  -0.219378  0  0.022992  -0.062285  0  1.629576  0
Cl  Cl95  1  0.54236462  0.38262414  0.71218662  1  0  -0.087576  0  1.387736  0  0  -0.066284  0  1.627998  0  0  -0.071677  0  1.626068  0  -0.219381  0  0.023033  -0.06225  0  1.629558  0
Cl  Cl96  1  0.19473220  0.01260950  0.68312183  1  0  -0.099325  0  1.37007  0  0  -0.078209  0  1.593873  0  0  -0.082656  0  1.591128  0  -0.225832  0  0.00829  -0.074754  0  1.595687  0
Cl  Cl97  1  0.80526247  0.98738884  0.31687908  1  0  -0.099336  0  1.370061  0  0  -0.078205  0  1.593851  0  0  -0.082655  0  1.591107  0  -0.225884  0  0.008299  -0.074753  0  1.595664  0
O  O98  1  0.25287669  0.64718793  0.88749802  1  0  -0.633359  0  1.948713  0  0  -0.573418  0  2.189729  0  0  -0.600812  0  2.178949  0  -1.157726  0  -0.334839  -0.554258  0  2.19641  0
O  O99  1  0.74711613  0.35280851  0.11250093  1  0  -0.633411  0  1.948754  0  0  -0.573484  0  2.189795  0  0  -0.600883  0  2.179014  0  -1.157867  0  -0.334787  -0.554322  0  2.196471  0
O  O100  1  0.09361684  0.52530431  0.87282049  1  0  -0.681026  0  2.040273  0  0  -0.612995  0  2.307828  0  0  -0.643349  0  2.296555  0  -1.198055  0  -0.339981  -0.591441  0  2.31479  0
O  O101  1  0.90638026  0.47468362  0.12717654  1  0  -0.6811  0  2.040335  0  0  -0.613032  0  2.307832  0  0  -0.643384  0  2.296555  0  -1.198044  0  -0.339957  -0.59148  0  2.314792  0
O  O102  1  0.03471212  0.65816267  0.29526311  1  0  -0.645866  0  1.956427  0  0  -0.589804  0  2.199125  0  0  -0.617686  0  2.189291  0  -1.164487  0  -0.337782  -0.570203  0  2.204804  0
O  O103  1  0.96528466  0.34183566  0.70473550  1  0  -0.64587  0  1.956576  0  0  -0.589806  0  2.199281  0  0  -0.617685  0  2.189441  0  -1.164471  0  -0.337771  -0.570207  0  2.204958  0
O  O104  1  0.19532541  0.76864370  0.16607072  1  0  -0.651342  0  1.978109  0  0  -0.59466  0  2.224565  0  0  -0.621827  0  2.214858  0  -1.182015  0  -0.335983  -0.575404  0  2.230421  0
O  O105  1  0.80467310  0.23135748  0.83392986  1  0  -0.651466  0  1.977925  0  0  -0.594755  0  2.224363  0  0  -0.621926  0  2.214656  0  -1.181944  0  -0.336051  -0.5755  0  2.230217  0
