# generated using pymatgen
data_CdH17C21(NO2)3
_symmetry_space_group_name_H-M   'P 1'
_cell_length_a   8.76640342
_cell_length_b   10.51522224
_cell_length_c   10.97805872
_cell_angle_alpha   89.99995882
_cell_angle_beta   89.99999517
_cell_angle_gamma   104.03429411
_symmetry_Int_Tables_number   1
_chemical_formula_structural   CdH17C21(NO2)3
_chemical_formula_sum   'Cd2 H34 C42 N6 O12'
_cell_volume   981.75852732
_cell_formula_units_Z   2
loop_
 _symmetry_equiv_pos_site_id
 _symmetry_equiv_pos_as_xyz
  1  'x, y, z'
loop_
 _atom_site_type_symbol
 _atom_site_label
 _atom_site_symmetry_multiplicity
 _atom_site_fract_x
 _atom_site_fract_y
 _atom_site_fract_z
 _atom_site_occupancy
 _atom_site_pbe_bader_spin_density
 _atom_site_pbe_cm5_charge
 _atom_site_pbe_ddec_charge
 _atom_site_pbe_ddec_spin_density
 _atom_site_pbe_ddec_sum_bond_order
 _atom_site_pbe_magmom
Cd  Cd0  1  0.75000052  0.25000000  0.44105419  1  0  0.754156  0.796442  0  2.190397  0
Cd  Cd1  1  0.24999856  0.75000019  0.55894555  1  0  0.754163  0.796441  0  2.190404  0
H  H2  1  0.04270063  0.48177457  0.39016262  1  0  0.125215  0.103561  0  0.999609  0
H  H3  1  0.45730029  0.01822444  0.39016277  1  0  0.125222  0.103562  0  0.999631  0
H  H4  1  0.95729987  0.51822661  0.60983712  1  0  0.125224  0.103542  0  0.999629  0
H  H5  1  0.54269964  0.98177478  0.60983788  1  0  0.125222  0.103559  0  0.999644  0
H  H6  1  0.14581317  0.66712726  0.24923782  1  0  0.113292  0.124222  0  1.011953  0
H  H7  1  0.35418804  0.83287141  0.24923776  1  0  0.113296  0.124238  0  1.011917  0
H  H8  1  0.85418818  0.33287293  0.75076192  1  0  0.11329  0.124233  0  1.011964  0
H  H9  1  0.64581274  0.16712682  0.75076289  1  0  0.113304  0.124241  0  1.011931  0
H  H10  1  0.99206402  0.69109902  0.06169916  1  0  0.111426  0.117887  0  1.02992  0
H  H11  1  0.50793825  0.80889987  0.06169914  1  0  0.111429  0.117873  0  1.029918  0
H  H12  1  0.00793819  0.30890019  0.93829967  1  0  0.111427  0.117879  0  1.029931  0
H  H13  1  0.49206311  0.19110033  0.93830060  1  0  0.111428  0.117909  0  1.029873  0
H  H14  1  0.64696391  0.34375636  0.17531501  1  0  0.118813  0.086963  0  1.000876  0
H  H15  1  0.85303693  0.15624288  0.17531507  1  0  0.118811  0.086967  0  1.000887  0
H  H16  1  0.35303744  0.65624383  0.82468382  1  0  0.118808  0.086958  0  1.000892  0
H  H17  1  0.14696386  0.84375536  0.82468558  1  0  0.118806  0.086961  0  1.000894  0
H  H18  1  0.70687735  0.53889194  0.74293533  1  0  0.109438  0.123984  0  1.047321  0
H  H19  1  0.79312155  0.96110737  0.74293609  1  0  0.109456  0.123999  0  1.047309  0
H  H20  1  0.29312058  0.46110825  0.25706441  1  0  0.109435  0.123959  0  1.047338  0
H  H21  1  0.20687867  0.03889282  0.25706547  1  0  0.109449  0.123987  0  1.047334  0
H  H22  1  0.75000061  0.74999970  0.62662781  1  0  0.112584  0.128141  0  1.007797  0
H  H23  1  0.24999989  0.25000147  0.37337284  1  0  0.112577  0.128134  0  1.0078  0
H  H24  1  0.10527405  0.15278290  0.72752475  1  0  0.097494  0.154537  0  1.003569  0
H  H25  1  0.39472447  0.34721582  0.72752467  1  0  0.097503  0.154548  0  1.003608  0
H  H26  1  0.89472388  0.84721729  0.27247499  1  0  0.097482  0.15452  0  1.00359  0
H  H27  1  0.60527404  0.65278241  0.27247507  1  0  0.097494  0.154537  0  1.003565  0
H  H28  1  0.20124965  0.12731503  0.58911777  1  0  0.096337  0.159287  0  1.009574  0
H  H29  1  0.29875063  0.37268576  0.58911677  1  0  0.096324  0.159237  0  1.009604  0
H  H30  1  0.79874828  0.87268516  0.41088197  1  0  0.096353  0.159273  0  1.009605  0
H  H31  1  0.70124930  0.62731345  0.41088206  1  0  0.09634  0.159268  0  1.009595  0
H  H32  1  0.04562418  0.00042079  0.65153231  1  0  0.09185  0.142975  0  1.026495  0
H  H33  1  0.45437437  0.49957800  0.65153304  1  0  0.091871  0.14299  0  1.026505  0
H  H34  1  0.95437233  0.99957842  0.34846834  1  0  0.091871  0.142985  0  1.026512  0
H  H35  1  0.54562442  0.50042121  0.34846852  1  0  0.091851  0.142973  0  1.026487  0
C  C36  1  0.97678777  0.49580535  0.30920838  1  0  0.061512  0.112598  0  3.894621  0
C  C37  1  0.52321302  0.00419379  0.30920857  1  0  0.061513  0.112593  0  3.894525  0
C  C38  1  0.02321273  0.50419583  0.69079045  1  0  0.061502  0.112631  0  3.894593  0
C  C39  1  0.47678662  0.99580445  0.69079117  1  0  0.061495  0.112589  0  3.894576  0
C  C40  1  0.03428204  0.59872217  0.22899656  1  0  -0.074143  -0.106964  0  3.928108  0
C  C41  1  0.46571918  0.90127652  0.22899644  1  0  -0.074145  -0.106968  0  3.928071  0
C  C42  1  0.96571903  0.40127704  0.77100317  1  0  -0.074125  -0.106954  0  3.92815  0
C  C43  1  0.53428075  0.09872269  0.77100420  1  0  -0.074149  -0.106961  0  3.928126  0
C  C44  1  0.94856322  0.61052857  0.12478411  1  0  -0.052153  -0.045227  0  3.897913  0
C  C45  1  0.55143817  0.88947125  0.12478494  1  0  -0.052164  -0.045223  0  3.897987  0
C  C46  1  0.05143785  0.38947064  0.87521380  1  0  -0.052155  -0.045221  0  3.898078  0
C  C47  1  0.44856433  0.11052895  0.87521388  1  0  -0.052165  -0.045254  0  3.897956  0
C  C48  1  0.80739219  0.51666512  0.10278664  1  0  -0.010165  -0.051794  0  3.970333  0
C  C49  1  0.69260693  0.98333472  0.10278557  1  0  -0.010193  -0.051826  0  3.970151  0
C  C50  1  0.19260689  0.48333507  0.89721310  1  0  -0.010197  -0.051824  0  3.970282  0
C  C51  1  0.30739300  0.01666449  0.89721508  1  0  -0.010188  -0.051815  0  3.970243  0
C  C52  1  0.75750651  0.41703101  0.18871990  1  0  0.062197  0.081646  0  3.918247  0
C  C53  1  0.74249517  0.08297116  0.18872093  1  0  0.062233  0.081665  0  3.918191  0
C  C54  1  0.24249541  0.58297114  0.81127893  1  0  0.062223  0.081664  0  3.918228  0
C  C55  1  0.25750618  0.91702903  0.81128063  1  0  0.062224  0.081631  0  3.918334  0
C  C56  1  0.71400436  0.51372597  0.98897884  1  0  0.171287  0.33881  0  3.974013  0
C  C57  1  0.78599930  0.98627804  0.98897685  1  0  0.171249  0.338716  0  3.97429  0
C  C58  1  0.28599785  0.48627716  0.01102181  1  0  0.171235  0.338709  0  3.974238  0
C  C59  1  0.21400234  0.01372313  0.01102379  1  0  0.17126  0.338766  0  3.974225  0
C  C60  1  0.73161940  0.63813717  0.91797717  1  0  0.107028  0.117437  0  4.007547  0
C  C61  1  0.76837915  0.86186102  0.91797801  1  0  0.107049  0.117516  0  4.007526  0
C  C62  1  0.26837939  0.36186204  0.08202165  1  0  0.107066  0.117512  0  4.007473  0
C  C63  1  0.23162106  0.13813918  0.08202264  1  0  0.107014  0.117407  0  4.007589  0
C  C64  1  0.72643153  0.63273881  0.79037720  1  0  -0.071162  -0.131258  0  3.895059  0
C  C65  1  0.77356849  0.86726046  0.79037803  1  0  -0.071168  -0.13128  0  3.895117  0
C  C66  1  0.27356754  0.36726138  0.20962345  1  0  -0.071167  -0.131243  0  3.895046  0
C  C67  1  0.22643172  0.13273973  0.20962444  1  0  -0.071195  -0.131268  0  3.89498  0
C  C68  1  0.75000059  0.74999966  0.72570270  1  0  -0.062286  -0.008768  0  3.906865  0
C  C69  1  0.24999991  0.25000151  0.27429704  1  0  -0.062243  -0.008745  0  3.906794  0
C  C70  1  0.96746713  0.15790665  0.56845196  1  0  0.192204  0.668677  0  4.14987  0
C  C71  1  0.53253300  0.34209423  0.56845283  1  0  0.192271  0.668841  0  4.149638  0
C  C72  1  0.03253108  0.84209452  0.43154868  1  0  0.192235  0.668732  0  4.149614  0
C  C73  1  0.46746721  0.65790596  0.43154782  1  0  0.192239  0.66877  0  4.149723  0
C  C74  1  0.08847487  0.10613334  0.63718912  1  0  -0.25204  -0.523379  0  3.877968  0
C  C75  1  0.41152482  0.39386546  0.63718992  1  0  -0.252055  -0.523386  0  3.877985  0
C  C76  1  0.91152277  0.89386587  0.36281062  1  0  -0.252057  -0.523374  0  3.87801  0
C  C77  1  0.58847483  0.60613277  0.36281073  1  0  -0.252039  -0.523364  0  3.87792  0
N  N78  1  0.83951580  0.40720725  0.28986529  1  0  -0.329284  -0.245869  0  3.520986  0
N  N79  1  0.66048414  0.09279288  0.28986449  1  0  -0.329293  -0.24586  0  3.520961  0
N  N80  1  0.16048441  0.59279294  0.71013445  1  0  -0.329294  -0.245874  0  3.521012  0
N  N81  1  0.33951579  0.90720634  0.71013616  1  0  -0.329297  -0.245875  0  3.521076  0
N  N82  1  0.75000026  0.74999858  0.98174433  1  0  -0.298124  -0.298404  0  3.326548  0
N  N83  1  0.25000024  0.24999867  0.01825632  1  0  -0.298121  -0.298382  0  3.32661  0
O  O84  1  0.62774756  0.41027227  0.95133379  1  0  -0.247347  -0.386487  0  2.129077  0
O  O85  1  0.87224788  0.08972045  0.95133480  1  0  -0.247282  -0.386372  0  2.129541  0
O  O86  1  0.37224866  0.58972204  0.04866413  1  0  -0.247285  -0.386385  0  2.129411  0
O  O87  1  0.12775148  0.91027680  0.04866585  1  0  -0.24729  -0.386385  0  2.129408  0
O  O88  1  0.82158579  0.10831746  0.58957230  1  0  -0.336754  -0.574805  0  2.164297  0
O  O89  1  0.67841433  0.39168340  0.58957311  1  0  -0.336785  -0.574869  0  2.164212  0
O  O90  1  0.17841271  0.89168469  0.41042835  1  0  -0.336783  -0.57481  0  2.164088  0
O  O91  1  0.32158588  0.60831680  0.41042662  1  0  -0.336793  -0.574867  0  2.164183  0
O  O92  1  0.01267703  0.25084394  0.49155130  1  0  -0.338235  -0.575546  0  2.155139  0
O  O93  1  0.48732328  0.24915694  0.49155129  1  0  -0.338271  -0.575635  0  2.155088  0
O  O94  1  0.98732205  0.74915625  0.50844844  1  0  -0.338249  -0.575589  0  2.155128  0
O  O95  1  0.51267579  0.75084325  0.50844845  1  0  -0.338234  -0.575575  0  2.15518  0
