# generated using pymatgen
data_CuMo4H30C42N6O13
_symmetry_space_group_name_H-M   'P 1'
_cell_length_a   8.14543844
_cell_length_b   9.30135371
_cell_length_c   13.85241626
_cell_angle_alpha   78.59304924
_cell_angle_beta   83.14399621
_cell_angle_gamma   77.56630988
_symmetry_Int_Tables_number   1
_chemical_formula_structural   CuMo4H30C42N6O13
_chemical_formula_sum   'Cu1 Mo4 H30 C42 N6 O13'
_cell_volume   1001.41128045
_cell_formula_units_Z   1
loop_
 _symmetry_equiv_pos_site_id
 _symmetry_equiv_pos_as_xyz
  1  'x, y, z'
loop_
 _atom_site_type_symbol
 _atom_site_label
 _atom_site_symmetry_multiplicity
 _atom_site_fract_x
 _atom_site_fract_y
 _atom_site_fract_z
 _atom_site_occupancy
 _atom_site_hle17_ddec_charge
 _atom_site_hle17_ddec_spin_density
 _atom_site_hle17_ddec_sum_bond_order
 _atom_site_hle17_magmom
 _atom_site_hse06_10hf_ddec_charge
 _atom_site_hse06_10hf_ddec_spin_density
 _atom_site_hse06_10hf_ddec_sum_bond_order
 _atom_site_hse06_10hf_magmom
 _atom_site_hse06_ddec_charge
 _atom_site_hse06_ddec_spin_density
 _atom_site_hse06_ddec_sum_bond_order
 _atom_site_hse06_magmom
 _atom_site_pbe_cm5_charge
 _atom_site_pbe_ddec_charge
 _atom_site_pbe_ddec_spin_density
 _atom_site_pbe_ddec_sum_bond_order
 _atom_site_pbe_magmom
Cu  Cu0  1  0.00000133  0.99999907  0.00000047  1  1.026077  0.714856  1.759184  0.532  1.02962  0.78926  2.136819  0.644  1.104073  0.856512  2.081043  0.731  0.765396  0.981087  0.736759  2.179026  0.582
Mo  Mo1  1  0.19985065  0.38503873  0.94789482  1  2.220779  -0.002752  4.094631  -0.002  2.229632  -0.001418  4.623583  -0.001  2.331281  -0.001392  4.588275  -0.001  1.552268  2.159227  -0.001003  4.650863  -0.001
Mo  Mo2  1  0.80015316  0.61495790  0.05210318  1  2.220609  -0.002741  4.094826  -0.002  2.229397  -0.00142  4.623869  -0.001  2.33105  -0.001388  4.588562  -0.001  1.55212  2.158964  -0.001003  4.651197  -0.001
Mo  Mo3  1  0.33591238  0.68275982  0.07345140  1  2.203738  -0.000164  4.143809  0.006  2.195639  0.010321  4.737218  0.017  2.303498  0.007191  4.691321  0.014  1.534482  2.118643  0.012806  4.772127  0.02
Mo  Mo4  1  0.66408967  0.31723905  0.92655004  1  2.203799  -0.000157  4.143736  0.006  2.195711  0.010323  4.737123  0.017  2.303563  0.007187  4.691234  0.014  1.534547  2.118713  0.012806  4.772023  0.02
H  H5  1  0.37936840  0.07387034  0.05240426  1  0.08966  -1.3e-05  0.937727  0.0  0.100563  -2.4e-05  0.996301  0.0  0.103357  -2.2e-05  0.993213  0.0  0.117225  0.098562  -2.2e-05  0.998506  0.0
H  H6  1  0.62063904  0.92613194  0.94759562  1  0.089684  -1.5e-05  0.937796  0.0  0.100602  -2.4e-05  0.996329  0.0  0.103396  -2.3e-05  0.993241  0.0  0.11724  0.098607  -2.2e-05  0.998533  0.0
H  H7  1  0.43176080  0.90052076  0.20836438  1  0.104456  -8e-06  0.964321  0.0  0.113331  4e-06  1.027478  0.0  0.116867  2e-06  1.025689  0.0  0.106986  0.111631  1e-06  1.027252  0.0
H  H8  1  0.56824489  0.09948374  0.79163532  1  0.104436  -7e-06  0.964303  0.0  0.113319  4e-06  1.027462  0.0  0.116854  2e-06  1.025675  0.0  0.107009  0.111622  1e-06  1.027229  0.0
H  H9  1  0.17670848  0.26053887  0.36082244  1  0.110212  -8e-06  0.976959  0.0  0.117804  -1e-06  1.044451  0.0  0.121451  -3e-06  1.043044  0.0  0.108012  0.115521  -1e-06  1.044937  0.0
H  H10  1  0.82328935  0.73946220  0.63917684  1  0.110253  -9e-06  0.976891  0.0  0.117847  -1e-06  1.044386  0.0  0.121498  -3e-06  1.042973  0.0  0.108022  0.115563  -1e-06  1.044876  0.0
H  H11  1  0.13089264  0.41910528  0.19611125  1  0.084432  -2e-06  0.954737  0.0  0.091683  -3e-06  1.022378  0.0  0.094575  -3e-06  1.018924  0.0  0.115069  0.089867  -4e-06  1.024235  0.0
H  H12  1  0.86910545  0.58089467  0.80388744  1  0.084454  -4e-06  0.954746  0.0  0.091699  -3e-06  1.022381  0.0  0.09459  -3e-06  1.018927  0.0  0.115071  0.089882  -4e-06  1.024235  0.0
H  H13  1  0.54524843  0.81548147  0.33002829  1  0.086504  2.7e-05  0.98611  0.0  0.099187  -4e-06  1.047291  0.0  0.101735  -3e-06  1.045826  0.0  0.102855  0.097523  -5e-06  1.047882  0.0
H  H14  1  0.45474940  0.18451960  0.66997099  1  0.086395  2.5e-05  0.986191  0.0  0.09912  -5e-06  1.047331  0.0  0.101674  -3e-06  1.045859  0.0  0.102831  0.097456  -5e-06  1.047919  0.0
H  H15  1  0.45661449  0.70084261  0.64419540  1  0.092849  8.6e-05  0.972173  0.0  0.104702  4.2e-05  1.034089  0.0  0.107255  2.9e-05  1.032831  0.0  0.104914  0.103017  5.2e-05  1.034643  0.0
H  H16  1  0.54338431  0.29915959  0.35580365  1  0.092879  8.7e-05  0.972127  0.0  0.104751  4.2e-05  1.034024  0.0  0.107317  2.9e-05  1.032749  0.0  0.104937  0.103067  5.2e-05  1.034578  0.0
H  H17  1  0.15030871  0.09117842  0.48546288  1  0.101691  2.6e-05  0.972873  0.0  0.1043  1.1e-05  1.051245  0.0  0.108603  4e-06  1.047557  0.0  0.102661  0.101578  1.8e-05  1.053196  0.0
H  H18  1  0.84968912  0.90882265  0.51453567  1  0.101742  2.5e-05  0.972825  0.0  0.104347  1.1e-05  1.051197  0.0  0.10865  4e-06  1.047508  0.0  0.102685  0.101627  1.8e-05  1.053147  0.0
H  H19  1  0.86405436  0.30731930  0.63866388  1  0.065228  -7e-06  0.958792  0.0  0.075486  -7e-06  1.022744  0.0  0.077602  -3e-06  1.021059  0.0  0.10395  0.073847  -8e-06  1.023937  0.0
H  H20  1  0.13594322  0.69268290  0.36133959  1  0.06518  -6e-06  0.95876  0.0  0.075406  -7e-06  1.022749  0.0  0.077545  -3e-06  1.02104  0.0  0.103942  0.073766  -8e-06  1.023941  0.0
H  H21  1  0.64009549  0.52294601  0.64653788  1  0.108751  4e-06  0.969454  0.0  0.121581  2.1e-05  1.026106  0.0  0.124885  1.3e-05  1.024507  0.0  0.102087  0.119154  2.7e-05  1.027345  0.0
H  H22  1  0.35990377  0.47705956  0.35346285  1  0.108638  3e-06  0.969598  0.0  0.121501  2.1e-05  1.026227  0.0  0.124805  1.4e-05  1.024626  0.0  0.102046  0.119075  2.7e-05  1.027461  0.0
H  H23  1  0.71006882  0.63021994  0.32622004  1  0.10648  -7e-06  0.969776  0.0  0.11914  1e-06  1.026481  0.0  0.122343  2e-06  1.025005  0.0  0.102924  0.116901  3e-06  1.027444  0.0
H  H24  1  0.28992460  0.36977886  0.67378130  1  0.106478  -8e-06  0.96983  0.0  0.119132  1e-06  1.026538  0.0  0.122333  2e-06  1.025064  0.0  0.102922  0.116895  3e-06  1.027498  0.0
H  H25  1  0.93603667  0.41402586  0.33345309  1  0.063952  1.3e-05  0.970469  0.0  0.074274  7e-06  1.035775  0.0  0.076021  6e-06  1.034311  0.0  0.105442  0.072764  4e-06  1.037199  0.0
H  H26  1  0.06395506  0.58596956  0.66654810  1  0.063913  1.3e-05  0.97047  0.0  0.074229  6e-06  1.035799  0.0  0.075971  6e-06  1.034338  0.0  0.105434  0.07272  4e-06  1.037212  0.0
H  H27  1  0.00480226  0.20170761  0.79928122  1  0.088655  0.00109  0.960325  0.002  0.094862  0.000797  1.027135  0.002  0.096386  0.000525  1.024893  0.001  0.118229  0.093697  0.00103  1.028768  0.002
H  H28  1  0.99519635  0.79829011  0.20072061  1  0.088597  0.001087  0.960392  0.002  0.094803  0.000797  1.027202  0.002  0.096325  0.000525  1.024963  0.001  0.118211  0.09363  0.00103  1.028854  0.002
H  H29  1  0.12863014  0.16884689  0.63014329  1  0.113549  0.000625  0.967195  0.001  0.119981  0.000454  1.035428  0.001  0.122608  0.00031  1.035363  0.0  0.109414  0.118262  0.00057  1.035401  0.001
H  H30  1  0.87136646  0.83115417  0.36985824  1  0.113543  0.000629  0.967215  0.001  0.119959  0.000454  1.035465  0.001  0.122585  0.000311  1.035401  0.0  0.109405  0.118242  0.00057  1.035432  0.001
H  H31  1  0.24708134  0.69236234  0.74275234  1  0.119439  0.000591  0.980469  0.001  0.128695  0.000417  1.041335  0.0  0.131861  0.000278  1.039909  0.0  0.107798  0.126734  0.000529  1.042072  0.001
H  H32  1  0.75292045  0.30763764  0.25724536  1  0.119414  0.000591  0.980491  0.001  0.128662  0.000417  1.041379  0.0  0.131828  0.000278  1.039954  0.0  0.107797  0.126705  0.000529  1.042119  0.001
H  H33  1  0.11713211  0.74466163  0.90323392  1  0.0806  0.001079  0.987359  0.002  0.082254  0.000785  1.063866  0.002  0.083864  0.000484  1.061569  0.001  0.11397  0.081002  0.001044  1.065545  0.002
H  H34  1  0.88287072  0.25533389  0.09676719  1  0.080594  0.001079  0.987415  0.002  0.082244  0.000785  1.063917  0.002  0.083845  0.000484  1.061629  0.001  0.113953  0.080993  0.001044  1.065595  0.002
C  C35  1  0.33790741  0.11197582  0.12231763  1  0.147638  -0.000233  3.710481  0.0  0.117765  -0.000104  3.968428  0.0  0.126696  -0.000105  3.984388  0.0  0.040951  0.112021  -0.0001  3.957615  0.0
C  C36  1  0.66209633  0.88802643  0.87768324  1  0.147558  -0.000199  3.710543  0.0  0.117694  -0.000104  3.96847  0.0  0.126625  -0.000103  3.984429  0.0  0.040967  0.111938  -0.0001  3.957664  0.0
C  C37  1  0.36734057  0.01519933  0.21089660  1  -0.160311  0.000149  3.69763  0.0  -0.176895  2e-06  3.943806  0.0  -0.185112  -0.0  3.963786  0.0  -0.08403  -0.171512  6.5e-05  3.929045  0.0
C  C38  1  0.63266220  0.98480178  0.78910304  1  -0.160249  0.000126  3.697581  0.0  -0.176845  0.0  3.943773  0.0  -0.185064  -0.0  3.963755  0.0  -0.084095  -0.171461  6.4e-05  3.929009  0.0
C  C39  1  0.31076188  0.06447320  0.30098089  1  0.111283  -0.000222  3.745212  0.0  0.123726  -3.8e-05  3.969723  0.0  0.130477  -5.2e-05  3.990906  0.0  0.014608  0.119691  5e-06  3.955262  0.0
C  C40  1  0.68923718  0.93552788  0.69901829  1  0.111244  -0.000194  3.745074  0.0  0.123667  -3.9e-05  3.969628  0.0  0.130417  -5.1e-05  3.990809  0.0  0.014618  0.119631  5e-06  3.955166  0.0
C  C41  1  0.22435555  0.21361465  0.29444540  1  -0.165518  0.000174  3.675385  0.0  -0.180222  1.7e-05  3.917672  0.0  -0.188544  2.8e-05  3.937568  0.0  -0.084408  -0.175039  6.6e-05  3.903988  0.0
C  C42  1  0.77564404  0.78638419  0.70555405  1  -0.165575  0.000152  3.67537  0.0  -0.18029  1.5e-05  3.91769  0.0  -0.188611  2.9e-05  3.937583  0.0  -0.084448  -0.175111  6.6e-05  3.904012  0.0
C  C43  1  0.19867839  0.30366088  0.20223491  1  0.142274  -0.000149  3.701423  0.0  0.114754  -1.8e-05  3.959024  0.0  0.123856  -3.1e-05  3.975094  0.0  0.045903  0.109001  5e-05  3.947176  0.0
C  C44  1  0.80131944  0.69634019  0.79776365  1  0.142243  -0.000112  3.701502  0.0  0.11474  -1.9e-05  3.959109  0.0  0.123841  -2.8e-05  3.975182  0.0  0.045892  0.108989  5e-05  3.947251  0.0
C  C45  1  0.34451175  0.96419653  0.39651348  1  0.045566  0.000792  3.774228  0.001  0.062691  0.000168  4.00754  0.0  0.059983  0.00021  4.031687  0.0  -0.00595  0.063754  0.00011  3.99137  0.0
C  C46  1  0.65548881  0.03580344  0.60348503  1  0.045579  0.000795  3.774212  0.001  0.06271  0.000171  4.007522  0.0  0.060003  0.000206  4.031669  0.0  -0.005949  0.063771  0.00011  3.991357  0.0
C  C47  1  0.47310014  0.83655846  0.39870329  1  -0.121271  -0.002107  3.681555  -0.001  -0.153563  -0.000776  3.929589  0.0  -0.155165  -0.000919  3.950251  -0.001  -0.076483  -0.151733  -0.000588  3.916096  0.0
C  C48  1  0.52689822  0.16344038  0.60129625  1  -0.121127  -0.002103  3.681481  -0.001  -0.153463  -0.000763  3.9295  0.0  -0.155073  -0.000924  3.950161  -0.001  -0.076433  -0.151631  -0.000588  3.916003  0.0
C  C49  1  0.51493754  0.73818337  0.48660057  1  0.049697  0.001135  3.787144  0.001  0.068331  0.000197  4.01914  0.0  0.066653  0.000231  4.04295  0.0  -0.005645  0.068432  0.000152  4.005266  0.0
C  C50  1  0.48506107  0.26181434  0.51339838  1  0.049668  0.001139  3.78712  0.001  0.068331  0.000192  4.01909  0.0  0.066652  0.000234  4.042904  0.0  -0.005662  0.068433  0.000152  4.005208  0.0
C  C51  1  0.42420781  0.77220656  0.57418435  1  -0.118067  -0.002732  3.67441  -0.002  -0.151203  -0.00078  3.924539  0.0  -0.152532  -0.000942  3.945149  -0.001  -0.074498  -0.149435  -0.0006  3.910915  0.0
C  C52  1  0.57578976  0.22779563  0.42581407  1  -0.118078  -0.00274  3.674357  -0.002  -0.151237  -0.000781  3.924481  0.0  -0.152575  -0.000942  3.945083  -0.001  -0.074519  -0.14947  -0.0006  3.910856  0.0
C  C53  1  0.29443225  0.89865526  0.57487490  1  0.050689  0.001733  3.773858  0.002  0.067707  0.000387  4.008245  0.001  0.065541  0.000367  4.03139  0.001  -0.004316  0.068077  0.00042  3.993371  0.001
C  C54  1  0.70556682  0.10134582  0.42512429  1  0.050649  0.001736  3.773791  0.002  0.067647  0.000384  4.008217  0.001  0.065482  0.000368  4.031365  0.001  -0.004332  0.068016  0.00042  3.993343  0.001
C  C55  1  0.25401538  0.99450898  0.48556724  1  -0.113859  -0.002088  3.626745  -0.001  -0.142295  -0.000862  3.873054  0.0  -0.143193  -0.001028  3.891369  -0.001  -0.072665  -0.140372  -0.000717  3.860757  0.0
C  C56  1  0.74598193  0.00549433  0.51443249  1  -0.113863  -0.002083  3.626819  -0.001  -0.142294  -0.000861  3.873139  0.0  -0.143193  -0.001022  3.891456  -0.001  -0.072651  -0.140375  -0.000716  3.860849  0.0
C  C57  1  0.83008442  0.38251699  0.56989158  1  0.123132  -0.000339  3.748616  0.0  0.100587  -5.3e-05  4.006541  0.0  0.10651  -6e-05  4.024807  0.0  0.036203  0.096755  -7e-06  3.994526  0.0
C  C58  1  0.16991121  0.61748295  0.43011089  1  0.12333  -0.000339  3.748526  0.0  0.10082  -5.3e-05  4.006449  0.0  0.106726  -5.8e-05  4.024714  0.0  0.036312  0.096986  -7e-06  3.99444  0.0
C  C59  1  0.70043047  0.50684494  0.57402841  1  -0.163074  0.000606  3.699186  0.001  -0.18198  9.1e-05  3.945077  0.0  -0.189855  8.5e-05  3.96662  0.0  -0.089396  -0.17658  7.9e-05  3.930725  0.0
C  C60  1  0.29956736  0.49315614  0.42597375  1  -0.163081  0.000604  3.699409  0.001  -0.182018  9.3e-05  3.945282  0.0  -0.189888  8e-05  3.966818  0.0  -0.089407  -0.176618  7.9e-05  3.930928  0.0
C  C61  1  0.65193473  0.60439701  0.48668702  1  0.091737  -0.000297  3.767296  0.0  0.102067  -4.9e-05  3.999332  0.0  0.106622  -8e-05  4.021886  0.0  0.006018  0.098613  -1.7e-05  3.984938  0.0
C  C62  1  0.34806089  0.39560293  0.51331400  1  0.09172  -0.000295  3.767373  0.0  0.102028  -5.3e-05  3.999422  0.0  0.106584  -6.8e-05  4.021976  0.0  0.00597  0.098575  -1.7e-05  3.985024  0.0
C  C63  1  0.73973621  0.56621427  0.39883313  1  -0.170122  0.000355  3.710271  0.0  -0.187713  6.5e-05  3.955287  0.0  -0.195487  6.9e-05  3.976684  0.0  -0.092069  -0.182523  8.7e-05  3.941267  0.0
C  C64  1  0.26025895  0.43378230  0.60116766  1  -0.170127  0.000355  3.710282  0.0  -0.187705  6.8e-05  3.955287  0.0  -0.195481  6.4e-05  3.976683  0.0  -0.092053  -0.182522  8.7e-05  3.941269  0.0
C  C65  1  0.86902049  0.44071789  0.40257446  1  0.117992  -0.000309  3.761549  0.0  0.095355  -4.1e-05  4.019574  0.0  0.101075  -6.3e-05  4.038095  0.0  0.034754  0.091238  4e-06  4.007769  0.0
C  C66  1  0.13097267  0.55928203  0.59742674  1  0.118021  -0.000308  3.761531  0.0  0.095393  -4.1e-05  4.019545  0.0  0.101117  -5.9e-05  4.03806  0.0  0.034747  0.091281  4e-06  4.007729  0.0
C  C67  1  0.06025086  0.09094562  0.78284854  1  0.139742  -0.008844  3.672065  -0.005  0.114005  -0.001227  3.922871  0.0  0.12424  -0.003096  3.94094  -0.002  0.048019  0.107362  8.1e-05  3.910169  0.001
C  C68  1  0.93975048  0.90905099  0.21715109  1  0.139805  -0.008812  3.672066  -0.005  0.114071  -0.001227  3.922884  0.0  0.124305  -0.003092  3.940954  -0.002  0.048028  0.107433  8.1e-05  3.910175  0.001
C  C69  1  0.13016055  0.07113010  0.68858422  1  -0.164915  0.010357  3.676344  0.012  -0.181112  0.003907  3.921543  0.005  -0.190309  0.003371  3.942867  0.004  -0.081955  -0.17526  0.004381  3.907056  0.005
C  C70  1  0.86983903  0.92886875  0.31141667  1  -0.164912  0.010328  3.676326  0.011  -0.181065  0.003912  3.921504  0.005  -0.190262  0.003366  3.942833  0.004  -0.081926  -0.175212  0.004381  3.907009  0.005
C  C71  1  0.20618893  0.92720279  0.67065991  1  0.11783  -0.011801  3.74065  -0.008  0.128154  -0.004161  3.967498  -0.003  0.134615  -0.004699  3.989062  -0.003  0.018063  0.124276  -0.003791  3.95296  -0.002
C  C72  1  0.79381234  0.07279943  0.32933825  1  0.117828  -0.011763  3.740771  -0.008  0.128123  -0.004166  3.967652  -0.003  0.134581  -0.004688  3.989223  -0.003  0.01802  0.124253  -0.003791  3.953116  -0.002
C  C73  1  0.19885525  0.80841542  0.75012957  1  -0.16203  0.010736  3.690402  0.012  -0.17942  0.003903  3.933386  0.005  -0.189264  0.003342  3.955245  0.004  -0.083876  -0.173217  0.004426  3.918495  0.005
C  C74  1  0.80114557  0.19158344  0.24987267  1  -0.162029  0.010711  3.690406  0.012  -0.179405  0.003908  3.933388  0.005  -0.189249  0.003337  3.955245  0.004  -0.083884  -0.173209  0.004427  3.918513  0.005
C  C75  1  0.12469445  0.83618117  0.84154846  1  0.138402  -0.01016  3.704651  -0.006  0.109715  -0.002114  3.961408  -0.001  0.119574  -0.003987  3.980476  -0.002  0.043893  0.103402  -0.000719  3.948314  0.0
C  C76  1  0.87530936  0.16381547  0.15844955  1  0.138466  -0.010129  3.704598  -0.006  0.1098  -0.002117  3.961338  -0.001  0.119667  -0.003984  3.980408  -0.002  0.043971  0.103484  -0.00072  3.94826  0.0
N  N77  1  0.25466180  0.25498338  0.11671118  1  -0.374655  0.00036  3.258425  0.001  -0.326389  0.000167  3.526296  0.0  -0.346854  8.2e-05  3.548434  0.0  -0.341835  -0.312434  0.000135  3.511086  0.0
N  N78  1  0.74533798  0.74501995  0.88328838  1  -0.374576  0.00034  3.258385  0.001  -0.326321  0.000167  3.526255  0.0  -0.346786  7.9e-05  3.548397  0.0  -0.341813  -0.312359  0.000135  3.511037  0.0
N  N79  1  0.91694509  0.34792572  0.48616482  1  -0.333271  0.000364  3.08192  0.0  -0.297582  6.3e-05  3.358141  0.0  -0.309365  6.2e-05  3.375035  0.0  -0.328001  -0.290281  7.5e-05  3.34725  0.0
N  N80  1  0.08305202  0.65207311  0.51383697  1  -0.33334  0.000362  3.082128  0.0  -0.297656  6.2e-05  3.358323  0.0  -0.309442  6.3e-05  3.375226  0.0  -0.328033  -0.290353  7.5e-05  3.347417  0.0
N  N81  1  0.05994103  0.97528622  0.85888831  1  -0.29944  0.087784  3.299863  0.112  -0.253084  0.05337  3.584309  0.073  -0.284684  0.041929  3.606235  0.062  -0.347565  -0.232842  0.060699  3.56933  0.079
N  N82  1  0.94005979  0.02471264  0.14111250  1  -0.299474  0.08777  3.299961  0.112  -0.253166  0.053367  3.584462  0.073  -0.284765  0.041929  3.606382  0.062  -0.34758  -0.232923  0.060695  3.569484  0.079
O  O83  1  0.12489723  0.22461475  0.94852936  1  -0.733909  -0.000436  1.563703  0.002  -0.752968  -0.000583  1.854187  0.001  -0.782024  -0.000934  1.842772  0.001  -0.516294  -0.733281  -0.000201  1.861505  0.001
O  O84  1  0.87511151  0.77538192  0.05146612  1  -0.733936  -0.000439  1.56379  0.002  -0.752926  -0.000584  1.854226  0.001  -0.781983  -0.000933  1.842819  0.001  -0.516283  -0.733233  -0.000201  1.861558  0.001
O  O85  1  0.99999962  0.49999811  0.99999760  1  -0.9225  -0.000183  1.871358  0.0  -0.924851  -0.000154  2.192099  0.0  -0.971191  -9.1e-05  2.18838  0.0  -0.604113  -0.89295  9.4e-05  2.19495  0.0
O  O86  1  0.19968063  0.47228242  0.82619465  1  -0.677874  -4.4e-05  1.442361  0.0  -0.672946  -5.1e-05  1.681974  0.0  -0.698042  -5.1e-05  1.672303  0.0  -0.507464  -0.656085  5.7e-05  1.68939  0.0
O  O87  1  0.80033104  0.52771765  0.17380378  1  -0.677821  -4.6e-05  1.442367  0.0  -0.672879  -4.6e-05  1.681978  0.0  -0.697989  -5.6e-05  1.672336  0.0  -0.507444  -0.656015  5.7e-05  1.689412  0.0
O  O88  1  0.30578796  0.55277982  0.00131728  1  -0.899979  0.008915  1.7025  0.012  -0.89926  0.00486  2.012813  0.008  -0.938657  0.00303  2.000817  0.005  -0.578594  -0.871651  0.006801  2.021431  0.01
O  O89  1  0.69421163  0.44721903  0.99868434  1  -0.899971  0.008914  1.702555  0.012  -0.899248  0.004861  2.012875  0.008  -0.938641  0.00303  2.000873  0.005  -0.578593  -0.87164  0.006801  2.021498  0.01
O  O90  1  0.44464162  0.29349140  0.93682179  1  -0.923182  -0.00035  1.789849  0.0  -0.913291  -5e-05  2.092245  0.0  -0.955371  -0.000287  2.079966  0.0  -0.601725  -0.883161  0.000165  2.100746  0.0
O  O91  1  0.55536317  0.70650637  0.06317888  1  -0.923154  -0.000353  1.789825  0.0  -0.913269  -5e-05  2.092256  0.0  -0.95535  -0.000285  2.079976  0.0  -0.601691  -0.883121  0.000165  2.100747  0.0
O  O92  1  0.27454486  0.62286233  0.19584553  1  -0.741681  0.008121  1.414005  0.011  -0.732876  0.004116  1.667046  0.006  -0.761705  0.00253  1.653566  0.004  -0.53333  -0.711681  0.006497  1.675267  0.009
O  O93  1  0.72545817  0.37713767  0.80415496  1  -0.741713  0.008118  1.413925  0.011  -0.732901  0.004115  1.666954  0.006  -0.761727  0.002533  1.653472  0.004  -0.533344  -0.711695  0.006497  1.675155  0.009
O  O94  1  0.21345605  0.86185075  0.03353401  1  -0.845507  0.050578  1.720808  0.07  -0.847469  0.033638  2.051253  0.05  -0.890217  0.025358  2.034583  0.041  -0.56721  -0.817453  0.038921  2.061591  0.055
O  O95  1  0.78654724  0.13814812  0.96646590  1  -0.845563  0.050575  1.720821  0.07  -0.847539  0.033637  2.051272  0.05  -0.890286  0.025359  2.0346  0.041  -0.567235  -0.817518  0.038921  2.061599  0.055
