# generated using pymatgen
data_CdH21C18(NO2)2
_symmetry_space_group_name_H-M   'P 1'
_cell_length_a   9.13277125
_cell_length_b   10.19842453
_cell_length_c   10.81791170
_cell_angle_alpha   64.43138653
_cell_angle_beta   74.24799224
_cell_angle_gamma   88.54582756
_symmetry_Int_Tables_number   1
_chemical_formula_structural   CdH21C18(NO2)2
_chemical_formula_sum   'Cd2 H42 C36 N4 O8'
_cell_volume   869.86991504
_cell_formula_units_Z   2
loop_
 _symmetry_equiv_pos_site_id
 _symmetry_equiv_pos_as_xyz
  1  'x, y, z'
loop_
 _atom_site_type_symbol
 _atom_site_label
 _atom_site_symmetry_multiplicity
 _atom_site_fract_x
 _atom_site_fract_y
 _atom_site_fract_z
 _atom_site_occupancy
 _atom_site_pbe_bader_spin_density
 _atom_site_pbe_cm5_charge
 _atom_site_pbe_ddec_charge
 _atom_site_pbe_ddec_spin_density
 _atom_site_pbe_ddec_sum_bond_order
 _atom_site_pbe_magmom
Cd  Cd0  1  0.57016891  0.41665200  0.36241879  1  0  0.785039  0.944088  0  2.096418  0
Cd  Cd1  1  0.42983016  0.58334715  0.63758262  1  0  0.785018  0.944073  0  2.096382  0
H  H2  1  0.56824085  0.92822107  0.36707870  1  0  0.10837  0.118503  0  1.022203  0
H  H3  1  0.43176042  0.07177703  0.63291987  1  0  0.108376  0.1185  0  1.022165  0
H  H4  1  0.98744296  0.75351292  0.24798741  1  0  0.101905  0.09651  0  1.048507  0
H  H5  1  0.01255953  0.24648625  0.75201324  1  0  0.101914  0.096527  0  1.048524  0
H  H6  1  0.99605530  0.15567538  0.28826318  1  0  0.100978  0.099521  0  1.055593  0
H  H7  1  0.00394401  0.84432597  0.71173638  1  0  0.100986  0.09952  0  1.055602  0
H  H8  1  0.23724486  0.18892593  0.19401818  1  0  0.080354  0.104753  0  1.03806  0
H  H9  1  0.76275549  0.81107434  0.80598066  1  0  0.080349  0.104766  0  1.038062  0
H  H10  1  0.38554375  0.07579353  0.22897745  1  0  0.08896  0.129229  0  1.015529  0
H  H11  1  0.61445898  0.92420783  0.77102135  1  0  0.088976  0.129259  0  1.015508  0
H  H12  1  0.21724985  0.04769142  0.36880666  1  0  0.087126  0.126212  0  1.008253  0
H  H13  1  0.78275175  0.95230995  0.63119145  1  0  0.087135  0.126232  0  1.008235  0
H  H14  1  0.20130327  0.93931140  0.02526343  1  0  0.081606  0.114062  0  1.025185  0
H  H15  1  0.79869670  0.06068557  0.97473865  1  0  0.081622  0.114108  0  1.025179  0
H  H16  1  0.37230516  0.02731490  0.01620290  1  0  0.083901  0.117472  0  1.022622  0
H  H17  1  0.62769617  0.97268424  0.98379893  1  0  0.083904  0.117497  0  1.022626  0
H  H18  1  0.20839661  0.12407693  0.99627477  1  0  0.08119  0.116212  0  1.024464  0
H  H19  1  0.79160484  0.87592331  0.00372661  1  0  0.081183  0.116224  0  1.024464  0
H  H20  1  0.20688070  0.77812818  0.41129705  1  0  0.083937  0.129752  0  1.02465  0
H  H21  1  0.79311644  0.22187424  0.58870349  1  0  0.083932  0.129773  0  1.024627  0
H  H22  1  0.37239984  0.82612127  0.26299548  1  0  0.084765  0.129817  0  1.01403  0
H  H23  1  0.62759918  0.17387783  0.73700966  1  0  0.084754  0.1298  0  1.014043  0
H  H24  1  0.20785992  0.73484427  0.26800936  1  0  0.078024  0.10337  0  1.059502  0
H  H25  1  0.79213776  0.26515266  0.73199509  1  0  0.078024  0.103349  0  1.059547  0
H  H26  1  0.61921870  0.67082832  0.03674860  1  0  0.115436  0.106318  0  1.034829  0
H  H27  1  0.38078573  0.32916759  0.96325199  1  0  0.115434  0.106356  0  1.034843  0
H  H28  1  0.39554139  0.75525651  0.89491030  1  0  0.120789  0.125651  0  1.048515  0
H  H29  1  0.60446064  0.24473829  0.10509219  1  0  0.120782  0.125658  0  1.048454  0
H  H30  1  0.21807818  0.29307404  0.40478296  1  0  0.104489  0.158855  0  1.003049  0
H  H31  1  0.78191998  0.70692729  0.59521778  1  0  0.104496  0.158833  0  1.003111  0
H  H32  1  0.06576965  0.36786773  0.33173122  1  0  0.105781  0.161297  0  1.005  0
H  H33  1  0.93422862  0.63213468  0.66826999  1  0  0.105772  0.161276  0  1.005046  0
H  H34  1  0.13144685  0.43959614  0.43237390  1  0  0.101899  0.153486  0  0.979092  0
H  H35  1  0.86855006  0.56040410  0.56762756  1  0  0.101912  0.153494  0  0.97905  0
H  H36  1  0.10601238  0.71536261  0.98979173  1  0  0.112032  0.0944  0  0.97846  0
H  H37  1  0.89398909  0.28463766  0.01020778  1  0  0.112038  0.094425  0  0.978444  0
H  H38  1  0.01515884  0.58453863  0.16662915  1  0  0.112282  0.102634  0  1.005772  0
H  H39  1  0.98484151  0.41546164  0.83336968  1  0  0.112271  0.102625  0  1.005775  0
H  H40  1  0.08420210  0.38286667  0.09215525  1  0  0.091135  0.081963  0  1.01197  0
H  H41  1  0.91579608  0.61713468  0.90784363  1  0  0.091142  0.081974  0  1.011993  0
H  H42  1  0.16785697  0.51632904  0.91363501  1  0  0.092006  0.089908  0  1.015074  0
H  H43  1  0.83214452  0.48367124  0.08636357  1  0  0.092022  0.089963  0  1.015036  0
C  C44  1  0.69694063  0.17828587  0.34428274  1  0  0.190258  0.548856  0  4.226337  0
C  C45  1  0.30305496  0.82171222  0.65571616  1  0  0.19022  0.548822  0  4.226456  0
C  C46  1  0.77639190  0.05562192  0.32454278  1  0  -0.021733  -0.034834  0  4.006751  0
C  C47  1  0.22360742  0.94437944  0.67545585  1  0  -0.021747  -0.034836  0  4.006794  0
C  C48  1  0.69254069  0.93582507  0.33646623  1  0  -0.075953  -0.108366  0  3.931574  0
C  C49  1  0.30746045  0.06417193  0.66353373  1  0  -0.075957  -0.108347  0  3.931533  0
C  C50  1  0.77093271  0.82656186  0.31018377  1  0  -0.024076  -0.051596  0  4.027462  0
C  C51  1  0.22907091  0.17343731  0.68981662  1  0  -0.02406  -0.051568  0  4.027366  0
C  C52  1  0.93104605  0.83954607  0.27006836  1  0  -0.076936  -0.124307  0  3.918915  0
C  C53  1  0.06895530  0.16045309  0.72993254  1  0  -0.07695  -0.124348  0  3.918955  0
C  C54  1  0.01703167  0.95617331  0.26197625  1  0  -0.001222  0.066462  0  3.875627  0
C  C55  1  0.98296880  0.04382806  0.73802212  1  0  -0.001214  0.066459  0  3.875628  0
C  C56  1  0.93641522  0.06300966  0.29103073  1  0  -0.081043  -0.140715  0  3.930136  0
C  C57  1  0.06358398  0.93699060  0.70896929  1  0  -0.081052  -0.140756  0  3.930167  0
C  C58  1  0.68646813  0.69290049  0.32862276  1  0  0.206121  0.575315  0  4.195574  0
C  C59  1  0.31353106  0.30709976  0.67137819  1  0  0.206126  0.575314  0  4.195504  0
C  C60  1  0.19182965  0.96708148  0.21736019  1  0  -0.014893  0.2383  0  3.80745  0
C  C61  1  0.80817169  0.03291768  0.78264071  1  0  -0.014876  0.238492  0  3.80715  0
C  C62  1  0.26092851  0.07634862  0.25417177  1  0  -0.243857  -0.411313  0  3.879702  0
C  C63  1  0.73907310  0.92365276  0.74582542  1  0  -0.243907  -0.411453  0  3.87961  0
C  C64  1  0.24671236  0.01748052  0.05420343  1  0  -0.243807  -0.415126  0  3.88985  0
C  C65  1  0.75328786  0.98251865  0.94579680  1  0  -0.243831  -0.415267  0  3.889875  0
C  C66  1  0.24692121  0.81757649  0.29464295  1  0  -0.250669  -0.417495  0  3.872559  0
C  C67  1  0.75307784  0.18242264  0.70535940  1  0  -0.250638  -0.417489  0  3.872514  0
C  C68  1  0.49892437  0.63178525  0.07328054  1  0  -0.008521  -0.032623  0  4.044599  0
C  C69  1  0.50107432  0.36821059  0.92672505  1  0  -0.008525  -0.032697  0  4.044601  0
C  C70  1  0.38926391  0.67656204  0.00323874  1  0  7.6e-05  -0.102757  0  3.927565  0
C  C71  1  0.61073770  0.32343934  0.99675844  1  0  6.6e-05  -0.102745  0  3.927451  0
C  C72  1  0.28408575  0.49951145  0.22292929  1  0  0.216454  0.335915  0  3.955541  0
C  C73  1  0.71591354  0.50048988  0.77707213  1  0  0.216521  0.33597  0  3.95557  0
C  C74  1  0.16836691  0.39476663  0.35399517  1  0  -0.229134  -0.477104  0  3.934868  0
C  C75  1  0.83163363  0.60523579  0.64600554  1  0  -0.229146  -0.477054  0  3.934896  0
C  C76  1  0.10674100  0.60272005  0.06914701  1  0  -0.052081  -0.065789  0  3.879213  0
C  C77  1  0.89325945  0.39728130  0.93085229  1  0  -0.052089  -0.065808  0  3.879308  0
C  C78  1  0.07811038  0.49458180  0.01341172  1  0  -0.162003  -0.156427  0  3.926075  0
C  C79  1  0.92189034  0.50542178  0.98658387  1  0  -0.162011  -0.156542  0  3.926147  0
N  N80  1  0.43274851  0.52203876  0.20886882  1  0  -0.36665  -0.37487  0  3.530338  0
N  N81  1  0.56725183  0.47796150  0.79113094  1  0  -0.366684  -0.374909  0  3.530257  0
N  N82  1  0.25437904  0.59313973  0.09897711  1  0  -0.243953  -0.015766  0  3.733992  0
N  N83  1  0.74562480  0.40686161  0.90102329  1  0  -0.243935  -0.015759  0  3.73391  0
O  O84  1  0.55568880  0.18311415  0.35108330  1  0  -0.325527  -0.55509  0  2.181274  0
O  O85  1  0.44430782  0.81688285  0.64891581  1  0  -0.325526  -0.555102  0  2.181343  0
O  O86  1  0.77544229  0.27830789  0.34862828  1  0  -0.334295  -0.558747  0  2.189322  0
O  O87  1  0.22455225  0.72169126  0.65137228  1  0  -0.334258  -0.558685  0  2.189279  0
O  O88  1  0.75665223  0.61445994  0.27125489  1  0  -0.319671  -0.541683  0  2.211919  0
O  O89  1  0.24334811  0.38554032  0.72874487  1  0  -0.31966  -0.541664  0  2.211926  0
O  O90  1  0.54499774  0.65897912  0.40235649  1  0  -0.338893  -0.584256  0  2.349632  0
O  O91  1  0.45500260  0.34102114  0.59764327  1  0  -0.338907  -0.584258  0  2.349587  0
