# generated using pymatgen
data_Cu3H12C19(O2F)6
_symmetry_space_group_name_H-M   'P 1'
_cell_length_a   7.18566853
_cell_length_b   12.03687673
_cell_length_c   29.32783783
_cell_angle_alpha   90.00499957
_cell_angle_beta   89.97597829
_cell_angle_gamma   96.66072652
_symmetry_Int_Tables_number   1
_chemical_formula_structural   Cu3H12C19(O2F)6
_chemical_formula_sum   'Cu12 H48 C76 O48 F24'
_cell_volume   2519.53121618
_cell_formula_units_Z   4
loop_
 _symmetry_equiv_pos_site_id
 _symmetry_equiv_pos_as_xyz
  1  'x, y, z'
loop_
 _atom_site_type_symbol
 _atom_site_label
 _atom_site_symmetry_multiplicity
 _atom_site_fract_x
 _atom_site_fract_y
 _atom_site_fract_z
 _atom_site_occupancy
 _atom_site_pbe_bader_charge
 _atom_site_pbe_bader_spin_density
 _atom_site_pbe_cm5_charge
 _atom_site_pbe_ddec_charge
 _atom_site_pbe_ddec_spin_density
 _atom_site_pbe_ddec_sum_bond_order
 _atom_site_pbe_magmom
Cu  Cu0  1  0.05358177  0.77261585  0.04146487  1  1.105349  0.582871  0.673498  0.94688  0.736184  2.103535  0.583
Cu  Cu1  1  0.44544664  0.72709464  0.54139040  1  1.104593  0.575954  0.673961  0.945657  0.72785  2.107097  0.576
Cu  Cu2  1  0.94641841  0.22738349  0.95853574  1  1.10535  0.582874  0.673498  0.946931  0.736187  2.103496  0.583
Cu  Cu3  1  0.55455370  0.27290554  0.45860954  1  1.104593  0.575953  0.67396  0.94565  0.727848  2.107088  0.576
Cu  Cu4  1  0.50000017  0.50000009  0.49999963  1  1.141548  -0.541828  0.699234  1.00563  -0.783558  2.184158  -0.542
Cu  Cu5  1  0.99999943  0.99999785  0.00000087  1  1.136351  0.601412  0.694151  0.998732  0.764719  2.174278  0.6
Cu  Cu6  1  0.76517015  0.81749819  0.47676492  1  1.132775  0.587317  0.691778  0.987333  0.735879  2.085544  0.586
Cu  Cu7  1  0.73496514  0.68190147  0.97659600  1  1.133182  0.603752  0.692844  0.987643  0.755569  2.085432  0.602
Cu  Cu8  1  0.23483125  0.18250032  0.52323467  1  1.13276  0.587318  0.69179  0.987359  0.735879  2.085499  0.586
Cu  Cu9  1  0.26503660  0.31809871  0.02340360  1  1.133349  0.603752  0.692837  0.987674  0.755569  2.085447  0.602
Cu  Cu10  1  0.50000332  0.00000158  0.49999919  1  1.148695  0.6117  0.680679  1.010293  0.76623  2.093795  0.61
Cu  Cu11  1  0.00000074  0.49999976  0.99999985  1  1.159595  0.632414  0.688286  1.020075  0.793575  2.1002  0.63
H  H12  1  0.83304580  0.49067644  0.14284244  1  0.149832  0.00045  0.10194  0.117917  0.000279  1.033331  0.0
H  H13  1  0.66728437  0.00929312  0.64281478  1  0.150327  0.000438  0.102095  0.117881  0.000267  1.033151  0.0
H  H14  1  0.16695488  0.50932541  0.85715716  1  0.149779  0.00045  0.101915  0.117871  0.000279  1.033332  0.0
H  H15  1  0.33271269  0.99070455  0.35718448  1  0.150373  0.000438  0.1021  0.117914  0.000267  1.033108  0.0
H  H16  1  0.34690386  0.53505433  0.22471951  1  0.095252  5.6e-05  0.099412  0.103849  2.2e-05  1.022343  0.0
H  H17  1  0.15303967  0.96496038  0.72473725  1  0.095287  6.3e-05  0.099277  0.103686  2.6e-05  1.022664  0.0
H  H18  1  0.65309599  0.46494333  0.77528008  1  0.09542  5.6e-05  0.099383  0.103796  2.2e-05  1.022385  0.0
H  H19  1  0.84695355  0.03503897  0.27526303  1  0.095295  6.3e-05  0.099271  0.103655  2.6e-05  1.022642  0.0
H  H20  1  0.18938624  0.59619812  0.15562509  1  0.119402  0.000292  0.102536  0.111824  0.000128  1.012831  0.0
H  H21  1  0.31091119  0.90378535  0.65564451  1  0.117675  0.000278  0.102645  0.111921  0.000124  1.01229  0.0
H  H22  1  0.81061377  0.40380038  0.84437417  1  0.119385  0.000292  0.102543  0.111839  0.000128  1.012753  0.0
H  H23  1  0.68908670  0.09621651  0.34435645  1  0.117646  0.000278  0.10263  0.111892  0.000124  1.012332  0.0
H  H24  1  0.60753187  0.38357198  0.32246647  1  0.123971  0.000566  0.102003  0.119178  0.000431  1.027534  0.0
H  H25  1  0.89242368  0.11640565  0.82242081  1  0.123984  0.000554  0.101841  0.119082  0.000405  1.027463  0.0
H  H26  1  0.39246831  0.61642736  0.67753279  1  0.123975  0.000566  0.102012  0.119182  0.000431  1.027545  0.0
H  H27  1  0.10756971  0.88359454  0.17757947  1  0.123995  0.000555  0.101835  0.119086  0.000405  1.027502  0.0
H  H28  1  0.63288775  0.79466896  0.31290858  1  0.100028  0.000391  0.095242  0.109254  0.000183  1.048859  0.0
H  H29  1  0.86703944  0.70531572  0.81288644  1  0.099479  0.000384  0.094953  0.109058  0.000174  1.049116  0.0
H  H30  1  0.36711121  0.20533122  0.68709068  1  0.100026  0.000391  0.095258  0.109326  0.000183  1.048853  0.0
H  H31  1  0.13296230  0.29468446  0.18711383  1  0.099465  0.000384  0.09495  0.109053  0.000174  1.049127  0.0
H  H32  1  0.66216509  0.68779380  0.24283043  1  0.064503  4.8e-05  0.101879  0.11155  9e-06  1.002642  0.0
H  H33  1  0.83773004  0.81212083  0.74281276  1  0.062543  3.4e-05  0.10165  0.11127  2e-06  1.003237  0.0
H  H34  1  0.33783353  0.31220470  0.75716882  1  0.064224  4.8e-05  0.10186  0.11154  9e-06  1.002648  0.0
H  H35  1  0.16226474  0.18787935  0.25718684  1  0.06254  3.4e-05  0.101639  0.111267  2e-06  1.003196  0.0
H  H36  1  0.77910826  0.86637520  0.04149637  1  0.599256  -0.000867  0.300584  0.383564  0.000651  0.911079  0.0
H  H37  1  0.72079713  0.63406623  0.54122657  1  0.602056  -0.000209  0.300184  0.382839  -0.000185  0.913264  0.0
H  H38  1  0.22089364  0.13362582  0.95850357  1  0.599248  -0.000867  0.300608  0.383649  0.000651  0.910994  0.0
H  H39  1  0.27920583  0.36593311  0.45877269  1  0.602052  -0.000209  0.300177  0.38279  -0.000185  0.913322  0.0
H  H40  1  0.44420945  0.80764753  0.45926004  1  0.645073  -0.00014  0.276784  0.368708  0.001659  0.989584  0.001
H  H41  1  0.05559738  0.69201936  0.95899877  1  0.643743  -8.7e-05  0.27712  0.369599  0.001708  0.988356  0.001
H  H42  1  0.55579089  0.19235265  0.54073990  1  0.645072  -0.00014  0.276781  0.368714  0.001658  0.98958  0.001
H  H43  1  0.94440436  0.30798081  0.04100117  1  0.64375  -8.7e-05  0.277046  0.369454  0.001709  0.988542  0.001
H  H44  1  0.12032467  0.86465104  0.49008396  1  0.657814  -1.9e-05  0.301339  0.399748  0.000344  0.937115  0.0
H  H45  1  0.38000932  0.63537850  0.99010915  1  0.654064  -1e-06  0.301397  0.399639  0.000354  0.936785  0.0
H  H46  1  0.87967550  0.13534831  0.50991597  1  0.657812  -1.9e-05  0.301341  0.399737  0.000344  0.937128  0.0
H  H47  1  0.61999119  0.36462252  0.00989078  1  0.654077  -1e-06  0.301422  0.399684  0.000354  0.936768  0.0
H  H48  1  0.09942659  0.82166455  0.43844016  1  0.63929  0.00018  0.33743  0.431469  0.000323  0.833932  0.0
H  H49  1  0.40109804  0.67847451  0.93847360  1  0.638915  0.000222  0.337345  0.43088  0.00036  0.835194  0.0
H  H50  1  0.90057531  0.17833646  0.56155978  1  0.63927  0.00018  0.33742  0.431464  0.000323  0.833857  0.0
H  H51  1  0.59890213  0.32152483  0.06152600  1  0.638918  0.000222  0.337354  0.430906  0.00036  0.835169  0.0
H  H52  1  0.38048585  0.83567241  0.98477854  1  0.612926  -7e-06  0.290079  0.396094  0.000101  0.925325  0.0
H  H53  1  0.11977439  0.66440946  0.48476702  1  0.613521  0.000173  0.290159  0.396425  0.00013  0.924919  0.0
H  H54  1  0.61951728  0.16432777  0.01522174  1  0.612928  -7e-06  0.290115  0.3961  0.000101  0.925312  0.0
H  H55  1  0.88022874  0.33559071  0.51523258  1  0.613415  0.000174  0.290181  0.396503  0.00013  0.92482  0.0
H  H56  1  0.41551410  0.93101019  0.02093955  1  0.612934  5.3e-05  0.311182  0.400653  0.000146  0.894835  0.0
H  H57  1  0.08425721  0.56902017  0.52091471  1  0.614061  0.000183  0.311067  0.400327  0.00016  0.895456  0.0
H  H58  1  0.58448769  0.06898329  0.97906380  1  0.613039  5.3e-05  0.31115  0.400543  0.000146  0.894997  0.0
H  H59  1  0.91574525  0.43097666  0.47908318  1  0.614  0.000183  0.311024  0.400262  0.00016  0.895497  0.0
C  C60  1  0.31266830  0.61078961  0.07007059  1  1.606103  -0.001145  0.221449  0.623261  0.000102  4.155818  -0.002
C  C61  1  0.18748407  0.88918530  0.57004865  1  1.604318  -0.001167  0.220943  0.621153  0.000134  4.156802  -0.002
C  C62  1  0.68733255  0.38921307  0.92992935  1  1.606262  -0.001146  0.221342  0.623106  0.000102  4.155895  -0.002
C  C63  1  0.81251783  0.11081571  0.42995162  1  1.604475  -0.001169  0.220982  0.621208  0.000133  4.156789  -0.002
C  C64  1  0.41961853  0.57706086  0.11091713  1  0.019695  0.009801  0.000861  -0.01195  0.00669  3.887589  0.008
C  C65  1  0.08075394  0.92290913  0.61094014  1  0.022491  0.010121  0.000159  -0.013676  0.006932  3.888785  0.008
C  C66  1  0.58038354  0.42294099  0.88908281  1  0.01951  0.009802  0.000848  -0.011938  0.00669  3.887545  0.008
C  C67  1  0.91924673  0.07709272  0.38906014  1  0.022498  0.010121  0.00014  -0.013696  0.006932  3.888674  0.008
C  C68  1  0.60389631  0.54874611  0.10820663  1  -0.077058  0.01828  -0.010401  -0.040977  0.012284  3.931949  0.014
C  C69  1  0.89648017  0.95115275  0.60822167  1  -0.074199  0.017772  -0.010554  -0.039665  0.011954  3.931345  0.014
C  C70  1  0.39610454  0.45125658  0.89179331  1  -0.077071  0.01828  -0.010415  -0.040986  0.012285  3.931889  0.014
C  C71  1  0.10352018  0.04884743  0.39177827  1  -0.074221  0.017773  -0.010546  -0.039657  0.011954  3.931355  0.014
C  C72  1  0.71459969  0.56595928  0.06495359  1  1.582079  0.000443  0.218859  0.587229  0.002098  4.168122  -0.001
C  C73  1  0.78538057  0.93366846  0.56505273  1  1.581468  -0.000358  0.218536  0.586919  0.001377  4.166285  -0.002
C  C74  1  0.28540377  0.43404257  0.93504635  1  1.582065  0.000442  0.218888  0.587358  0.002098  4.168027  -0.001
C  C75  1  0.21461978  0.06633172  0.43494720  1  1.581464  -0.000358  0.218508  0.586859  0.001377  4.166398  -0.002
C  C76  1  0.69191069  0.51305790  0.14713443  1  0.026771  0.002055  -0.087068  -0.144331  0.001339  3.931267  0.001
C  C77  1  0.80837504  0.98690077  0.64713561  1  0.024745  0.002122  -0.086681  -0.14408  0.00138  3.931246  0.001
C  C78  1  0.30809277  0.48694394  0.85286516  1  0.02685  0.002055  -0.087058  -0.144318  0.001339  3.931292  0.001
C  C79  1  0.19162113  0.01309942  0.35286433  1  0.024765  0.002122  -0.086703  -0.144144  0.00138  3.931282  0.001
C  C80  1  0.60202979  0.50823873  0.18959898  1  -0.1235  0.003425  -0.016789  0.080048  0.002117  3.950322  0.002
C  C81  1  0.89811975  0.99174251  0.68959005  1  -0.124913  0.003539  -0.016876  0.080368  0.00219  3.951579  0.002
C  C82  1  0.39797055  0.49176145  0.81040062  1  -0.123539  0.003425  -0.016784  0.080079  0.002117  3.950366  0.002
C  C83  1  0.10187626  0.00825684  0.31040988  1  -0.124897  0.003539  -0.01685  0.080357  0.00219  3.951599  0.002
C  C84  1  0.41942191  0.53762343  0.19206971  1  0.009785  0.00096  -0.083995  -0.10771  0.000623  3.958664  0.0
C  C85  1  0.08070899  0.96236034  0.69208151  1  0.008122  0.001035  -0.084162  -0.108382  0.000671  3.959799  0.0
C  C86  1  0.58057827  0.46237591  0.80792955  1  0.009587  0.00096  -0.083977  -0.107677  0.000623  3.958641  0.0
C  C87  1  0.91928579  0.03763985  0.30791911  1  0.008115  0.001035  -0.084215  -0.108434  0.000671  3.959712  0.0
C  C88  1  0.33016663  0.57185779  0.15323912  1  -0.032003  0.002807  -0.082275  -0.08475  0.001784  3.946018  0.002
C  C89  1  0.17012910  0.92812462  0.65325754  1  -0.033617  0.002816  -0.08233  -0.084092  0.001789  3.944466  0.002
C  C90  1  0.66983371  0.42814239  0.84676082  1  -0.031931  0.002807  -0.082247  -0.08473  0.001784  3.945865  0.002
C  C91  1  0.82986863  0.07187639  0.34674274  1  -0.033634  0.002817  -0.082295  -0.084019  0.001789  3.944372  0.002
C  C92  1  0.69261794  0.46720185  0.23311605  1  0.104165  5.3e-05  -0.011223  -0.270352  5e-05  3.86994  0.0
C  C93  1  0.80735114  0.03277667  0.73309866  1  0.103982  0.000476  -0.011248  -0.270804  0.000358  3.870299  0.0
C  C94  1  0.30738224  0.53279749  0.76688355  1  0.104194  5.3e-05  -0.011229  -0.270404  5e-05  3.870057  0.0
C  C95  1  0.19264486  0.96722268  0.26690128  1  0.104058  0.000476  -0.011196  -0.270644  0.000358  3.870217  0.0
C  C96  1  0.63561287  0.33849076  0.23538313  1  1.71129  0.000152  0.302464  0.676511  0.000104  3.975736  0.0
C  C97  1  0.86436873  0.16148627  0.73537879  1  1.711103  0.000183  0.302636  0.676656  0.000121  3.976068  0.0
C  C98  1  0.36438469  0.66150942  0.76461647  1  1.711276  0.000152  0.302514  0.676598  0.000104  3.975653  0.0
C  C99  1  0.13562694  0.83851140  0.26462183  1  1.710896  0.000183  0.302474  0.676556  0.000121  3.975999  0.0
C  C100  1  0.90970173  0.49101560  0.23123165  1  1.674287  0.000227  0.306003  0.677261  0.000154  3.96973  0.0
C  C101  1  0.59026738  0.00898199  0.73122826  1  1.674247  0.000302  0.306092  0.677697  0.000203  3.968561  0.0
C  C102  1  0.09029828  0.50898291  0.76876794  1  1.67429  0.000227  0.306069  0.677317  0.000154  3.969611  0.0
C  C103  1  0.40972428  0.99101653  0.26877134  1  1.674119  0.000302  0.306038  0.67762  0.000203  3.968551  0.0
C  C104  1  0.63639987  0.52693966  0.27649348  1  -0.060549  0.004416  -0.023214  0.065238  0.002732  3.973498  0.003
C  C105  1  0.86351570  0.97300986  0.77646153  1  -0.060201  0.005939  -0.023423  0.065086  0.003691  3.974664  0.004
C  C106  1  0.36360047  0.47306052  0.72350577  1  -0.060791  0.004415  -0.023278  0.065113  0.002732  3.973586  0.003
C  C107  1  0.13647752  0.02698949  0.22353807  1  -0.060327  0.005938  -0.023457  0.06498  0.00369  3.974689  0.004
C  C108  1  0.60729901  0.47333131  0.31853326  1  0.011934  -0.001429  -0.086243  -0.136758  -0.000979  3.936116  -0.001
C  C109  1  0.89276011  0.02665751  0.81848128  1  0.010427  0.001158  -0.085926  -0.136611  0.000846  3.936235  0.001
C  C110  1  0.39270256  0.52666803  0.68146633  1  0.012215  -0.001429  -0.086257  -0.136807  -0.000979  3.936237  -0.001
C  C111  1  0.10723745  0.97334267  0.18151934  1  0.010392  0.001159  -0.085974  -0.136697  0.000847  3.936427  0.001
C  C112  1  0.58246354  0.53421186  0.35828285  1  0.003193  0.007708  -0.011975  -0.043515  0.004836  3.92648  0.006
C  C113  1  0.91789681  0.96584913  0.85822358  1  0.004725  0.021587  -0.011795  -0.042676  0.014591  3.926521  0.016
C  C114  1  0.41753943  0.46578747  0.64171640  1  0.003184  0.007708  -0.011896  -0.043315  0.004836  3.926463  0.006
C  C115  1  0.08210337  0.03415021  0.14177636  1  0.004717  0.021587  -0.011783  -0.04258  0.014591  3.9266  0.016
C  C116  1  0.56003176  0.47316315  0.40257121  1  1.517874  -0.000772  0.217833  0.585306  -0.000999  4.17032  -0.002
C  C117  1  0.93982212  0.02680200  0.90252836  1  1.517365  0.000128  0.217588  0.585229  0.00206  4.170605  -0.002
C  C118  1  0.43997103  0.52683535  0.59742804  1  1.51787  -0.000772  0.217812  0.585242  -0.000999  4.170326  -0.002
C  C119  1  0.06017961  0.97319817  0.09747192  1  1.517324  0.000128  0.217543  0.585119  0.00206  4.170746  -0.002
C  C120  1  0.59004858  0.65159211  0.35677849  1  -0.055494  0.008529  0.007421  -0.000536  0.005855  3.87944  0.007
C  C121  1  0.91026511  0.84846630  0.85672977  1  -0.055434  0.007987  0.006913  -0.00168  0.005529  3.880362  0.006
C  C122  1  0.40995455  0.34840806  0.64322111  1  -0.055555  0.008529  0.007375  -0.000657  0.005855  3.879572  0.007
C  C123  1  0.08973368  0.15153304  0.14327051  1  -0.055359  0.007988  0.006889  -0.00177  0.00553  3.880463  0.006
C  C124  1  0.62002354  0.70429042  0.31465749  1  0.055344  0.005088  -0.090934  -0.104231  0.003326  3.979585  0.003
C  C125  1  0.88007526  0.79569750  0.81463010  1  0.055615  0.005315  -0.090774  -0.104232  0.003388  3.979259  0.003
C  C126  1  0.37997630  0.29570725  0.68534074  1  0.05533  0.005088  -0.090943  -0.104306  0.003326  3.979577  0.003
C  C127  1  0.11992508  0.20430268  0.18536983  1  0.055594  0.005314  -0.090751  -0.104233  0.003388  3.979334  0.003
C  C128  1  0.63930838  0.64342795  0.27503230  1  -0.012205  -0.000792  -0.086805  -0.108437  -0.000593  3.973079  -0.001
C  C129  1  0.86065529  0.85653391  0.77499409  1  -0.012303  -0.00154  -0.086999  -0.108568  -0.001144  3.973452  -0.001
C  C130  1  0.36069057  0.35657223  0.72496729  1  -0.011829  -0.000792  -0.08678  -0.108362  -0.000593  3.972892  -0.001
C  C131  1  0.13934244  0.14346711  0.22500653  1  -0.012158  -0.00154  -0.08695  -0.108421  -0.001143  3.973243  -0.001
C  C132  1  0.57406100  0.72443998  0.39831760  1  1.598086  -0.000484  0.218802  0.61238  0.000428  4.159575  -0.002
C  C133  1  0.92602152  0.77565948  0.89828851  1  1.600667  0.000715  0.219617  0.613659  0.001521  4.157364  -0.002
C  C134  1  0.42593778  0.27555936  0.60168234  1  1.598091  -0.000484  0.218792  0.612412  0.000428  4.159383  -0.002
C  C135  1  0.07397343  0.22434155  0.10171143  1  1.600644  0.000716  0.219646  0.613704  0.001521  4.157174  -0.002
O  O136  1  0.23706146  0.70068835  0.07584808  1  -1.119821  0.077154  -0.327667  -0.546738  0.049014  2.369689  0.07
O  O137  1  0.26313966  0.79927363  0.57587822  1  -1.11767  0.080333  -0.326854  -0.54402  0.050945  2.37058  0.073
O  O138  1  0.76293782  0.29931350  0.92415254  1  -1.119748  0.077156  -0.327662  -0.546742  0.049014  2.369688  0.07
O  O139  1  0.73686380  0.20072821  0.42412206  1  -1.117863  0.080335  -0.326891  -0.544073  0.050945  2.370565  0.073
O  O140  1  0.30071214  0.54938075  0.03475008  1  -1.199568  0.00746  -0.325036  -0.64542  0.00415  2.38048  0.009
O  O141  1  0.19901532  0.95037234  0.53469026  1  -1.197908  0.006897  -0.32368  -0.642093  0.003867  2.379936  0.008
O  O142  1  0.69929165  0.45062276  0.96524918  1  -1.19966  0.007459  -0.324957  -0.645319  0.004149  2.380454  0.009
O  O143  1  0.80098675  0.04962950  0.46530968  1  -1.197902  0.006897  -0.323635  -0.642014  0.003868  2.379942  0.008
O  O144  1  0.66889477  0.64460716  0.03972365  1  -1.126471  0.080091  -0.32035  -0.547844  0.050658  2.452149  0.073
O  O145  1  0.83074930  0.85459708  0.53991109  1  -1.126543  0.076349  -0.321008  -0.549349  0.047794  2.44637  0.07
O  O146  1  0.33110730  0.35539469  0.96027595  1  -1.126443  0.080086  -0.320368  -0.54791  0.050655  2.452148  0.073
O  O147  1  0.16925505  0.14540226  0.46008851  1  -1.126532  0.076344  -0.321037  -0.549376  0.047791  2.446426  0.07
O  O148  1  0.84412330  0.50432960  0.05761217  1  -1.133657  0.083954  -0.313783  -0.54149  0.053027  2.336857  0.076
O  O149  1  0.65591872  0.99518189  0.55775788  1  -1.132647  0.077344  -0.313597  -0.541193  0.048928  2.337022  0.07
O  O150  1  0.15587877  0.49567225  0.94238743  1  -1.133657  0.08396  -0.313771  -0.541508  0.05303  2.336754  0.076
O  O151  1  0.34408268  0.00481661  0.44224171  1  -1.132687  0.077351  -0.313565  -0.541141  0.048933  2.337059  0.07
O  O152  1  0.56034182  0.53584901  0.43759502  1  -1.112258  -0.074712  -0.311509  -0.530317  -0.054614  2.465473  -0.068
O  O153  1  0.93787201  0.96416924  0.93754647  1  -1.117736  0.081616  -0.313337  -0.532536  0.051705  2.466466  0.075
O  O154  1  0.43966147  0.46415200  0.56240424  1  -1.112419  -0.074709  -0.311497  -0.530224  -0.054612  2.465485  -0.068
O  O155  1  0.06213390  0.03583093  0.06245380  1  -1.117726  0.081618  -0.313327  -0.532488  0.051706  2.466452  0.075
O  O156  1  0.54587086  0.36659331  0.40221440  1  -1.072092  0.100184  -0.313224  -0.526207  0.063339  2.324609  0.091
O  O157  1  0.95494769  0.13348908  0.90217318  1  -1.068678  0.102574  -0.314148  -0.528029  0.064385  2.320677  0.093
O  O158  1  0.45412932  0.63340603  0.59778486  1  -1.072054  0.100187  -0.313212  -0.52622  0.063341  2.324608  0.091
O  O159  1  0.04504865  0.86651194  0.09782744  1  -1.068672  0.102571  -0.314119  -0.52797  0.064383  2.320732  0.093
O  O160  1  0.73462069  0.76401200  0.41504841  1  -1.104592  0.105242  -0.338782  -0.566381  0.066262  2.301473  0.094
O  O161  1  0.76539025  0.73577955  0.91491407  1  -1.104967  0.106598  -0.33899  -0.566508  0.06694  2.300738  0.095
O  O162  1  0.26538088  0.23598734  0.58495119  1  -1.104588  0.105242  -0.338769  -0.566375  0.066262  2.301368  0.094
O  O163  1  0.23460747  0.26422147  0.08508553  1  -1.105059  0.106604  -0.338993  -0.566538  0.066944  2.300634  0.095
O  O164  1  0.41634287  0.74693708  0.41153815  1  -1.155641  0.011009  -0.310633  -0.510357  0.006298  2.129124  0.009
O  O165  1  0.08365185  0.75331580  0.91162568  1  -1.154667  0.015282  -0.309997  -0.509573  0.008895  2.128527  0.013
O  O166  1  0.58365853  0.25306143  0.58846111  1  -1.155665  0.011011  -0.310621  -0.510357  0.006299  2.128982  0.009
O  O167  1  0.91634677  0.24668271  0.08837426  1  -1.154729  0.015278  -0.31002  -0.509555  0.008893  2.128516  0.013
O  O168  1  0.85888792  0.85491677  0.01535784  1  -1.094609  0.223859  -0.577019  -0.844586  0.142212  2.271912  0.196
O  O169  1  0.64082426  0.64489502  0.51506973  1  -1.09685  0.025714  -0.576248  -0.844489  0.012694  2.276554  0.021
O  O170  1  0.14111365  0.14508257  0.98464244  1  -1.094602  0.223863  -0.577058  -0.844751  0.142215  2.271905  0.196
O  O171  1  0.35917609  0.35510516  0.48492987  1  -1.096848  0.025714  -0.576244  -0.844431  0.012694  2.276615  0.021
O  O172  1  0.05015743  0.80786747  0.46924356  1  -1.211947  0.048559  -0.546996  -0.730953  0.031784  2.158406  0.042
O  O173  1  0.45043341  0.69207103  0.96927207  1  -1.206696  0.049529  -0.546283  -0.728692  0.032362  2.160678  0.043
O  O174  1  0.94984431  0.19213271  0.53075638  1  -1.211887  0.048559  -0.546975  -0.730941  0.031783  2.158361  0.042
O  O175  1  0.54956709  0.30792998  0.03072787  1  -1.206707  0.049527  -0.546299  -0.728757  0.032361  2.160718  0.043
O  O176  1  0.50017677  0.83696820  0.48984057  1  -1.102541  0.28214  -0.575875  -0.870197  0.180498  2.437634  0.252
O  O177  1  0.99989943  0.66280676  0.98969345  1  -1.102929  0.288792  -0.575487  -0.870779  0.184846  2.434101  0.258
O  O178  1  0.49982497  0.16303198  0.51015937  1  -1.102546  0.282142  -0.575887  -0.870224  0.1805  2.437602  0.252
O  O179  1  0.00010247  0.33719425  0.01030649  1  -1.102955  0.288784  -0.575404  -0.870668  0.18484  2.434186  0.258
O  O180  1  0.32816877  0.90163001  0.99726475  1  -1.221611  -0.001005  -0.584472  -0.807676  -0.000918  1.986326  0.0
O  O181  1  0.17189676  0.59841986  0.49729084  1  -1.223028  0.001869  -0.584165  -0.807539  0.001321  1.98752  0.001
O  O182  1  0.67183903  0.09837266  0.00273553  1  -1.221655  -0.001005  -0.584476  -0.807547  -0.000918  1.986408  0.0
O  O183  1  0.82810809  0.40158198  0.50270875  1  -1.222975  0.001869  -0.584146  -0.807549  0.001321  1.987369  0.001
F  F184  1  0.45220574  0.31817371  0.24781317  1  -0.619119  5e-05  -0.084901  -0.191405  5e-06  1.371311  0.0
F  F185  1  0.04775492  0.18180260  0.74778830  1  -0.619532  5.7e-05  -0.085007  -0.191516  8e-06  1.371742  0.0
F  F186  1  0.54779272  0.68182396  0.75218711  1  -0.619089  5e-05  -0.084915  -0.191415  5e-06  1.371255  0.0
F  F187  1  0.95223780  0.81819424  0.25221198  1  -0.619316  5.7e-05  -0.084985  -0.191532  8e-06  1.371573  0.0
F  F188  1  0.65407334  0.28762130  0.19465000  1  -0.611513  6.6e-05  -0.094138  -0.194802  2.8e-05  1.324912  0.0
F  F189  1  0.84597852  0.21235937  0.69465109  1  -0.611579  6.4e-05  -0.094195  -0.19468  2.6e-05  1.325034  0.0
F  F190  1  0.34592545  0.71237805  0.80534994  1  -0.611507  6.6e-05  -0.094183  -0.194863  2.8e-05  1.324818  0.0
F  F191  1  0.15401609  0.78763998  0.30534987  1  -0.611621  6.3e-05  -0.094092  -0.194624  2.6e-05  1.325107  0.0
F  F192  1  0.73846687  0.28608064  0.26609856  1  -0.622953  8.6e-05  -0.094742  -0.202108  2.5e-05  1.339618  0.0
F  F193  1  0.76145519  0.21390269  0.76610704  1  -0.622289  8.4e-05  -0.094768  -0.202151  2.2e-05  1.339452  0.0
F  F194  1  0.26153298  0.71391702  0.73390172  1  -0.622955  8.6e-05  -0.094726  -0.202087  2.5e-05  1.339663  0.0
F  F195  1  0.23853926  0.78609582  0.23389324  1  -0.622282  8.4e-05  -0.09474  -0.202113  2.2e-05  1.339453  0.0
F  F196  1  0.98681637  0.42700374  0.19950718  1  -0.625011  0.000115  -0.076936  -0.19992  4e-05  1.424185  0.0
F  F197  1  0.51323684  0.07299746  0.69951470  1  -0.625252  0.000163  -0.076968  -0.199921  6.9e-05  1.423853  0.0
F  F198  1  0.01318397  0.57299644  0.80049241  1  -0.624998  0.000115  -0.076981  -0.199945  4.1e-05  1.424087  0.0
F  F199  1  0.48675728  0.92699938  0.30048489  1  -0.625235  0.000163  -0.076943  -0.199856  6.9e-05  1.423735  0.0
F  F200  1  0.99263448  0.47180832  0.27160165  1  -0.61492  7.2e-05  -0.09682  -0.195698  3e-05  1.305225  0.0
F  F201  1  0.50725845  0.02819482  0.77160919  1  -0.614728  7.1e-05  -0.096877  -0.196211  2.5e-05  1.30559  0.0
F  F202  1  0.00736536  0.52818935  0.72839795  1  -0.614926  7.2e-05  -0.096869  -0.195717  2.9e-05  1.305171  0.0
F  F203  1  0.49273371  0.97180621  0.22839109  1  -0.614697  7.1e-05  -0.096863  -0.196218  2.5e-05  1.305639  0.0
F  F204  1  0.96393698  0.59957320  0.21992619  1  -0.615533  4.6e-05  -0.086615  -0.19793  7e-06  1.386261  0.0
F  F205  1  0.53603323  0.90042453  0.71992195  1  -0.615716  5.4e-05  -0.086765  -0.198022  1e-05  1.38605  0.0
F  F206  1  0.03606181  0.40042615  0.78007409  1  -0.615555  4.6e-05  -0.08658  -0.197915  7e-06  1.386269  0.0
F  F207  1  0.46396227  0.09957230  0.28007833  1  -0.615641  5.4e-05  -0.086761  -0.198023  1e-05  1.386004  0.0
