# generated using pymatgen
data_H8PbC14(NO)4
_symmetry_space_group_name_H-M   'P 1'
_cell_length_a   4.54764015
_cell_length_b   7.98451112
_cell_length_c   19.52587213
_cell_angle_alpha   84.04776150
_cell_angle_beta   83.29282233
_cell_angle_gamma   73.51163254
_symmetry_Int_Tables_number   1
_chemical_formula_structural   H8PbC14(NO)4
_chemical_formula_sum   'H16 Pb2 C28 N8 O8'
_cell_volume   673.33371683
_cell_formula_units_Z   2
loop_
 _symmetry_equiv_pos_site_id
 _symmetry_equiv_pos_as_xyz
  1  'x, y, z'
loop_
 _atom_site_type_symbol
 _atom_site_label
 _atom_site_symmetry_multiplicity
 _atom_site_fract_x
 _atom_site_fract_y
 _atom_site_fract_z
 _atom_site_occupancy
 _atom_site_hle17_bader_spin_density
 _atom_site_hle17_ddec_charge
 _atom_site_hle17_ddec_spin_density
 _atom_site_hle17_ddec_sum_bond_order
 _atom_site_hle17_magmom
 _atom_site_hse06_10hf_bader_spin_density
 _atom_site_hse06_10hf_ddec_charge
 _atom_site_hse06_10hf_ddec_spin_density
 _atom_site_hse06_10hf_ddec_sum_bond_order
 _atom_site_hse06_10hf_magmom
 _atom_site_hse06_bader_spin_density
 _atom_site_hse06_ddec_charge
 _atom_site_hse06_ddec_spin_density
 _atom_site_hse06_ddec_sum_bond_order
 _atom_site_hse06_magmom
 _atom_site_pbe_bader_spin_density
 _atom_site_pbe_cm5_charge
 _atom_site_pbe_ddec_charge
 _atom_site_pbe_ddec_spin_density
 _atom_site_pbe_ddec_sum_bond_order
 _atom_site_pbe_magmom
H  H0  1  0.31761852  0.45284719  0.40197599  1  0  0.104726  0  0.956928  0  0  0.111505  0  1.022939  0  0  0.114783  0  1.019073  0  0  0.13293  0.109112  0  1.025653  0
H  H1  1  0.17386069  0.04730983  0.09751799  1  0  0.104657  0  0.956816  0  0  0.111516  0  1.022725  0  0  0.114647  0  1.019025  0  0  0.132849  0.109209  0  1.025351  0
H  H2  1  0.68238072  0.54715366  0.59802467  1  0  0.104711  0  0.956969  0  0  0.111511  0  1.022955  0  0  0.11479  0  1.019087  0  0  0.132941  0.109119  0  1.02567  0
H  H3  1  0.82614185  0.95268972  0.90248226  1  0  0.104673  0  0.956797  0  0  0.111531  0  1.02271  0  0  0.114662  0  1.01901  0  0  0.132857  0.109224  0  1.025338  0
H  H4  1  0.13192963  0.35855366  0.26773824  1  0  0.099003  0  0.985008  0  0  0.10431  0  1.053709  0  0  0.106414  0  1.053832  0  0  0.111783  0.10275  0  1.053808  0
H  H5  1  0.75745040  0.14235736  0.23215041  1  0  0.099748  0  0.984871  0  0  0.104782  0  1.053687  0  0  0.106908  0  1.053768  0  0  0.111839  0.103203  0  1.053808  0
H  H6  1  0.86807012  0.64144719  0.73226191  1  0  0.099029  0  0.984981  0  0  0.104341  0  1.053671  0  0  0.106446  0  1.053793  0  0  0.111798  0.102779  0  1.053769  0
H  H7  1  0.24255134  0.85763954  0.76785195  1  0  0.099716  0  0.984951  0  0  0.104785  0  1.053717  0  0  0.10691  0  1.053799  0  0  0.111843  0.103206  0  1.053837  0
H  H8  1  0.58204683  0.68717494  0.48148042  1  0  0.117047  0  0.931163  0  0  0.128162  0  0.990584  0  0  0.131887  0  0.987764  0  0  0.11232  0.12545  0  0.992704  0
H  H9  1  0.75050642  0.81276889  0.01838822  1  0  0.116851  0  0.931848  0  0  0.128018  0  0.991214  0  0  0.131725  0  0.988419  0  0  0.112232  0.125312  0  0.993341  0
H  H10  1  0.41795711  0.31282723  0.51851931  1  0  0.117044  0  0.931127  0  0  0.128157  0  0.990547  0  0  0.131883  0  0.987727  0  0  0.112309  0.125444  0  0.99267  0
H  H11  1  0.24950106  0.18722935  0.98161219  1  0  0.116907  0  0.931831  0  0  0.128059  0  0.991199  0  0  0.131766  0  0.988404  0  0  0.112242  0.125353  0  0.993326  0
H  H12  1  0.16657332  0.06704343  0.35973916  1  0  0.116989  0  0.990713  0  0  0.122134  0  1.059585  0  0  0.125182  0  1.058451  0  0  0.118578  0.119895  0  1.060519  0
H  H13  1  0.59025225  0.43469245  0.14059442  1  0  0.116685  0  0.990589  0  0  0.121818  0  1.059443  0  0  0.124907  0  1.058265  0  0  0.118729  0.119503  0  1.060477  0
H  H14  1  0.83343325  0.93296004  0.64026168  1  0  0.116951  0  0.990733  0  0  0.122121  0  1.05957  0  0  0.125171  0  1.058433  0  0  0.118578  0.119876  0  1.060529  0
H  H15  1  0.40975383  0.56530316  0.85940651  1  0  0.116699  0  0.990557  0  0  0.121807  0  1.059452  0  0  0.124883  0  1.058284  0  0  0.118723  0.119491  0  1.060491  0
Pb  Pb16  1  0.42323447  0.75061546  0.24994401  1  0  1.322624  0  1.431183  0  0  1.131089  0  1.835601  0  0  1.189347  0  1.794181  0  0  0.659165  1.088746  0  1.864675  0
Pb  Pb17  1  0.57674165  0.24938410  0.75005389  1  0  1.322612  0  1.431093  0  0  1.131078  0  1.835503  0  0  1.189338  0  1.794082  0  0  0.65918  1.08873  0  1.864576  0
C  C18  1  0.54431603  0.39003784  0.37809244  1  0  0.159214  0  3.669283  0  0  0.101446  0  3.934265  0  0  0.115109  0  3.946706  0  0  0.139899  0.092697  0  3.925301  0
C  C19  1  0.31319865  0.11027013  0.12158962  1  0  0.15886  0  3.670598  0  0  0.100896  0  3.93598  0  0  0.114678  0  3.948427  0  0  0.14003  0.092072  0  3.927014  0
C  C20  1  0.45568361  0.60996433  0.62190717  1  0  0.159216  0  3.669162  0  0  0.101433  0  3.934146  0  0  0.1151  0  3.94658  0  0  0.139905  0.09268  0  3.925188  0
C  C21  1  0.68680835  0.88972681  0.87840974  1  0  0.158806  0  3.670564  0  0  0.100834  0  3.935963  0  0  0.114616  0  3.948411  0  0  0.139973  0.092009  0  3.927  0
C  C22  1  0.82574351  0.84975601  0.37283311  1  0  0.665207  0  3.945103  0  0  0.608838  0  4.250432  0  0  0.644216  0  4.240923  0  0  0.212101  0.584787  0  4.255951  0
C  C23  1  0.04805142  0.65075015  0.12711827  1  0  0.665014  0  3.946967  0  0  0.608607  0  4.252349  0  0  0.644005  0  4.242836  0  0  0.212323  0.584508  0  4.257918  0
C  C24  1  0.17425843  0.15024356  0.62716554  1  0  0.665188  0  3.944947  0  0  0.608828  0  4.25029  0  0  0.644199  0  4.240788  0  0  0.212116  0.584776  0  4.255808  0
C  C25  1  0.95193439  0.34925070  0.87288253  1  0  0.66507  0  3.946702  0  0  0.608554  0  4.252265  0  0  0.64394  0  4.24277  0  0  0.212279  0.584462  0  4.257822  0
C  C26  1  0.66491834  0.93008451  0.43874398  1  0  -0.093176  0  3.706639  0  0  -0.076952  0  3.950968  0  0  -0.081091  0  3.967691  0  0  -0.008786  -0.07462  0  3.940211  0
C  C27  1  0.03303214  0.57020926  0.06127926  1  0  -0.091519  0  3.707506  0  0  -0.075819  0  3.951432  0  0  -0.079943  0  3.968121  0  0  -0.007955  -0.073392  0  3.940532  0
C  C28  1  0.33508727  0.06991636  0.56125476  1  0  -0.093087  0  3.706602  0  0  -0.076898  0  3.95093  0  0  -0.081026  0  3.967647  0  0  -0.008769  -0.074566  0  3.940173  0
C  C29  1  0.96697132  0.42979161  0.93871941  1  0  -0.091585  0  3.70748  0  0  -0.075824  0  3.951388  0  0  -0.079946  0  3.968076  0  0  -0.007906  -0.073399  0  3.940486  0
C  C30  1  0.96699888  0.33474760  0.30957876  1  0  0.012045  0  3.750344  0  0  -0.018899  0  4.018435  0  0  -0.015923  0  4.036339  0  0  -0.00204  -0.020943  0  4.006333  0
C  C31  1  0.61098116  0.16604170  0.19023992  1  0  0.010488  0  3.752121  0  0  -0.020361  0  4.020412  0  0  -0.017373  0  4.038298  0  0  -0.002549  -0.022384  0  4.008281  0
C  C32  1  0.03300075  0.66525457  0.69042084  1  0  0.012014  0  3.75037  0  0  -0.018936  0  4.018469  0  0  -0.015962  0  4.036372  0  0  -0.002045  -0.020978  0  4.006364  0
C  C33  1  0.38901831  0.83395651  0.80976184  1  0  0.010504  0  3.752134  0  0  -0.020377  0  4.020418  0  0  -0.01739  0  4.038303  0  0  -0.002596  -0.022399  0  4.008284  0
C  C34  1  0.61163371  0.10827813  0.44904152  1  0  0.164042  0  3.758711  0  0  0.145188  0  4.013968  0  0  0.150957  0  4.035733  0  0  0.097305  0.14128  0  3.999396  0
C  C35  1  0.16828981  0.39210326  0.05097403  1  0  0.161304  0  3.763597  0  0  0.144259  0  4.016412  0  0  0.150046  0  4.038145  0  0  0.096998  0.14031  0  4.001872  0
C  C36  1  0.38836986  0.89172142  0.55095771  1  0  0.163993  0  3.758656  0  0  0.145192  0  4.01387  0  0  0.150956  0  4.035636  0  0  0.097325  0.141287  0  3.999295  0
C  C37  1  0.83171704  0.60789629  0.94902634  1  0  0.161242  0  3.763647  0  0  0.144174  0  4.016496  0  0  0.149963  0  4.038227  0  0  0.096965  0.140228  0  4.001957  0
C  C38  1  0.55140967  0.82393799  0.49021967  1  0  -0.13697  0  3.708513  0  0  -0.171136  0  3.969101  0  0  -0.172165  0  3.985344  0  0  -0.082323  -0.170458  0  3.958438  0
C  C39  1  0.86566538  0.67606120  0.00972293  1  0  -0.135806  0  3.711585  0  0  -0.170577  0  3.971654  0  0  -0.171598  0  3.987874  0  0  -0.081796  -0.169935  0  3.960998  0
C  C40  1  0.44859606  0.17606157  0.50977961  1  0  -0.136974  0  3.708492  0  0  -0.171113  0  3.969088  0  0  -0.17215  0  3.985333  0  0  -0.082285  -0.170436  0  3.958428  0
C  C41  1  0.13434426  0.32393703  0.99027754  1  0  -0.135962  0  3.711633  0  0  -0.170726  0  3.97168  0  0  -0.171744  0  3.987897  0  0  -0.08185  -0.170084  0  3.961026  0
C  C42  1  0.98479612  0.18795838  0.35396075  1  0  -0.066726  0  3.653266  0  0  -0.106825  0  3.913896  0  0  -0.105942  0  3.931534  0  0  -0.004341  -0.107441  0  3.902149  0
C  C43  1  0.52523415  0.31317016  0.14613388  1  0  -0.065576  0  3.648732  0  0  -0.105577  0  3.909342  0  0  -0.104735  0  3.926936  0  0  -0.00436  -0.106146  0  3.897659  0
C  C44  1  0.01520667  0.81204509  0.64603945  1  0  -0.066707  0  3.65332  0  0  -0.106831  0  3.91396  0  0  -0.105952  0  3.93161  0  0  -0.004345  -0.10745  0  3.902201  0
C  C45  1  0.47476963  0.68682805  0.85386800  1  0  -0.065566  0  3.64872  0  0  -0.105554  0  3.90934  0  0  -0.104696  0  3.926953  0  0  -0.004301  -0.106126  0  3.897659  0
N  N46  1  0.69179206  0.45932255  0.32502267  1  0  -0.392392  0  3.166007  0  0  -0.322794  0  3.433686  0  0  -0.342501  0  3.451955  0  0  -0.325679  -0.309137  0  3.420827  0
N  N47  1  0.47723434  0.04090372  0.17455539  1  0  -0.392418  0  3.17001  0  0  -0.322689  0  3.437656  0  0  -0.342397  0  3.455857  0  0  -0.324934  -0.309029  0  3.424831  0
N  N48  1  0.30820076  0.54067701  0.67497624  1  0  -0.39243  0  3.16583  0  0  -0.322824  0  3.433502  0  0  -0.342531  0  3.45177  0  0  -0.325706  -0.309167  0  3.420643  0
N  N49  1  0.52277222  0.95909318  0.82544659  1  0  -0.392377  0  3.169956  0  0  -0.322643  0  3.4376  0  0  -0.34235  0  3.455799  0  0  -0.324911  -0.308985  0  3.424775  0
N  N50  1  0.71339204  0.22385821  0.39747464  1  0  -0.094564  0  3.594627  0  0  -0.002822  0  3.805805  0  0  -0.018531  0  3.832163  0  0  -0.226772  0.007632  0  3.787776  0
N  N51  1  0.33409011  0.27687233  0.10250811  1  0  -0.092915  0  3.595984  0  0  -0.001789  0  3.806762  0  0  -0.017507  0  3.833112  0  0  -0.227259  0.00867  0  3.788753  0
N  N52  1  0.28661417  0.77614264  0.60252569  1  0  -0.094436  0  3.594493  0  0  -0.002707  0  3.805652  0  0  -0.018417  0  3.83201  0  0  -0.226752  0.007746  0  3.787622  0
N  N53  1  0.66591749  0.72312459  0.89749285  1  0  -0.092881  0  3.596013  0  0  -0.001744  0  3.80679  0  0  -0.017463  0  3.833137  0  0  -0.227226  0.008711  0  3.788784  0
O  O54  1  0.68391175  0.90138115  0.31826985  1  0  -0.683378  0  2.020612  0  0  -0.610088  0  2.2709  0  0  -0.640508  0  2.261964  0  0  -0.303991  -0.588358  0  2.276237  0
O  O55  1  0.90266960  0.59992229  0.18178677  1  0  -0.682465  0  2.022826  0  0  -0.609405  0  2.273766  0  0  -0.639845  0  2.264839  0  0  -0.303941  -0.587605  0  2.279007  0
O  O56  1  0.31609047  0.09861448  0.68172833  1  0  -0.683388  0  2.020596  0  0  -0.610092  0  2.270879  0  0  -0.640512  0  2.261948  0  0  -0.303958  -0.58836  0  2.276215  0
O  O57  1  0.09729446  0.40008774  0.81821117  1  0  -0.682458  0  2.02246  0  0  -0.609391  0  2.273496  0  0  -0.639828  0  2.264571  0  0  -0.303961  -0.587584  0  2.278709  0
O  O58  1  0.08594596  0.74100019  0.37640082  1  0  -0.632989  0  1.960097  0  0  -0.578111  0  2.198444  0  0  -0.607067  0  2.192387  0  0  -0.300993  -0.557536  0  2.201812  0
O  O59  1  0.20472330  0.75891584  0.12337528  1  0  -0.633578  0  1.961206  0  0  -0.578709  0  2.199661  0  0  -0.607668  0  2.193618  0  0  -0.30139  -0.558128  0  2.203041  0
O  O60  1  0.91405722  0.25900461  0.62359833  1  0  -0.632979  0  1.959982  0  0  -0.578114  0  2.198341  0  0  -0.60707  0  2.192289  0  0  -0.301034  -0.557537  0  2.201708  0
O  O61  1  0.79527935  0.24107583  0.87662666  1  0  -0.633579  0  1.961223  0  0  -0.57865  0  2.19969  0  0  -0.607606  0  2.193653  0  0  -0.301363  -0.558073  0  2.203063  0
