# generated using pymatgen
data_TbH8C12N2O7
_symmetry_space_group_name_H-M   'P 1'
_cell_length_a   8.61269588
_cell_length_b   11.72832407
_cell_length_c   13.81860000
_cell_angle_alpha   90.00000000
_cell_angle_beta   90.00000000
_cell_angle_gamma   91.21213848
_symmetry_Int_Tables_number   1
_chemical_formula_structural   TbH8C12N2O7
_chemical_formula_sum   'Tb4 H32 C48 N8 O28'
_cell_volume   1395.53881433
_cell_formula_units_Z   4
loop_
 _symmetry_equiv_pos_site_id
 _symmetry_equiv_pos_as_xyz
  1  'x, y, z'
loop_
 _atom_site_type_symbol
 _atom_site_label
 _atom_site_symmetry_multiplicity
 _atom_site_fract_x
 _atom_site_fract_y
 _atom_site_fract_z
 _atom_site_occupancy
 _atom_site_hle17_bader_spin_density
 _atom_site_hle17_ddec_charge
 _atom_site_hle17_ddec_spin_density
 _atom_site_hle17_ddec_sum_bond_order
 _atom_site_hle17_magmom
 _atom_site_hse06_10hf_bader_spin_density
 _atom_site_hse06_10hf_ddec_charge
 _atom_site_hse06_10hf_ddec_spin_density
 _atom_site_hse06_10hf_ddec_sum_bond_order
 _atom_site_hse06_10hf_magmom
 _atom_site_hse06_bader_spin_density
 _atom_site_hse06_ddec_charge
 _atom_site_hse06_ddec_spin_density
 _atom_site_hse06_ddec_sum_bond_order
 _atom_site_hse06_magmom
 _atom_site_pbe_bader_charge
 _atom_site_pbe_bader_spin_density
 _atom_site_pbe_cm5_charge
 _atom_site_pbe_ddec_charge
 _atom_site_pbe_ddec_spin_density
 _atom_site_pbe_ddec_sum_bond_order
 _atom_site_pbe_magmom
Tb  Tb0  1  0.26808546  0.56576582  0.63900323  1  0  2.235796  0  1.709634  0  0  2.088745  0  2.189735  0  0  2.207855  0  2.010137  0  2.18105  0  1.515597  2.053464  0  2.221984  0
Tb  Tb1  1  0.73192381  0.93423509  0.13900467  1  0  2.235773  0  1.70978  0  0  2.088744  0  2.18986  0  0  2.207831  0  2.010299  0  2.181111  0  1.515502  2.053466  0  2.222107  0
Tb  Tb2  1  0.73192715  0.43423763  0.36100039  1  0  2.235781  0  1.709833  0  0  2.088722  0  2.189968  0  0  2.207842  0  2.010365  0  2.181242  0  1.515469  2.053495  0  2.222133  0
Tb  Tb3  1  0.26808295  0.06576665  0.86099677  1  0  2.235817  0  1.709624  0  0  2.088736  0  2.189759  0  0  2.207874  0  2.010121  0  2.181107  0  1.515519  2.05352  0  2.221905  0
H  H4  1  0.83681479  0.80148480  0.52756357  1  0  0.092811  0  0.942674  0  0  0.104277  0  0.999027  0  0  0.107322  0  0.997691  0  0.086998  0  0.101933  0.102153  0  0.999893  0
H  H5  1  0.16314060  0.69849990  0.02755127  1  0  0.092785  0  0.942416  0  0  0.104314  0  0.998734  0  0  0.107359  0  0.997393  0  0.086868  0  0.101941  0.102184  0  0.999609  0
H  H6  1  0.16317648  0.19850330  0.47245307  1  0  0.0928  0  0.942416  0  0  0.10434  0  0.998703  0  0  0.107386  0  0.997361  0  0.086907  0  0.101939  0.102204  0  0.999585  0
H  H7  1  0.83681618  0.30150014  0.97244945  1  0  0.092813  0  0.942488  0  0  0.104298  0  0.998822  0  0  0.107343  0  0.997482  0  0.087058  0  0.101947  0.102165  0  0.999699  0
H  H8  1  0.64283502  0.99757715  0.82212019  1  0  0.103287  0  0.945246  0  0  0.110455  0  1.012177  0  0  0.11352  0  1.011028  0  0.087177  0  0.11509  0.10757  0  1.014501  0
H  H9  1  0.35716370  0.50242034  0.32209848  1  0  0.103387  0  0.945465  0  0  0.110526  0  1.012346  0  0  0.11359  0  1.011198  0  0.087291  0  0.115129  0.107641  0  1.01467  0
H  H10  1  0.35715911  0.00242971  0.17788777  1  0  0.103346  0  0.945362  0  0  0.110466  0  1.012281  0  0  0.113532  0  1.011131  0  0.087291  0  0.115099  0.107582  0  1.014604  0
H  H11  1  0.64283466  0.49757202  0.67788488  1  0  0.103364  0  0.945373  0  0  0.110457  0  1.012335  0  0  0.113524  0  1.011182  0  0.087215  0  0.115086  0.107572  0  1.014657  0
H  H12  1  0.67388709  0.97251511  0.51060889  1  0  0.088343  0  0.956068  0  0  0.100208  0  1.016145  0  0  0.103266  0  1.014572  0  0.064  0  0.098934  0.098  0  1.017337  0
H  H13  1  0.32609054  0.52747557  0.01059297  1  0  0.088436  0  0.955958  0  0  0.10029  0  1.016015  0  0  0.103344  0  1.014444  0  0.063823  0  0.099025  0.098067  0  1.017224  0
H  H14  1  0.32610050  0.02746617  0.48939762  1  0  0.088448  0  0.95588  0  0  0.100274  0  1.015996  0  0  0.103328  0  1.014426  0  0.064108  0  0.09898  0.098062  0  1.017192  0
H  H15  1  0.67388747  0.47253556  0.98939328  1  0  0.088397  0  0.956036  0  0  0.100246  0  1.016135  0  0  0.103302  0  1.014568  0  0.064182  0  0.098929  0.098054  0  1.017301  0
H  H16  1  0.90130513  0.72750627  0.69053594  1  0  0.104199  0  0.963013  0  0  0.114684  0  1.023571  0  0  0.117894  0  1.021751  0  0.110194  0  0.10555  0.112347  0  1.025034  0
H  H17  1  0.09866783  0.77248355  0.19052654  1  0  0.104169  0  0.962946  0  0  0.114683  0  1.023459  0  0  0.117888  0  1.021643  0  0.109964  0  0.105527  0.112322  0  1.02495  0
H  H18  1  0.09871341  0.27250144  0.30948359  1  0  0.104125  0  0.962985  0  0  0.114552  0  1.023612  0  0  0.117761  0  1.021791  0  0.11035  0  0.105448  0.112195  0  1.025101  0
H  H19  1  0.90128970  0.22750199  0.80947998  1  0  0.104203  0  0.96289  0  0  0.114598  0  1.023544  0  0  0.117809  0  1.02172  0  0.110047  0  0.105465  0.11224  0  1.025034  0
H  H20  1  0.80343188  0.82576139  0.83783162  1  0  0.103089  0  0.957077  0  0  0.110687  0  1.019854  0  0  0.114599  0  1.016888  0  0.102225  0  0.101826  0.108042  0  1.021666  0
H  H21  1  0.19655728  0.67422672  0.33781715  1  0  0.103141  0  0.956916  0  0  0.110713  0  1.019722  0  0  0.114622  0  1.016758  0  0.102148  0  0.101848  0.108069  0  1.021533  0
H  H22  1  0.19655285  0.17424120  0.16218285  1  0  0.103204  0  0.957194  0  0  0.110814  0  1.019958  0  0  0.114725  0  1.016991  0  0.102313  0  0.10189  0.108173  0  1.021759  0
H  H23  1  0.80345271  0.32576649  0.66217851  1  0  0.103172  0  0.957075  0  0  0.110785  0  1.019819  0  0  0.114697  0  1.016852  0  0.102312  0  0.101851  0.10814  0  1.021634  0
H  H24  1  0.63149561  0.16746890  0.52068661  1  0  0.331767  0  0.833049  0  0  0.317623  0  0.884773  0  0  0.325963  0  0.877679  0  0.517878  0  0.346173  0.311718  0  0.889775  0
H  H25  1  0.36851654  0.33252600  0.02067503  1  0  0.331771  0  0.833075  0  0  0.317652  0  0.884807  0  0  0.325994  0  0.877708  0  0.517832  0  0.346141  0.311745  0  0.889812  0
H  H26  1  0.36848098  0.83253370  0.47930832  1  0  0.33185  0  0.832885  0  0  0.317736  0  0.884628  0  0  0.326079  0  0.877522  0  0.517386  0  0.346156  0.311831  0  0.889632  0
H  H27  1  0.63151218  0.66747233  0.97930109  1  0  0.331796  0  0.832877  0  0  0.317651  0  0.884635  0  0  0.325994  0  0.877529  0  0.517548  0  0.346156  0.311744  0  0.889642  0
H  H28  1  0.06286931  0.61407509  0.82144067  1  0  0.443238  0  0.79957  0  0  0.429336  0  0.84673  0  0  0.437113  0  0.836848  0  0.652884  0  0.341665  0.424094  0  0.852548  0
H  H29  1  0.93715265  0.88592326  0.32143343  1  0  0.443241  0  0.799481  0  0  0.429347  0  0.846643  0  0  0.437122  0  0.836818  0  0.651624  0  0.341743  0.424105  0  0.852455  0
H  H30  1  0.93715017  0.38592495  0.17855933  1  0  0.443294  0  0.799418  0  0  0.429396  0  0.846571  0  0  0.437173  0  0.83674  0  0.652772  0  0.341744  0.424154  0  0.852386  0
H  H31  1  0.06287056  0.11408530  0.67855499  1  0  0.443259  0  0.799494  0  0  0.429354  0  0.846669  0  0  0.437135  0  0.836809  0  0.652868  0  0.341637  0.424109  0  0.852496  0
H  H32  1  0.01005576  0.49905423  0.77226492  1  0  0.445008  0  0.817555  0  0  0.418171  0  0.885825  0  0  0.426448  0  0.874197  0  0.646398  0  0.324877  0.412472  0  0.893993  0
H  H33  1  0.98994938  0.00093896  0.27223742  1  0  0.445065  0  0.817516  0  0  0.418218  0  0.885787  0  0  0.426496  0  0.874156  0  0.646777  0  0.32487  0.412519  0  0.893954  0
H  H34  1  0.98996464  0.50093728  0.22775245  1  0  0.444971  0  0.81764  0  0  0.41812  0  0.885923  0  0  0.426397  0  0.874295  0  0.646337  0  0.32481  0.412422  0  0.894089  0
H  H35  1  0.01004824  0.99906790  0.72773436  1  0  0.44505  0  0.817496  0  0  0.4182  0  0.885792  0  0  0.426477  0  0.874164  0  0.646494  0  0.324885  0.412503  0  0.893957  0
C  C36  1  0.30456230  0.31137161  0.75264571  1  0  0.721528  0  3.881485  0  0  0.673998  0  4.176384  0  0  0.711149  0  4.165262  0  1.633931  0  0.234131  0.649185  0  4.185807  0
C  C37  1  0.69544321  0.18863437  0.25264499  1  0  0.721555  0  3.881309  0  0  0.673908  0  4.176399  0  0  0.711061  0  4.165275  0  1.633557  0  0.234087  0.649086  0  4.185835  0
C  C38  1  0.69543391  0.68862672  0.24735936  1  0  0.721469  0  3.881717  0  0  0.674085  0  4.176332  0  0  0.71124  0  4.165201  0  1.633194  0  0.234077  0.649252  0  4.185789  0
C  C39  1  0.30454848  0.81136822  0.74735284  1  0  0.721734  0  3.881339  0  0  0.674068  0  4.176442  0  0  0.711223  0  4.165311  0  1.633575  0  0.234093  0.649251  0  4.185874  0
C  C40  1  0.55350462  0.09845468  0.65714834  1  0  0.372323  0  3.721053  0  0  0.338672  0  3.991728  0  0  0.354818  0  4.005351  0  0.966758  0  0.235449  0.328297  0  3.98305  0
C  C41  1  0.44650417  0.40154449  0.15713748  1  0  0.372084  0  3.720995  0  0  0.338607  0  3.991613  0  0  0.354746  0  4.005226  0  0.967095  0  0.235457  0.328231  0  3.982935  0
C  C42  1  0.44649744  0.90154536  0.34285239  1  0  0.371949  0  3.721226  0  0  0.338447  0  3.991817  0  0  0.354578  0  4.005442  0  0.966651  0  0.23543  0.328073  0  3.983133  0
C  C43  1  0.55349085  0.59845299  0.84284805  1  0  0.37213  0  3.721096  0  0  0.33854  0  3.991748  0  0  0.354685  0  4.005379  0  0.966763  0  0.235436  0.328166  0  3.983064  0
C  C44  1  0.40305955  0.24207340  0.68757689  1  0  0.000351  0  3.754474  0  0  -0.004256  0  4.013098  0  0  -0.006134  0  4.036173  0  0.449147  0  0.090196  -0.003338  0  4.000109  0
C  C45  1  0.59694342  0.25792491  0.18757110  1  0  0.000185  0  3.754529  0  0  -0.004327  0  4.013173  0  0  -0.006214  0  4.036238  0  0.449399  0  0.090169  -0.003406  0  4.000186  0
C  C46  1  0.59693200  0.75792408  0.31243035  1  0  0.000167  0  3.754752  0  0  -0.004403  0  4.013322  0  0  -0.006294  0  4.036386  0  0.449876  0  0.090143  -0.003473  0  4.000329  0
C  C47  1  0.40305400  0.74207513  0.81242601  1  0  3.8e-05  0  3.754765  0  0  -0.004458  0  4.01335  0  0  -0.006346  0  4.036418  0  0.449237  0  0.090154  -0.003536  0  4.000357  0
C  C48  1  0.46927123  0.26319794  0.59705687  1  0  0.015453  0  3.665007  0  0  0.001581  0  3.925896  0  0  -0.000231  0  3.943114  0  0.368799  0  0.097694  0.003026  0  3.91323  0
C  C49  1  0.53073648  0.23680378  0.09705397  1  0  0.015497  0  3.664672  0  0  0.001599  0  3.925806  0  0  -0.000184  0  3.942989  0  0.369188  0  0.097737  0.003045  0  3.913137  0
C  C50  1  0.53071354  0.73680636  0.40294241  1  0  0.015603  0  3.665101  0  0  0.001623  0  3.926191  0  0  -0.000156  0  3.943373  0  0.368653  0  0.097869  0.003068  0  3.913519  0
C  C51  1  0.46927488  0.76319626  0.90293735  1  0  0.015666  0  3.66513  0  0  0.001754  0  3.926028  0  0  -3.9e-05  0  3.94323  0  0.369618  0  0.097761  0.003197  0  3.913357  0
C  C52  1  0.45727023  0.35178626  0.52112732  1  0  0.711412  0  3.917658  0  0  0.662629  0  4.217454  0  0  0.699336  0  4.208208  0  1.655283  0  0.236344  0.638082  0  4.225798  0
C  C53  1  0.54273992  0.14821973  0.02111430  1  0  0.712011  0  3.916257  0  0  0.663018  0  4.216486  0  0  0.699719  0  4.207223  0  1.655311  0  0.236479  0.638468  0  4.22484  0
C  C54  1  0.54272402  0.64822486  0.47888570  1  0  0.71185  0  3.916636  0  0  0.663066  0  4.216554  0  0  0.699767  0  4.207291  0  1.655398  0  0.236549  0.638517  0  4.224906  0
C  C55  1  0.45727166  0.85178799  0.97887847  1  0  0.711395  0  3.9175  0  0  0.662578  0  4.217385  0  0  0.699278  0  4.208135  0  1.655378  0  0.236335  0.638032  0  4.225733  0
C  C56  1  0.64577688  0.99611541  0.66555223  1  0  -0.02078  0  3.814379  0  0  0.000613  0  4.048828  0  0  -0.002786  0  4.07149  0  0.028254  0  -0.011104  0.002776  0  4.032938  0
C  C57  1  0.35421952  0.50388209  0.16553269  1  0  -0.020544  0  3.814284  0  0  0.000592  0  4.048962  0  0  -0.002778  0  4.071568  0  0.027295  0  -0.011027  0.00276  0  4.033067  0
C  C58  1  0.35421711  0.00388634  0.33445646  1  0  -0.020647  0  3.814446  0  0  0.000641  0  4.048952  0  0  -0.002724  0  4.071566  0  0.027713  0  -0.011107  0.002805  0  4.033057  0
C  C59  1  0.64577326  0.49611795  0.83445212  1  0  -0.020673  0  3.814486  0  0  0.000615  0  4.049024  0  0  -0.002794  0  4.071699  0  0.027956  0  -0.011119  0.002776  0  4.033137  0
C  C60  1  0.79418270  0.84498583  0.59177051  1  0  -0.066461  0  3.778444  0  0  -0.077774  0  4.029862  0  0  -0.080241  0  4.050606  0  -0.095987  0  -0.092349  -0.076057  0  4.01537  0
C  C61  1  0.20579001  0.65499546  0.09176328  1  0  -0.066387  0  3.778273  0  0  -0.077762  0  4.029694  0  0  -0.080231  0  4.050444  0  -0.096206  0  -0.092393  -0.076041  0  4.015185  0
C  C62  1  0.20581917  0.15500738  0.40824179  1  0  -0.066263  0  3.77813  0  0  -0.077615  0  4.029474  0  0  -0.080083  0  4.050224  0  -0.095875  0  -0.092326  -0.075889  0  4.014968  0
C  C63  1  0.79417233  0.34499605  0.90823528  1  0  -0.066377  0  3.778477  0  0  -0.077707  0  4.029837  0  0  -0.080172  0  4.050578  0  -0.095799  0  -0.092356  -0.075985  0  4.015341  0
C  C64  1  0.68249793  0.95325912  0.75753911  1  0  -0.077894  0  3.704542  0  0  -0.103237  0  3.955689  0  0  -0.10449  0  3.976544  0  -0.067547  0  -0.076272  -0.102311  0  3.942015  0
C  C65  1  0.31750183  0.54673412  0.25752536  1  0  -0.078087  0  3.704488  0  0  -0.103276  0  3.955624  0  0  -0.104526  0  3.976451  0  -0.067114  0  -0.076322  -0.102361  0  3.941971  0
C  C66  1  0.31750525  0.04673922  0.24246450  1  0  -0.077767  0  3.704151  0  0  -0.102958  0  3.955296  0  0  -0.104217  0  3.976137  0  -0.067398  0  -0.076214  -0.102041  0  3.94164  0
C  C67  1  0.68249789  0.45326507  0.74246089  1  0  -0.077842  0  3.704312  0  0  -0.103055  0  3.955457  0  0  -0.1043  0  3.976308  0  -0.067369  0  -0.076226  -0.102137  0  3.941803  0
C  C68  1  0.70303334  0.94122913  0.58261401  1  0  -0.115872  0  3.761453  0  0  -0.141777  0  4.013475  0  0  -0.142968  0  4.034301  0  -0.014054  0  -0.098664  -0.140616  0  3.998988  0
C  C69  1  0.29694910  0.55876751  0.08260099  1  0  -0.116075  0  3.761827  0  0  -0.141911  0  4.01394  0  0  -0.143102  0  4.034747  0  -0.013584  0  -0.098799  -0.140732  0  3.999442  0
C  C70  1  0.29696047  0.05876664  0.41739178  1  0  -0.116193  0  3.761877  0  0  -0.14207  0  4.013951  0  0  -0.143271  0  4.034772  0  -0.013697  0  -0.09879  -0.140899  0  3.999447  0
C  C71  1  0.70303451  0.44123679  0.91738816  1  0  -0.116087  0  3.762052  0  0  -0.141981  0  4.014102  0  0  -0.143173  0  4.034937  0  -0.014097  0  -0.098727  -0.140823  0  3.999599  0
C  C72  1  0.82954161  0.80240500  0.68349471  1  0  -0.050088  0  3.70972  0  0  -0.067877  0  3.957599  0  0  -0.067449  0  3.975586  0  -0.051028  0  -0.083015  -0.06781  0  3.944859  0
C  C73  1  0.17042781  0.69758311  0.18348096  1  0  -0.050135  0  3.70927  0  0  -0.067917  0  3.957145  0  0  -0.067486  0  3.975136  0  -0.050202  0  -0.082951  -0.067831  0  3.944415  0
C  C74  1  0.17045606  0.19760356  0.31652193  1  0  -0.049911  0  3.708881  0  0  -0.067609  0  3.956795  0  0  -0.067177  0  3.974777  0  -0.051457  0  -0.08278  -0.067528  0  3.944063  0
C  C75  1  0.82954377  0.30240669  0.81651687  1  0  -0.049877  0  3.709166  0  0  -0.067543  0  3.957002  0  0  -0.067113  0  3.974986  0  -0.05113  0  -0.082752  -0.067461  0  3.944274  0
C  C76  1  0.77348782  0.85688107  0.76606747  1  0  -0.067665  0  3.744414  0  0  -0.078416  0  3.996404  0  0  -0.08073  0  4.016146  0  -0.066611  0  -0.089762  -0.076683  0  3.982247  0
C  C77  1  0.22649571  0.64311302  0.26605517  1  0  -0.067657  0  3.743874  0  0  -0.078422  0  3.995836  0  0  -0.080736  0  4.015577  0  -0.066872  0  -0.089819  -0.076688  0  3.981672  0
C  C78  1  0.22650407  0.14312835  0.23393687  1  0  -0.068065  0  3.74386  0  0  -0.078936  0  3.995972  0  0  -0.08125  0  4.015708  0  -0.066486  0  -0.089974  -0.077203  0  3.981816  0
C  C79  1  0.77349684  0.35687935  0.73393759  1  0  -0.068046  0  3.744169  0  0  -0.078851  0  3.99615  0  0  -0.081166  0  4.015888  0  -0.066693  0  -0.089945  -0.077114  0  3.98198  0
C  C80  1  0.98461946  0.44343538  0.52806001  1  0  0.560394  0  3.935165  0  0  0.520523  0  4.228297  0  0  0.549971  0  4.226741  0  1.584774  0  0.213872  0.50031  0  4.233858  0
C  C81  1  0.01542222  0.05657658  0.02805639  1  0  0.560316  0  3.935015  0  0  0.520389  0  4.228284  0  0  0.549833  0  4.226735  0  1.606433  0  0.214007  0.500179  0  4.23384  0
C  C82  1  0.01543271  0.55657063  0.47194940  1  0  0.560373  0  3.935146  0  0  0.520502  0  4.228297  0  0  0.549948  0  4.226745  0  1.607078  0  0.214124  0.500289  0  4.233853  0
C  C83  1  0.98459198  0.94344137  0.97195157  1  0  0.560439  0  3.934998  0  0  0.520539  0  4.228195  0  0  0.549987  0  4.226639  0  1.585401  0  0.213917  0.500325  0  4.233755  0
N  N84  1  0.56290078  0.17167505  0.58063263  1  0  -0.332226  0  3.403156  0  0  -0.278701  0  3.640336  0  0  -0.293381  0  3.651373  0  -1.262471  0  -0.362073  -0.268545  0  3.631858  0
N  N85  1  0.43711602  0.32831986  0.08062249  1  0  -0.332171  0  3.403325  0  0  -0.278751  0  3.64058  0  0  -0.293448  0  3.651629  0  -1.263097  0  -0.362072  -0.268594  0  3.6321  0
N  N86  1  0.43709289  0.82831561  0.41937099  1  0  -0.332224  0  3.403298  0  0  -0.278821  0  3.640577  0  0  -0.29351  0  3.651618  0  -1.262281  0  -0.362179  -0.268666  0  3.6321  0
N  N87  1  0.56289891  0.67168359  0.91936303  1  0  -0.332233  0  3.40319  0  0  -0.27871  0  3.640339  0  0  -0.293393  0  3.651374  0  -1.26276  0  -0.362057  -0.268558  0  3.631871  0
N  N88  1  0.45299861  0.13893073  0.72240893  1  0  -0.513491  0  3.130223  0  0  -0.473569  0  3.406005  0  0  -0.497929  0  3.423439  0  -1.190783  0  -0.377385  -0.462905  0  3.395647  0
N  N89  1  0.54700325  0.36106929  0.22240241  1  0  -0.513337  0  3.130027  0  0  -0.473442  0  3.405751  0  0  -0.497798  0  3.423188  0  -1.190558  0  -0.377357  -0.462776  0  3.39539  0
N  N90  1  0.54700106  0.86106675  0.27759397  1  0  -0.513269  0  3.130289  0  0  -0.473396  0  3.406043  0  0  -0.497747  0  3.423481  0  -1.190862  0  -0.377303  -0.462723  0  3.395677  0
N  N91  1  0.45298264  0.63893331  0.77758890  1  0  -0.513299  0  3.13024  0  0  -0.473413  0  3.406  0  0  -0.497768  0  3.423436  0  -1.191086  0  -0.377362  -0.46274  0  3.395634  0
O  O92  1  0.23196753  0.25789932  0.81917126  1  0  -0.692882  0  1.978118  0  0  -0.649672  0  2.226736  0  0  -0.681403  0  2.208945  0  -1.178961  0  -0.392457  -0.633633  0  2.235985  0
O  O93  1  0.76802980  0.24210496  0.31917488  1  0  -0.692854  0  1.978092  0  0  -0.649601  0  2.226753  0  0  -0.681332  0  2.208974  0  -1.178984  0  -0.392456  -0.633556  0  2.236004  0
O  O94  1  0.76801912  0.74208963  0.18083453  1  0  -0.692694  0  1.978532  0  0  -0.649556  0  2.227074  0  0  -0.681269  0  2.20927  0  -1.178915  0  -0.392321  -0.633499  0  2.236335  0
O  O95  1  0.23196791  0.75790531  0.68082657  1  0  -0.692841  0  1.978336  0  0  -0.649609  0  2.227035  0  0  -0.681328  0  2.209231  0  -1.178963  0  -0.392392  -0.633561  0  2.236292  0
O  O96  1  0.30422297  0.41869570  0.74269101  1  0  -0.748859  0  2.115424  0  0  -0.701942  0  2.380682  0  0  -0.737546  0  2.363721  0  -1.196807  0  -0.422465  -0.684069  0  2.388926  0
O  O97  1  0.69579405  0.08130688  0.24268595  1  0  -0.748895  0  2.115331  0  0  -0.701932  0  2.380609  0  0  -0.737533  0  2.363647  0  -1.196593  0  -0.422476  -0.684063  0  2.388869  0
O  O98  1  0.69576496  0.58129751  0.25732202  1  0  -0.748956  0  2.115218  0  0  -0.70207  0  2.380361  0  0  -0.73768  0  2.3634  0  -1.196411  0  -0.422601  -0.684214  0  2.388641  0
O  O99  1  0.30421286  0.91869998  0.75731478  1  0  -0.749042  0  2.115152  0  0  -0.702077  0  2.380473  0  0  -0.737691  0  2.363508  0  -1.196604  0  -0.422535  -0.684214  0  2.388717  0
O  O100  1  0.36699099  0.43401931  0.53296282  1  0  -0.72736  0  2.096726  0  0  -0.676425  0  2.352965  0  0  -0.712311  0  2.33952  0  -1.201384  0  -0.398776  -0.658545  0  2.359272  0
O  O101  1  0.63303144  0.06596962  0.03295920  1  0  -0.727793  0  2.096207  0  0  -0.676751  0  2.352522  0  0  -0.712661  0  2.33912  0  -1.201433  0  -0.398903  -0.658866  0  2.35883  0
O  O102  1  0.63302825  0.56597220  0.46704369  1  0  -0.72769  0  2.096196  0  0  -0.676704  0  2.352391  0  0  -0.712626  0  2.338999  0  -1.201264  0  -0.398917  -0.658825  0  2.358693  0
O  O103  1  0.36699382  0.93402956  0.96704152  1  0  -0.727421  0  2.096712  0  0  -0.676438  0  2.352907  0  0  -0.712348  0  2.339503  0  -1.201423  0  -0.398782  -0.658567  0  2.359212  0
O  O104  1  0.54038019  0.33562688  0.44629340  1  0  -0.733332  0  2.043483  0  0  -0.688168  0  2.304676  0  0  -0.723168  0  2.289664  0  -1.198725  0  -0.406858  -0.67077  0  2.311983  0
O  O105  1  0.45965303  0.16437399  0.94628182  1  0  -0.733541  0  2.043443  0  0  -0.688261  0  2.30473  0  0  -0.723258  0  2.289711  0  -1.198699  0  -0.406831  -0.670869  0  2.312046  0
O  O106  1  0.45964176  0.66437827  0.55371745  1  0  -0.733579  0  2.043697  0  0  -0.688377  0  2.304898  0  0  -0.723369  0  2.289874  0  -1.198835  0  -0.406952  -0.670974  0  2.312216  0
O  O107  1  0.54037337  0.83562434  0.05370587  1  0  -0.733288  0  2.043641  0  0  -0.688113  0  2.304852  0  0  -0.723102  0  2.289839  0  -1.198759  0  -0.406825  -0.67071  0  2.312166  0
O  O108  1  0.06147782  0.42901321  0.60462565  1  0  -0.65213  0  2.070487  0  0  -0.604976  0  2.310946  0  0  -0.636125  0  2.301758  0  -1.175986  0  -0.367609  -0.588363  0  2.315326  0
O  O109  1  0.93853132  0.07099790  0.10463650  1  0  -0.652351  0  2.069575  0  0  -0.605165  0  2.310033  0  0  -0.636318  0  2.300848  0  -1.175628  0  -0.367763  -0.588543  0  2.314406  0
O  O110  1  0.93854063  0.57099109  0.39536639  1  0  -0.652385  0  2.069609  0  0  -0.605204  0  2.310003  0  0  -0.636365  0  2.300821  0  -1.175814  0  -0.367836  -0.58859  0  2.314379  0
O  O111  1  0.06145970  0.92902176  0.89537146  1  0  -0.652344  0  2.06997  0  0  -0.605166  0  2.310421  0  0  -0.636324  0  2.30123  0  -1.17598  0  -0.367704  -0.588559  0  2.3148  0
O  O112  1  0.05018157  0.57620528  0.75927446  1  0  -0.862036  0  1.874309  0  0  -0.819679  0  2.064202  0  0  -0.845135  0  2.033247  0  -1.263764  0  -0.591771  -0.807754  0  2.080562  0
O  O113  1  0.94982735  0.92378369  0.25925998  1  0  -0.862079  0  1.874248  0  0  -0.819727  0  2.064116  0  0  -0.845174  0  2.033202  0  -1.262932  0  -0.591858  -0.807807  0  2.080486  0
O  O114  1  0.94981918  0.42378964  0.24073206  1  0  -0.862057  0  1.874257  0  0  -0.81969  0  2.064141  0  0  -0.845142  0  2.033229  0  -1.263621  0  -0.591807  -0.807766  0  2.08048  0
O  O115  1  0.05018521  0.07621805  0.74072265  1  0  -0.862107  0  1.874169  0  0  -0.819728  0  2.064031  0  0  -0.845181  0  2.033091  0  -1.263836  0  -0.591758  -0.807804  0  2.080368  0
O  O116  1  0.88411658  0.37450985  0.49234003  1  0  -0.667905  0  2.001775  0  0  -0.625746  0  2.245505  0  0  -0.65725  0  2.230883  0  -1.182717  0  -0.388716  -0.610174  0  2.252943  0
O  O117  1  0.11590953  0.12548590  0.99235234  1  0  -0.667577  0  2.002521  0  0  -0.625377  0  2.246251  0  0  -0.656872  0  2.231626  0  -1.183146  0  -0.388635  -0.609815  0  2.253691  0
O  O118  1  0.11592459  0.62547739  0.50764911  1  0  -0.66758  0  2.002674  0  0  -0.625398  0  2.246384  0  0  -0.656892  0  2.23176  0  -1.183253  0  -0.388653  -0.609824  0  2.253826  0
O  O119  1  0.88409750  0.87452522  0.00766069  1  0  -0.667699  0  2.00218  0  0  -0.625513  0  2.245916  0  0  -0.657007  0  2.231292  0  -1.182951  0  -0.38865  -0.609936  0  2.25336  0
