# generated using pymatgen
data_ZnH13C15N7O
_symmetry_space_group_name_H-M   'P 1'
_cell_length_a   7.78952231
_cell_length_b   8.73044439
_cell_length_c   13.68166153
_cell_angle_alpha   89.99766027
_cell_angle_beta   90.00048871
_cell_angle_gamma   114.46706821
_symmetry_Int_Tables_number   1
_chemical_formula_structural   ZnH13C15N7O
_chemical_formula_sum   'Zn2 H26 C30 N14 O2'
_cell_volume   846.88140538
_cell_formula_units_Z   2
loop_
 _symmetry_equiv_pos_site_id
 _symmetry_equiv_pos_as_xyz
  1  'x, y, z'
loop_
 _atom_site_type_symbol
 _atom_site_label
 _atom_site_symmetry_multiplicity
 _atom_site_fract_x
 _atom_site_fract_y
 _atom_site_fract_z
 _atom_site_occupancy
 _atom_site_hle17_bader_spin_density
 _atom_site_hle17_ddec_charge
 _atom_site_hle17_ddec_spin_density
 _atom_site_hle17_ddec_sum_bond_order
 _atom_site_hle17_magmom
 _atom_site_hse06_10hf_bader_spin_density
 _atom_site_hse06_10hf_ddec_charge
 _atom_site_hse06_10hf_ddec_spin_density
 _atom_site_hse06_10hf_ddec_sum_bond_order
 _atom_site_hse06_10hf_magmom
 _atom_site_hse06_bader_spin_density
 _atom_site_hse06_ddec_charge
 _atom_site_hse06_ddec_spin_density
 _atom_site_hse06_ddec_sum_bond_order
 _atom_site_hse06_magmom
 _atom_site_pbe_bader_spin_density
 _atom_site_pbe_cm5_charge
 _atom_site_pbe_ddec_charge
 _atom_site_pbe_ddec_spin_density
 _atom_site_pbe_ddec_sum_bond_order
 _atom_site_pbe_magmom
Zn  Zn0  1  0.86764893  0.72711181  0.75915968  1  0  1.03845  0  1.998907  0  0  0.856207  0  2.495227  0  0  0.899265  0  2.440185  0  0  0.74002  0.826574  0  2.532769  0
Zn  Zn1  1  0.13236179  0.27289169  0.25914802  1  0  1.038442  0  1.998893  0  0  0.856211  0  2.495223  0  0  0.89927  0  2.440173  0  0  0.740052  0.826589  0  2.532777  0
H  H2  1  0.78453400  0.25440843  0.74212575  1  0  0.294677  0  0.853365  0  0  0.286233  0  0.901035  0  0  0.292577  0  0.896905  0  0  0.343411  0.281566  0  0.904273  0
H  H3  1  0.21545656  0.74559473  0.24212396  1  0  0.294659  0  0.853414  0  0  0.286244  0  0.901031  0  0  0.292588  0  0.896901  0  0  0.34341  0.281584  0  0.904263  0
H  H4  1  0.51796776  0.23816651  0.81269012  1  0  0.063569  0  0.922637  0  0  0.078876  0  0.983333  0  0  0.082086  0  0.97796  0  0  0.116123  0.076463  0  0.987244  0
H  H5  1  0.48202023  0.76182671  0.31269449  1  0  0.063475  0  0.922549  0  0  0.078831  0  0.983203  0  0  0.08204  0  0.97783  0  0  0.116101  0.076417  0  0.987115  0
H  H6  1  0.23926077  0.18936229  0.88119357  1  0  0.069671  0  1.002563  0  0  0.08022  0  1.069536  0  0  0.08187  0  1.068766  0  0  0.089769  0.079004  0  1.070039  0
H  H7  1  0.76071383  0.81061994  0.38120291  1  0  0.069729  0  1.002474  0  0  0.080282  0  1.069442  0  0  0.081908  0  1.068696  0  0  0.089798  0.079067  0  1.069944  0
H  H8  1  0.00694657  0.27557844  0.96183724  1  0  0.085547  0  0.962775  0  0  0.097984  0  1.020838  0  0  0.100531  0  1.021246  0  0  0.090103  0.096208  0  1.020627  0
H  H9  1  0.99302634  0.72439779  0.46184228  1  0  0.085532  0  0.962871  0  0  0.097993  0  1.020914  0  0  0.100539  0  1.021322  0  0  0.090107  0.096216  0  1.020696  0
H  H10  1  0.07734449  0.58208242  0.97248038  1  0  0.079273  0  0.961952  0  0  0.090101  0  1.024774  0  0  0.092006  0  1.023927  0  0  0.091904  0.088748  0  1.025322  0
H  H11  1  0.92263984  0.41789539  0.47248385  1  0  0.079259  0  0.962173  0  0  0.090034  0  1.025034  0  0  0.091938  0  1.024187  0  0  0.091932  0.088686  0  1.025576  0
H  H12  1  0.37683861  0.79578259  0.90433478  1  0  0.097952  0  0.96434  0  0  0.10842  0  1.025917  0  0  0.11204  0  1.024228  0  0  0.092969  0.105829  0  1.0273  0
H  H13  1  0.62315504  0.20419979  0.40433678  1  0  0.097862  0  0.96454  0  0  0.108401  0  1.026024  0  0  0.112034  0  1.024322  0  0  0.092991  0.105802  0  1.027418  0
H  H14  1  0.34870264  0.26197814  0.63771084  1  0  0.120678  0  0.949468  0  0  0.142826  0  1.008857  0  0  0.144031  0  1.008745  0  0  0.095872  0.141958  0  1.008911  0
H  H15  1  0.65128766  0.73802895  0.13771263  1  0  0.120606  0  0.949516  0  0  0.142782  0  1.008879  0  0  0.14399  0  1.008767  0  0  0.095846  0.141915  0  1.008934  0
H  H16  1  0.50917274  0.43567154  0.56733357  1  0  0.121203  0  0.959516  0  0  0.140291  0  1.021172  0  0  0.14149  0  1.022497  0  0  0.092539  0.139407  0  1.020298  0
H  H17  1  0.49081607  0.56433913  0.06734091  1  0  0.121227  0  0.959488  0  0  0.140295  0  1.02117  0  0  0.1415  0  1.02249  0  0  0.092542  0.139411  0  1.020293  0
H  H18  1  0.29470364  0.29049513  0.51531260  1  0  0.134196  0  0.938311  0  0  0.155978  0  0.9949  0  0  0.157709  0  0.994762  0  0  0.100009  0.154755  0  0.994972  0
H  H19  1  0.70527257  0.70952712  0.01531019  1  0  0.134114  0  0.938461  0  0  0.155969  0  0.994943  0  0  0.157715  0  0.99479  0  0  0.099998  0.154746  0  0.995011  0
H  H20  1  0.47423627  0.70312417  0.57558487  1  0  0.124814  0  0.966572  0  0  0.13316  0  1.030281  0  0  0.136145  0  1.031304  0  0  0.10335  0.131056  0  1.029739  0
H  H21  1  0.52577780  0.29689643  0.07557810  1  0  0.124844  0  0.966667  0  0  0.133181  0  1.030357  0  0  0.136158  0  1.031406  0  0  0.103389  0.131083  0  1.029818  0
H  H22  1  0.32881905  0.95840386  0.71772138  1  0  0.123404  0  0.938223  0  0  0.142474  0  1.002103  0  0  0.144197  0  1.000996  0  0  0.097469  0.141244  0  1.002897  0
H  H23  1  0.67120590  0.04160696  0.21770312  1  0  0.123054  0  0.938212  0  0  0.142206  0  1.002054  0  0  0.143927  0  1.00095  0  0  0.09732  0.140982  0  1.002846  0
H  H24  1  0.20805618  0.94986506  0.60767504  1  0  0.125617  0  0.954014  0  0  0.146865  0  1.012959  0  0  0.148001  0  1.013319  0  0  0.098856  0.146061  0  1.012707  0
H  H25  1  0.79197585  0.05016109  0.10765558  1  0  0.125657  0  0.953949  0  0  0.146854  0  1.012955  0  0  0.148017  0  1.01329  0  0  0.098778  0.146039  0  1.012712  0
H  H26  1  0.44457455  0.96554871  0.60338414  1  0  0.124423  0  0.950326  0  0  0.141987  0  1.012561  0  0  0.144447  0  1.011266  0  0  0.093526  0.140229  0  1.013468  0
H  H27  1  0.55545478  0.03447463  0.10336346  1  0  0.124373  0  0.95024  0  0  0.141948  0  1.012485  0  0  0.144408  0  1.011192  0  0  0.093544  0.140197  0  1.01339  0
C  C28  1  0.16037782  0.03848567  0.08957331  1  0  0.533356  0  3.978035  0  0  0.489326  0  4.268084  0  0  0.515791  0  4.276903  0  0  0.328628  0.471201  0  4.26205  0
C  C29  1  0.83962938  0.96151788  0.58957530  1  0  0.533282  0  3.97824  0  0  0.489254  0  4.268291  0  0  0.515715  0  4.277118  0  0  0.328596  0.471126  0  4.262237  0
C  C30  1  0.11290363  0.90293290  0.94268432  1  0  0.528315  0  3.978249  0  0  0.488526  0  4.26148  0  0  0.514474  0  4.271567  0  0  0.329051  0.470764  0  4.254559  0
C  C31  1  0.88710282  0.09704851  0.44267384  1  0  0.527958  0  3.978352  0  0  0.488173  0  4.261629  0  0  0.514122  0  4.271718  0  0  0.328856  0.47041  0  4.254717  0
C  C32  1  0.00194203  0.46857880  0.69176431  1  0  0.546629  0  3.870853  0  0  0.498369  0  4.158245  0  0  0.523646  0  4.166902  0  0  0.347017  0.481602  0  4.151886  0
C  C33  1  0.99806572  0.53142757  0.19175495  1  0  0.546657  0  3.870722  0  0  0.498492  0  4.158047  0  0  0.523779  0  4.166684  0  0  0.347063  0.481721  0  4.151703  0
C  C34  1  0.56600284  0.37587563  0.80992283  1  0  0.10191  0  3.731375  0  0  0.056288  0  3.992665  0  0  0.072019  0  4.003027  0  0  0.059622  0.046156  0  3.98536  0
C  C35  1  0.43399050  0.62411834  0.30992152  1  0  0.102106  0  3.731026  0  0  0.056486  0  3.99235  0  0  0.072221  0  4.002707  0  0  0.059697  0.046361  0  3.985037  0
C  C36  1  0.44151991  0.44124421  0.85064742  1  0  -0.120264  0  3.829629  0  0  -0.096885  0  4.065265  0  0  -0.112331  0  4.094499  0  0  -0.042956  -0.086878  0  4.045448  0
C  C37  1  0.55847515  0.55874674  0.35064757  1  0  -0.120302  0  3.829503  0  0  -0.096956  0  4.065235  0  0  -0.112407  0  4.094465  0  0  -0.042978  -0.086952  0  4.045418  0
C  C38  1  0.26867344  0.32214892  0.88881316  1  0  -0.082857  0  3.806089  0  0  -0.106865  0  4.059667  0  0  -0.102712  0  4.081972  0  0  -0.099887  -0.109057  0  4.044173  0
C  C39  1  0.73129666  0.67782524  0.38881540  1  0  -0.083007  0  3.806236  0  0  -0.107006  0  4.059864  0  0  -0.102832  0  4.082184  0  0  -0.09994  -0.109203  0  4.044362  0
C  C40  1  0.13828830  0.36957000  0.93253491  1  0  -0.133549  0  3.834243  0  0  -0.153238  0  4.102307  0  0  -0.161475  0  4.125698  0  0  -0.128714  -0.147928  0  4.086246  0
C  C41  1  0.86170202  0.63041955  0.43254062  1  0  -0.13344  0  3.833688  0  0  -0.153153  0  4.101743  0  0  -0.161392  0  4.125128  0  0  -0.128651  -0.147829  0  4.085667  0
C  C42  1  0.17844728  0.54229135  0.93799310  1  0  -0.02638  0  3.791348  0  0  -0.04723  0  4.053675  0  0  -0.041162  0  4.071644  0  0  -0.098496  -0.050766  0  4.041039  0
C  C43  1  0.82154243  0.45767578  0.43799485  1  0  -0.026396  0  3.790978  0  0  -0.04719  0  4.053353  0  0  -0.041119  0  4.071327  0  0  -0.098594  -0.050732  0  4.040711  0
C  C44  1  0.34413323  0.66199803  0.89993410  1  0  -0.211975  0  3.733003  0  0  -0.229006  0  3.987398  0  0  -0.239097  0  4.007243  0  0  -0.119911  -0.222412  0  3.973912  0
C  C45  1  0.65585327  0.33798021  0.39993151  1  0  -0.211941  0  3.733093  0  0  -0.22902  0  3.987478  0  0  -0.239125  0  4.007317  0  0  -0.119902  -0.222427  0  3.97401  0
C  C46  1  0.48297000  0.61839575  0.85516573  1  0  0.355379  0  3.877438  0  0  0.34076  0  4.131226  0  0  0.360146  0  4.145869  0  0  0.089702  0.327827  0  4.120809  0
C  C47  1  0.51701799  0.38158155  0.35516106  1  0  0.355433  0  3.877102  0  0  0.340754  0  4.131017  0  0  0.360143  0  4.145662  0  0  0.08968  0.32783  0  4.12059  0
C  C48  1  0.25937887  0.45968874  0.61821307  1  0  0.393616  0  3.73376  0  0  0.396839  0  3.98884  0  0  0.412716  0  4.003264  0  0  0.139886  0.3865  0  3.978743  0
C  C49  1  0.74062088  0.54032427  0.11820782  1  0  0.393813  0  3.73316  0  0  0.396843  0  3.988556  0  0  0.412719  0  4.002981  0  0  0.139893  0.386513  0  3.978449  0
C  C50  1  0.36043406  0.35752061  0.58291639  1  0  -0.380481  0  3.679842  0  0  -0.460196  0  3.908432  0  0  -0.464287  0  3.915054  0  0  -0.238594  -0.457156  0  3.903651  0
C  C51  1  0.63955587  0.64249400  0.08291878  1  0  -0.380518  0  3.679947  0  0  -0.460225  0  3.908551  0  0  -0.464336  0  3.915158  0  0  -0.238609  -0.457187  0  3.903764  0
C  C52  1  0.33607832  0.63558656  0.60849248  1  0  -0.324142  0  3.650307  0  0  -0.345818  0  3.889811  0  0  -0.361997  0  3.911349  0  0  -0.106862  -0.335569  0  3.875526  0
C  C53  1  0.66392644  0.36443003  0.10848048  1  0  -0.324144  0  3.650088  0  0  -0.345799  0  3.889613  0  0  -0.361981  0  3.911142  0  0  -0.106883  -0.335547  0  3.875327  0
C  C54  1  0.23478469  0.72220742  0.64513816  1  0  0.396202  0  3.719947  0  0  0.397875  0  3.964998  0  0  0.412889  0  3.981863  0  0  0.138413  0.38811  0  3.953243  0
C  C55  1  0.76523556  0.27780865  0.14512122  1  0  0.395988  0  3.720059  0  0  0.397817  0  3.964989  0  0  0.412828  0  3.981848  0  0  0.138288  0.388053  0  3.953245  0
C  C56  1  0.30980570  0.90985006  0.64239499  1  0  -0.378826  0  3.688156  0  0  -0.455788  0  3.916046  0  0  -0.459192  0  3.921291  0  0  -0.23556  -0.453254  0  3.912224  0
C  C57  1  0.69022191  0.09017429  0.14237237  1  0  -0.378398  0  3.687877  0  0  -0.45544  0  3.915716  0  0  -0.458867  0  3.920938  0  0  -0.235296  -0.452888  0  3.911906  0
N  N58  1  0.20197350  0.95294028  0.02407567  1  0  -0.466567  0  3.284173  0  0  -0.415228  0  3.550387  0  0  -0.439435  0  3.554267  0  0  -0.304345  -0.398482  0  3.547229  0
N  N59  1  0.79803901  0.04704972  0.52406546  1  0  -0.466395  0  3.284151  0  0  -0.415062  0  3.550381  0  0  -0.439271  0  3.554265  0  0  -0.304277  -0.398318  0  3.547229  0
N  N60  1  0.04727343  0.85494903  0.86517196  1  0  -0.589517  0  2.906139  0  0  -0.537396  0  3.212077  0  0  -0.558925  0  3.210401  0  0  -0.379557  -0.522913  0  3.213327  0
N  N61  1  0.95272975  0.14502386  0.36515898  1  0  -0.589239  0  2.906052  0  0  -0.53711  0  3.21194  0  0  -0.558641  0  3.210273  0  0  -0.379429  -0.522628  0  3.213198  0
N  N62  1  0.06384697  0.63733361  0.68707008  1  0  -0.524889  0  3.121539  0  0  -0.456838  0  3.388625  0  0  -0.481807  0  3.399247  0  0  -0.330262  -0.4402  0  3.381198  0
N  N63  1  0.93616806  0.36268396  0.18705265  1  0  -0.524872  0  3.12189  0  0  -0.456899  0  3.388856  0  0  -0.481864  0  3.399469  0  0  -0.330208  -0.440272  0  3.381451  0
N  N64  1  0.82931361  0.38116807  0.73356148  1  0  -0.301444  0  3.412255  0  0  -0.257172  0  3.659059  0  0  -0.27621  0  3.673233  0  0  -0.293129  -0.244015  0  3.649  0
N  N65  1  0.17068893  0.61883983  0.23355362  1  0  -0.301365  0  3.412333  0  0  -0.257117  0  3.659125  0  0  -0.276164  0  3.67331  0  0  -0.293101  -0.24396  0  3.649064  0
N  N66  1  0.72975876  0.46442482  0.76999952  1  0  -0.210012  0  3.314015  0  0  -0.146471  0  3.605045  0  0  -0.158587  0  3.617039  0  0  -0.2377  -0.138538  0  3.596717  0
N  N67  1  0.27023651  0.53557458  0.26999269  1  0  -0.210106  0  3.314051  0  0  -0.146637  0  3.605187  0  0  -0.158754  0  3.617181  0  0  -0.23774  -0.138701  0  3.596848  0
N  N68  1  0.09046310  0.37540739  0.65993961  1  0  -0.490838  0  2.973529  0  0  -0.465378  0  3.248255  0  0  -0.484881  0  3.258219  0  0  -0.331408  -0.452511  0  3.241398  0
N  N69  1  0.90953589  0.62460853  0.15993387  1  0  -0.49088  0  2.973166  0  0  -0.465424  0  3.24799  0  0  -0.484935  0  3.257953  0  0  -0.331429  -0.452552  0  3.24113  0
N  N70  1  0.13589176  0.11805851  0.15282286  1  0  -0.585866  0  2.932147  0  0  -0.531724  0  3.242361  0  0  -0.552728  0  3.239267  0  0  -0.378371  -0.517633  0  3.244651  0
N  N71  1  0.86411673  0.88195925  0.65283304  1  0  -0.585839  0  2.932281  0  0  -0.531691  0  3.242478  0  0  -0.552696  0  3.239386  0  0  -0.378372  -0.517595  0  3.24475  0
O  O72  1  0.63791483  0.73732030  0.82310456  1  0  -0.631281  0  2.068642  0  0  -0.564401  0  2.328296  0  0  -0.593268  0  2.320727  0  0  -0.352497  -0.544007  0  2.33259  0
O  O73  1  0.36208813  0.26267090  0.32309989  1  0  -0.631216  0  2.068671  0  0  -0.564291  0  2.32833  0  0  -0.593155  0  2.320761  0  0  -0.352464  -0.543902  0  2.332625  0
