# generated using pymatgen
data_Zn2H19C26N3O8
_symmetry_space_group_name_H-M   'P 1'
_cell_length_a   9.74862900
_cell_length_b   10.89724628
_cell_length_c   11.09468564
_cell_angle_alpha   83.84722313
_cell_angle_beta   90.66908606
_cell_angle_gamma   92.39021376
_symmetry_Int_Tables_number   1
_chemical_formula_structural   Zn2H19C26N3O8
_chemical_formula_sum   'Zn2 H19 C26 N3 O8'
_cell_volume   1170.78442994
_cell_formula_units_Z   1
loop_
 _symmetry_equiv_pos_site_id
 _symmetry_equiv_pos_as_xyz
  1  'x, y, z'
loop_
 _atom_site_type_symbol
 _atom_site_label
 _atom_site_symmetry_multiplicity
 _atom_site_fract_x
 _atom_site_fract_y
 _atom_site_fract_z
 _atom_site_occupancy
 _atom_site_pbe_bader_charge
 _atom_site_pbe_bader_spin_density
 _atom_site_pbe_cm5_charge
 _atom_site_pbe_ddec_charge
 _atom_site_pbe_ddec_spin_density
 _atom_site_pbe_ddec_sum_bond_order
 _atom_site_pbe_magmom
Zn  Zn0  1  0.63794845  0.50661549  0.50204353  1  1.280458  0  0.660705  0.80675  0  2.43114  0
Zn  Zn1  1  0.35393055  0.49933617  0.49931693  1  1.278243  0  0.661317  0.811781  0  2.434902  0
H  H2  1  0.67323631  0.06092777  0.64125740  1  0.046301  0  0.095961  0.084366  0  0.996136  0
H  H3  1  0.81432150  0.42591798  0.12796721  1  0.046014  0  0.09367  0.101267  0  0.987504  0
H  H4  1  0.82206739  0.59615367  0.88754990  1  0.00978  0  0.088872  0.090243  0  1.011723  0
H  H5  1  0.81884196  0.43152472  0.89961887  1  0.051839  0  0.095285  0.105737  0  0.983764  0
H  H6  1  0.11495340  0.31414401  0.47689287  1  0.151371  0  0.135133  0.118702  0  0.976894  0
H  H7  1  0.85472055  0.31583250  0.47831122  1  0.156704  0  0.133893  0.119052  0  0.981571  0
H  H8  1  0.89784223  0.79520096  0.45714478  1  0.080535  0  0.117636  0.076003  0  0.951486  0
H  H9  1  0.13237724  0.73992106  0.64160646  1  0.096278  0  0.116774  0.148414  0  0.950292  0
H  H10  1  0.71673818  0.95999890  0.41928785  1  0.065784  0  0.092983  0.077778  0  1.00792  0
H  H11  1  0.31155319  0.94647816  0.35722770  1  0.064034  0  0.093977  0.077848  0  1.002683  0
H  H12  1  0.26726598  0.04698231  0.58100187  1  0.054838  0  0.093858  0.080387  0  1.000784  0
H  H13  1  0.45761198  0.87980314  0.69532061  1  0.056862  0  0.097934  0.084608  0  0.990748  0
H  H14  1  0.27913691  0.50233291  0.88425374  1  0.093356  0  0.098568  0.104748  0  1.007075  0
H  H15  1  0.27583156  0.49750975  0.10945911  1  0.088117  0  0.099674  0.106256  0  1.003873  0
H  H16  1  0.81931573  0.59045088  0.11448766  1  0.058143  0  0.093515  0.102886  0  0.985242  0
H  H17  1  0.87768046  0.71671081  0.71828799  1  0.387104  0  0.277754  0.257614  0  0.996757  0
H  H18  1  0.75576982  0.76844905  0.62491289  1  0.465484  0  0.282125  0.286582  0  0.984993  0
H  H19  1  0.15306223  0.79308742  0.48479780  1  0.103803  0  0.109969  0.141846  0  0.992098  0
H  H20  1  0.52682736  0.12746799  0.30429780  1  0.095617  0  0.099268  0.086546  0  0.989835  0
C  C21  1  0.49963064  0.50804107  0.73604894  1  1.546341  0  0.211159  0.594167  0  4.188342  0
C  C22  1  0.36668783  0.02691732  0.54439140  1  -0.035124  0  -0.082181  -0.074178  0  3.656045  0
C  C23  1  0.47262691  0.93681117  0.60868946  1  -0.021003  0  -0.072906  -0.064361  0  3.619736  0
C  C24  1  0.49689894  0.88194146  0.48415543  1  0.019162  0  -0.010956  -0.033291  0  3.658018  0
C  C25  1  0.61915166  0.50842806  0.94010029  1  -0.011467  0  -0.008049  0.057451  0  3.888028  0
C  C26  1  0.49910231  0.50706833  0.87064499  1  0.037868  0  -0.017151  -0.076367  0  3.980101  0
C  C27  1  0.37510546  0.50365257  0.93561945  1  -0.060278  0  -0.091403  -0.108495  0  4.003756  0
C  C28  1  0.37327903  0.50118366  0.06160233  1  -0.070871  0  -0.089801  -0.105377  0  3.998725  0
C  C29  1  0.49542328  0.50325130  0.13107580  1  -0.044483  0  -0.015987  -0.074444  0  3.97627  0
C  C30  1  0.61733810  0.50687577  0.06618101  1  -0.016723  0  -0.006989  0.060526  0  3.887356  0
C  C31  1  0.77251617  0.50872440  0.07782284  1  -0.010403  0  -0.154077  -0.196928  0  3.892328  0
C  C32  1  0.49951771  0.74635634  0.47908192  1  1.544222  0  0.213099  0.586675  0  4.193225  0
C  C33  1  0.77467182  0.51142794  0.93503093  1  -0.037693  0  -0.155324  -0.19644  0  3.895744  0
C  C34  1  0.07347958  0.59883596  0.52181471  1  0.565678  0  0.146287  0.211327  0  3.886619  0
C  C35  1  0.06136794  0.39786669  0.48864338  1  0.464875  0  0.065461  0.043625  0  3.864345  0
C  C36  1  0.91817195  0.39885863  0.48874753  1  0.43813  0  0.064841  0.041726  0  3.863189  0
C  C37  1  0.93066014  0.60089223  0.51744160  1  0.532085  0  0.13662  0.104193  0  3.8372  0
C  C38  1  0.92951366  0.73782187  0.53960414  1  0.392428  0  0.023686  0.14129  0  3.892633  0
C  C39  1  0.09230048  0.73101631  0.54982985  1  -0.048051  0  -0.139227  -0.292263  0  3.797453  0
C  C40  1  0.49277840  0.50186906  0.26567087  1  1.585977  0  0.212195  0.595531  0  4.184758  0
C  C41  1  0.48662856  0.26081794  0.52066928  1  1.566403  0  0.213819  0.59589  0  4.185393  0
C  C42  1  0.61707015  0.98031064  0.45525066  1  -0.056848  0  -0.081295  -0.072024  0  3.656332  0
C  C43  1  0.59297519  0.03448251  0.57815331  1  0.008224  0  -0.078448  -0.06872  0  3.644569  0
C  C44  1  0.48644110  0.12523711  0.51490002  1  -0.029232  0  -0.008584  -0.026736  0  3.647031  0
C  C45  1  0.51152700  0.07046796  0.39083668  1  -0.066511  0  -0.07214  -0.060156  0  3.618773  0
C  C46  1  0.39101589  0.97280431  0.42118374  1  -0.03285  0  -0.079747  -0.07024  0  3.65566  0
N  N47  1  0.14244912  0.49961696  0.50464759  1  -1.199114  0  -0.286595  -0.178021  0  3.452953  0
N  N48  1  0.84967217  0.50274760  0.50192237  1  -1.212163  0  -0.286359  -0.160661  0  3.471237  0
N  N49  1  0.85919561  0.77549194  0.64225884  1  -1.143867  0  -0.634555  -0.632109  0  3.182341  0
O  O50  1  0.61608012  0.49960344  0.68690702  1  -1.15859  0  -0.319605  -0.547935  0  2.312933  0
O  O51  1  0.38470895  0.51729377  0.68038146  1  -1.174377  0  -0.322582  -0.556265  0  2.324572  0
O  O52  1  0.61564800  0.69680036  0.49667441  1  -1.175447  0  -0.31273  -0.553817  0  2.339819  0
O  O53  1  0.38533035  0.68922347  0.46308272  1  -1.168308  0  -0.314997  -0.544149  0  2.323061  0
O  O54  1  0.60834792  0.51835488  0.31808984  1  -1.166408  0  -0.318675  -0.547384  0  2.315397  0
O  O55  1  0.37672410  0.48443700  0.31777322  1  -1.162007  0  -0.322675  -0.550476  0  2.313511  0
O  O56  1  0.60385518  0.31761950  0.51091590  1  -1.167145  0  -0.321866  -0.559801  0  2.319878  0
O  O57  1  0.37158463  0.31026091  0.53033942  1  -1.163099  0  -0.321135  -0.551179  0  2.300836  0
