# generated using pymatgen
data_ZnH20C24(NO2)2
_symmetry_space_group_name_H-M   'P 1'
_cell_length_a   8.57482506
_cell_length_b   11.44997164
_cell_length_c   12.93546214
_cell_angle_alpha   114.16671541
_cell_angle_beta   99.39826864
_cell_angle_gamma   101.29610845
_symmetry_Int_Tables_number   1
_chemical_formula_structural   ZnH20C24(NO2)2
_chemical_formula_sum   'Zn2 H40 C48 N4 O8'
_cell_volume   1093.38065405
_cell_formula_units_Z   2
loop_
 _symmetry_equiv_pos_site_id
 _symmetry_equiv_pos_as_xyz
  1  'x, y, z'
loop_
 _atom_site_type_symbol
 _atom_site_label
 _atom_site_symmetry_multiplicity
 _atom_site_fract_x
 _atom_site_fract_y
 _atom_site_fract_z
 _atom_site_occupancy
 _atom_site_hle17_bader_spin_density
 _atom_site_hle17_ddec_charge
 _atom_site_hle17_ddec_spin_density
 _atom_site_hle17_ddec_sum_bond_order
 _atom_site_hle17_magmom
 _atom_site_hse06_10hf_bader_spin_density
 _atom_site_hse06_10hf_ddec_charge
 _atom_site_hse06_10hf_ddec_spin_density
 _atom_site_hse06_10hf_ddec_sum_bond_order
 _atom_site_hse06_10hf_magmom
 _atom_site_hse06_bader_spin_density
 _atom_site_hse06_ddec_charge
 _atom_site_hse06_ddec_spin_density
 _atom_site_hse06_ddec_sum_bond_order
 _atom_site_hse06_magmom
 _atom_site_pbe_bader_spin_density
 _atom_site_pbe_cm5_charge
 _atom_site_pbe_ddec_charge
 _atom_site_pbe_ddec_spin_density
 _atom_site_pbe_ddec_sum_bond_order
 _atom_site_pbe_magmom
Zn  Zn0  1  0.64418041  0.30965596  0.39424467  1  0  0.975876  0  1.896444  0  0  0.782353  0  2.374222  0  0  0.829045  0  2.320102  0  0  0.692822  0.749978  0  2.411149  0
Zn  Zn1  1  0.35581920  0.69034332  0.60575550  1  0  0.975895  0  1.896444  0  0  0.782388  0  2.374219  0  0  0.829086  0  2.320093  0  0  0.692838  0.750015  0  2.411146  0
H  H2  1  0.98438707  0.59856118  0.74785170  1  0  0.099648  0  0.987273  0  0  0.108955  0  1.051492  0  0  0.111931  0  1.051792  0  0  0.095225  0.106855  0  1.051474  0
H  H3  1  0.01561172  0.40143910  0.25214797  1  0  0.099613  0  0.987244  0  0  0.108927  0  1.051465  0  0  0.111903  0  1.051768  0  0  0.095209  0.106826  0  1.051446  0
H  H4  1  0.03060461  0.34966263  0.77061211  1  0  0.085923  0  0.945137  0  0  0.096228  0  1.008774  0  0  0.099923  0  1.005178  0  0  0.100563  0.093557  0  1.011403  0
H  H5  1  0.96939336  0.65033866  0.22938860  1  0  0.085933  0  0.94514  0  0  0.096251  0  1.008759  0  0  0.099947  0  1.005164  0  0  0.10055  0.093579  0  1.011388  0
H  H6  1  0.15514038  0.73389260  0.91498184  1  0  0.085913  0  0.972986  0  0  0.095726  0  1.038067  0  0  0.097895  0  1.038292  0  0  0.097399  0.094258  0  1.037859  0
H  H7  1  0.84485877  0.26610869  0.08501900  1  0  0.085934  0  0.972983  0  0  0.095742  0  1.038073  0  0  0.097916  0  1.038286  0  0  0.097409  0.094273  0  1.037864  0
H  H8  1  0.34438519  0.87543870  0.11411153  1  0  0.080965  0  0.969922  0  0  0.092044  0  1.03207  0  0  0.094374  0  1.031293  0  0  0.09653  0.090114  0  1.033209  0
H  H9  1  0.65561479  0.12456159  0.88588749  1  0  0.080974  0  0.969925  0  0  0.092043  0  1.032092  0  0  0.094374  0  1.031311  0  0  0.096533  0.090113  0  1.033233  0
H  H10  1  0.46667349  0.77138842  0.23063690  1  0  0.086544  0  0.951221  0  0  0.09862  0  1.010491  0  0  0.101534  0  1.009504  0  0  0.098147  0.096607  0  1.011145  0
H  H11  1  0.53332767  0.22861187  0.76936226  1  0  0.08654  0  0.951216  0  0  0.098618  0  1.010485  0  0  0.10153  0  1.0095  0  0  0.098149  0.096609  0  1.011137  0
H  H12  1  0.20253792  0.38104904  0.94453412  1  0  0.088491  0  0.952909  0  0  0.101554  0  1.01151  0  0  0.104699  0  1.009784  0  0  0.100598  0.099302  0  1.012836  0
H  H13  1  0.79745969  0.61895125  0.05546542  1  0  0.088486  0  0.952927  0  0  0.101551  0  1.011524  0  0  0.104695  0  1.009798  0  0  0.1006  0.099296  0  1.012851  0
H  H14  1  0.50801141  0.58020042  0.24944916  1  0  0.087102  0  0.966043  0  0  0.096842  0  1.032256  0  0  0.09909  0  1.03123  0  0  0.10124  0.09522  0  1.033048  0
H  H15  1  0.49198903  0.41979786  0.75054920  1  0  0.087073  0  0.96604  0  0  0.09681  0  1.032266  0  0  0.099058  0  1.031238  0  0  0.101232  0.095189  0  1.03306  0
H  H16  1  0.27400124  0.30689305  0.06112234  1  0  0.095201  0  0.97796  0  0  0.105984  0  1.040312  0  0  0.109402  0  1.039086  0  0  0.096141  0.103607  0  1.041336  0
H  H17  1  0.72599874  0.69310723  0.93887746  1  0  0.09521  0  0.977956  0  0  0.105991  0  1.040312  0  0  0.109409  0  1.039086  0  0  0.096145  0.103613  0  1.041334  0
H  H18  1  0.98863170  0.30846577  0.40455755  1  0  0.090794  0  0.940506  0  0  0.097536  0  1.005662  0  0  0.100227  0  1.003166  0  0  0.121426  0.095492  0  1.007564  0
H  H19  1  0.01136744  0.69153552  0.59544407  1  0  0.090816  0  0.940502  0  0  0.097555  0  1.005655  0  0  0.100246  0  1.003158  0  0  0.121423  0.095511  0  1.007558  0
H  H20  1  0.53758565  0.06347742  0.16566053  1  0  0.083626  0  0.979973  0  0  0.090742  0  1.046737  0  0  0.093763  0  1.043517  0  0  0.114119  0.088234  0  1.049554  0
H  H21  1  0.46241551  0.93652286  0.83433863  1  0  0.083637  0  0.979946  0  0  0.090754  0  1.046708  0  0  0.093775  0  1.043485  0  0  0.11412  0.088245  0  1.049525  0
H  H22  1  0.67429255  0.92363737  0.02283576  1  0  0.12388  0  0.964638  0  0  0.131663  0  1.026239  0  0  0.135437  0  1.025274  0  0  0.108339  0.128926  0  1.0271  0
H  H23  1  0.32571016  0.07636391  0.97716315  1  0  0.123957  0  0.964556  0  0  0.131718  0  1.026181  0  0  0.135493  0  1.025213  0  0  0.108348  0.128982  0  1.027042  0
H  H24  1  0.14388063  0.18547487  0.26943246  1  0  0.125818  0  0.952739  0  0  0.134416  0  1.011994  0  0  0.137304  0  1.012636  0  0  0.110249  0.132336  0  1.011735  0
H  H25  1  0.85612124  0.81452742  0.73056982  1  0  0.125827  0  0.952727  0  0  0.134423  0  1.011986  0  0  0.13731  0  1.012628  0  0  0.110262  0.132345  0  1.011727  0
H  H26  1  0.13822077  0.99861042  0.09094712  1  0  0.09536  0  0.941648  0  0  0.111666  0  1.00259  0  0  0.113397  0  1.001786  0  0  0.099043  0.110236  0  1.003533  0
H  H27  1  0.86178148  0.00139287  0.90905324  1  0  0.095346  0  0.941576  0  0  0.111661  0  1.002524  0  0  0.113392  0  1.001718  0  0  0.099039  0.110223  0  1.003463  0
H  H28  1  0.95078132  0.86643688  0.00452117  1  0  0.0817  0  0.938295  0  0  0.099538  0  0.999327  0  0  0.10081  0  0.998685  0  0  0.096652  0.098551  0  0.999852  0
H  H29  1  0.04922056  0.13356541  0.99547956  1  0  0.081689  0  0.938325  0  0  0.099497  0  0.999394  0  0  0.100768  0  0.998754  0  0  0.096656  0.098507  0  0.999914  0
H  H30  1  0.11445202  0.95332681  0.56870088  1  0  0.095312  0  0.937442  0  0  0.11081  0  0.999032  0  0  0.111925  0  0.999626  0  0  0.097389  0.109982  0  0.998634  0
H  H31  1  0.88554723  0.04667147  0.43129889  1  0  0.095235  0  0.937475  0  0  0.110747  0  0.999064  0  0  0.111869  0  0.999659  0  0  0.097348  0.10992  0  0.998665  0
H  H32  1  0.06041135  0.10618784  0.62945841  1  0  0.082139  0  0.926219  0  0  0.100093  0  0.984343  0  0  0.10159  0  0.9834  0  0  0.096605  0.098962  0  0.985134  0
H  H33  1  0.93958945  0.89381145  0.37054035  1  0  0.082117  0  0.926228  0  0  0.100093  0  0.984329  0  0  0.101596  0  0.98339  0  0  0.096602  0.098961  0  0.985119  0
H  H34  1  0.18887903  0.29729857  0.59836397  1  0  0.119906  0  0.941342  0  0  0.130067  0  1.000865  0  0  0.132844  0  1.001063  0  0  0.112923  0.127958  0  1.00105  0
H  H35  1  0.81111868  0.70269872  0.40163450  1  0  0.119913  0  0.941349  0  0  0.130068  0  1.000879  0  0  0.132845  0  1.001077  0  0  0.112948  0.127959  0  1.001062  0
H  H36  1  0.27525385  0.91455923  0.41703426  1  0  0.132647  0  0.965771  0  0  0.140875  0  1.026717  0  0  0.145044  0  1.024743  0  0  0.109582  0.137736  0  1.028523  0
H  H37  1  0.72474658  0.08543905  0.58296487  1  0  0.132613  0  0.965743  0  0  0.140832  0  1.026712  0  0  0.145  0  1.024739  0  0  0.109583  0.13771  0  1.028498  0
H  H38  1  0.49515199  0.02974435  0.35489474  1  0  0.069995  0  0.938101  0  0  0.081691  0  0.999893  0  0  0.083446  0  0.998656  0  0  0.116357  0.080343  0  1.000892  0
H  H39  1  0.50484963  0.97025394  0.64510452  1  0  0.070009  0  0.938102  0  0  0.081704  0  0.999888  0  0  0.083459  0  0.99865  0  0  0.116365  0.080358  0  1.000888  0
H  H40  1  0.40960847  0.39640633  0.53002147  1  0  0.097704  0  0.948796  0  0  0.105288  0  1.012663  0  0  0.108605  0  1.009097  0  0  0.121532  0.102691  0  1.015522  0
H  H41  1  0.59038841  0.60359196  0.46997726  1  0  0.097684  0  0.948799  0  0  0.105267  0  1.01267  0  0  0.108583  0  1.009107  0  0  0.121525  0.102671  0  1.01553  0
C  C42  1  0.86372105  0.39548467  0.60645122  1  0  0.662822  0  3.950725  0  0  0.623755  0  4.232831  0  0  0.658283  0  4.225575  0  0  0.187083  0.600408  0  4.236778  0
C  C43  1  0.13628090  0.60451461  0.39355153  1  0  0.662911  0  3.950789  0  0  0.62385  0  4.232877  0  0  0.658371  0  4.225633  0  0  0.187139  0.600502  0  4.236821  0
C  C44  1  0.97218256  0.49389020  0.72498908  1  0  -0.225074  0  3.687476  0  0  -0.23834  0  3.937188  0  0  -0.250077  0  3.955291  0  0  -0.104144  -0.230659  0  3.924927  0
C  C45  1  0.02781541  0.50611109  0.27501163  1  0  -0.225103  0  3.687442  0  0  -0.238388  0  3.937171  0  0  -0.250123  0  3.955278  0  0  -0.104168  -0.230707  0  3.92491  0
C  C46  1  0.05199363  0.45715479  0.79970085  1  0  -0.044937  0  3.748504  0  0  -0.069295  0  3.996529  0  0  -0.065616  0  4.014491  0  0  -0.076493  -0.071485  0  3.984238  0
C  C47  1  0.94800434  0.54284650  0.20029986  1  0  -0.044985  0  3.748545  0  0  -0.069352  0  3.996576  0  0  -0.065674  0  4.01454  0  0  -0.076514  -0.071544  0  3.984281  0
C  C48  1  0.16403682  0.54624834  0.91640723  1  0  0.083469  0  3.831699  0  0  0.105949  0  4.060514  0  0  0.104583  0  4.085627  0  0  -0.009283  0.106729  0  4.043407  0
C  C49  1  0.83596115  0.45375295  0.08359271  1  0  0.083473  0  3.831649  0  0  0.105962  0  4.060452  0  0  0.104594  0  4.085567  0  0  -0.009285  0.106744  0  4.043339  0
C  C50  1  0.20613771  0.68712003  0.96533234  1  0  -0.091712  0  3.700333  0  0  -0.111752  0  3.941007  0  0  -0.113354  0  3.962304  0  0  -0.083596  -0.110414  0  3.926227  0
C  C51  1  0.79386145  0.31288126  0.03466772  1  0  -0.091719  0  3.700313  0  0  -0.111757  0  3.940973  0  0  -0.113358  0  3.962272  0  0  -0.08358  -0.110417  0  3.92619  0
C  C52  1  0.31376628  0.76682940  0.07721480  1  0  -0.078334  0  3.820692  0  0  -0.090878  0  4.072354  0  0  -0.093707  0  4.09543  0  0  -0.096133  -0.088737  0  4.056378  0
C  C53  1  0.68623488  0.23317089  0.92278513  1  0  -0.078314  0  3.820684  0  0  -0.090851  0  4.072331  0  0  -0.09368  0  4.095408  0  0  -0.09612  -0.08871  0  4.056359  0
C  C54  1  0.38245952  0.70885115  0.14256528  1  0  -0.104767  0  3.722388  0  0  -0.124391  0  3.96398  0  0  -0.126607  0  3.9852  0  0  -0.086132  -0.122669  0  3.94923  0
C  C55  1  0.61754045  0.29114913  0.85743452  1  0  -0.104772  0  3.722372  0  0  -0.124384  0  3.96398  0  0  -0.1266  0  3.9852  0  0  -0.086132  -0.122663  0  3.949237  0
C  C56  1  0.23396659  0.48989990  0.98307787  1  0  -0.133415  0  3.66473  0  0  -0.159035  0  3.899937  0  0  -0.162228  0  3.921868  0  0  -0.076635  -0.156569  0  3.884871  0
C  C57  1  0.76603457  0.51010039  0.01692129  1  0  -0.133418  0  3.664754  0  0  -0.159029  0  3.89998  0  0  -0.162223  0  3.92191  0  0  -0.076656  -0.156562  0  3.884909  0
C  C58  1  0.34287231  0.56893234  0.09642262  1  0  0.083418  0  3.831772  0  0  0.104527  0  4.062788  0  0  0.103012  0  4.088345  0  0  -0.010227  0.105425  0  4.04535  0
C  C59  1  0.65712767  0.43106794  0.90357641  1  0  0.083351  0  3.831828  0  0  0.104417  0  4.062921  0  0  0.102902  0  4.088477  0  0  -0.010272  0.105315  0  4.045485  0
C  C60  1  0.41344506  0.51080424  0.16725155  1  0  -0.031532  0  3.730996  0  0  -0.056525  0  3.978557  0  0  -0.052248  0  3.997612  0  0  -0.072713  -0.05903  0  3.965372  0
C  C61  1  0.58655493  0.48919605  0.83274747  1  0  -0.031415  0  3.731005  0  0  -0.056398  0  3.978581  0  0  -0.05212  0  3.997634  0  0  -0.072662  -0.058902  0  3.965395  0
C  C62  1  0.36950928  0.38035015  0.14105355  1  0  -0.232976  0  3.694543  0  0  -0.245442  0  3.945675  0  0  -0.258074  0  3.963857  0  0  -0.104048  -0.237095  0  3.933173  0
C  C63  1  0.63049033  0.61964914  0.85894585  1  0  -0.233026  0  3.694586  0  0  -0.245492  0  3.945734  0  0  -0.258125  0  3.963916  0  0  -0.104075  -0.237143  0  3.933233  0
C  C64  1  0.44075566  0.32383331  0.21520901  1  0  0.671106  0  3.945805  0  0  0.629117  0  4.23051  0  0  0.664315  0  4.222454  0  0  0.191767  0.605418  0  4.234776  0
C  C65  1  0.55924277  0.67616598  0.78479103  1  0  0.671138  0  3.945691  0  0  0.629139  0  4.230415  0  0  0.664338  0  4.222358  0  0  0.191795  0.60544  0  4.234683  0
C  C66  1  0.92385377  0.22154001  0.32003111  1  0  0.139683  0  3.708858  0  0  0.105659  0  3.966071  0  0  0.114433  0  3.981822  0  0  0.052259  0.099981  0  3.955457  0
C  C67  1  0.07614619  0.77846028  0.67997023  1  0  0.139632  0  3.708876  0  0  0.10563  0  3.966081  0  0  0.114405  0  3.981831  0  0  0.052281  0.099953  0  3.95547  0
C  C68  1  0.67112459  0.08184631  0.18612133  1  0  0.119833  0  3.726277  0  0  0.088044  0  3.974729  0  0  0.095089  0  3.993588  0  0  0.041017  0.083687  0  3.961762  0
C  C69  1  0.32887576  0.91815498  0.81387810  1  0  0.119821  0  3.726281  0  0  0.088045  0  3.974722  0  0  0.095089  0  3.993581  0  0  0.041017  0.08369  0  3.961756  0
C  C70  1  0.74766149  0.00681516  0.10779774  1  0  -0.182701  0  3.702464  0  0  -0.196757  0  3.942424  0  0  -0.206304  0  3.964652  0  0  -0.088727  -0.190709  0  3.92765  0
C  C71  1  0.25234157  0.99318713  0.89220235  1  0  -0.182835  0  3.702522  0  0  -0.19687  0  3.942479  0  0  -0.206418  0  3.964704  0  0  -0.088767  -0.190827  0  3.927701  0
C  C72  1  0.00919927  0.15253104  0.24508561  1  0  -0.175921  0  3.683984  0  0  -0.193074  0  3.929638  0  0  -0.201989  0  3.950814  0  0  -0.082383  -0.187403  0  3.915496  0
C  C73  1  0.99080224  0.84747025  0.75491549  1  0  -0.175905  0  3.683984  0  0  -0.193058  0  3.929627  0  0  -0.201974  0  3.950803  0  0  -0.082389  -0.187392  0  3.915481  0
C  C74  1  0.92075690  0.04367977  0.13602211  1  0  0.162261  0  3.721241  0  0  0.180242  0  3.954474  0  0  0.186204  0  3.976228  0  0  0.016262  0.176408  0  3.939691  0
C  C75  1  0.07924617  0.95632252  0.86397876  1  0  0.16231  0  3.721245  0  0  0.180295  0  3.954479  0  0  0.186258  0  3.976233  0  0  0.016303  0.176477  0  3.939666  0
C  C76  1  0.00712966  0.97547596  0.04767849  1  0  -0.155028  0  3.675384  0  0  -0.20002  0  3.925394  0  0  -0.201666  0  3.935985  0  0  -0.153224  -0.198628  0  3.917763  0
C  C77  1  0.99287377  0.02452733  0.95232278  1  0  -0.154962  0  3.675318  0  0  -0.199971  0  3.925353  0  0  -0.201618  0  3.935948  0  0  -0.153237  -0.198551  0  3.91769  0
C  C78  1  0.08114218  0.03211686  0.55018964  1  0  -0.153248  0  3.675554  0  0  -0.196132  0  3.924462  0  0  -0.197795  0  3.935378  0  0  -0.153598  -0.194819  0  3.916854  0
C  C79  1  0.91885707  0.96788143  0.44981013  1  0  -0.15317  0  3.675542  0  0  -0.196068  0  3.924424  0  0  -0.197764  0  3.93537  0  0  -0.153542  -0.194761  0  3.916816  0
C  C80  1  0.21574312  0.09760500  0.51393205  1  0  0.163101  0  3.721373  0  0  0.179076  0  3.957937  0  0  0.184655  0  3.980484  0  0  0.01746  0.17546  0  3.942629  0
C  C81  1  0.78425613  0.90239329  0.48606694  1  0  0.163122  0  3.721363  0  0  0.179085  0  3.957933  0  0  0.18467  0  3.980488  0  0  0.017485  0.175471  0  3.942625  0
C  C82  1  0.25384147  0.23412525  0.54454933  1  0  -0.173191  0  3.689729  0  0  -0.190326  0  3.937533  0  0  -0.198907  0  3.958642  0  0  -0.080922  -0.184891  0  3.923734  0
C  C83  1  0.74615778  0.76587304  0.45544967  1  0  -0.173191  0  3.689762  0  0  -0.190321  0  3.937561  0  0  -0.198902  0  3.958666  0  0  -0.080958  -0.184884  0  3.923755  0
C  C84  1  0.30213835  0.02153092  0.44294799  1  0  -0.18864  0  3.697851  0  0  -0.204004  0  3.939534  0  0  -0.213292  0  3.961406  0  0  -0.086616  -0.198023  0  3.925029  0
C  C85  1  0.69786053  0.97846637  0.55705138  1  0  -0.188585  0  3.697867  0  0  -0.203939  0  3.939552  0  0  -0.213228  0  3.961424  0  0  -0.08664  -0.197972  0  3.925038  0
C  C86  1  0.42269075  0.08456254  0.40791840  1  0  0.137031  0  3.73062  0  0  0.103068  0  3.985214  0  0  0.11067  0  4.003772  0  0  0.047931  0.098293  0  3.972593  0
C  C87  1  0.57730813  0.91543475  0.59208097  1  0  0.137008  0  3.730756  0  0  0.103055  0  3.985338  0  0  0.110658  0  4.003896  0  0  0.04793  0.098279  0  3.972725  0
C  C88  1  0.37581867  0.28982210  0.50545211  1  0  0.140132  0  3.678662  0  0  0.106708  0  3.930451  0  0  0.114894  0  3.946288  0  0  0.053128  0.101289  0  3.920015  0
C  C89  1  0.62418059  0.71017619  0.49454611  1  0  0.140214  0  3.678538  0  0  0.106796  0  3.930326  0  0  0.114983  0  3.946162  0  0  0.053173  0.101374  0  3.919891  0
N  N90  1  0.75743929  0.18807149  0.29032083  1  0  -0.342988  0  3.337134  0  0  -0.256984  0  3.618159  0  0  -0.276374  0  3.630912  0  0  -0.338199  -0.244019  0  3.609228  0
N  N91  1  0.24256069  0.81192880  0.70967897  1  0  -0.342954  0  3.337059  0  0  -0.256992  0  3.618126  0  0  -0.276381  0  3.630877  0  0  -0.338205  -0.244026  0  3.609196  0
N  N92  1  0.45936917  0.21624241  0.43849588  1  0  -0.336884  0  3.350908  0  0  -0.25275  0  3.631732  0  0  -0.271887  0  3.645196  0  0  -0.336439  -0.239991  0  3.622559  0
N  N93  1  0.54063008  0.78375588  0.56150311  1  0  -0.33699  0  3.350895  0  0  -0.252882  0  3.631749  0  0  -0.27202  0  3.645211  0  0  -0.336482  -0.240124  0  3.62258  0
O  O94  1  0.83755288  0.27162471  0.57027788  1  0  -0.645272  0  1.914184  0  0  -0.602255  0  2.141519  0  0  -0.625839  0  2.13349  0  0  -0.33519  -0.585514  0  2.146368  0
O  O95  1  0.16244509  0.72837659  0.42972283  1  0  -0.645293  0  1.914081  0  0  -0.602284  0  2.141416  0  0  -0.625868  0  2.133393  0  0  -0.335204  -0.58554  0  2.146258  0
O  O96  1  0.80131044  0.44928152  0.54404417  1  0  -0.652497  0  1.964835  0  0  -0.576828  0  2.223543  0  0  -0.60569  0  2.207989  0  0  -0.34648  -0.556462  0  2.233333  0
O  O97  1  0.19868836  0.55071877  0.45595550  1  0  -0.652458  0  1.965058  0  0  -0.576785  0  2.223753  0  0  -0.605644  0  2.208205  0  0  -0.346448  -0.55642  0  2.233543  0
O  O98  1  0.55807823  0.40509523  0.31071077  1  0  -0.649831  0  2.017987  0  0  -0.572732  0  2.278514  0  0  -0.602172  0  2.263974  0  0  -0.336624  -0.552074  0  2.287614  0
O  O99  1  0.44192020  0.59490406  0.68928850  1  0  -0.649861  0  2.017982  0  0  -0.572754  0  2.278511  0  0  -0.602199  0  2.26397  0  0  -0.336642  -0.552096  0  2.287612  0
O  O100  1  0.38439063  0.19995785  0.18217077  1  0  -0.648484  0  1.917486  0  0  -0.601325  0  2.143234  0  0  -0.624598  0  2.13346  0  0  -0.332001  -0.584874  0  2.149662  0
O  O101  1  0.61560661  0.80004144  0.81782913  1  0  -0.648491  0  1.917384  0  0  -0.601333  0  2.14315  0  0  -0.624606  0  2.133376  0  0  -0.332015  -0.584881  0  2.149577  0
