# generated using pymatgen
data_Zn4H6C24S4Br2O17
_symmetry_space_group_name_H-M   'P 1'
_cell_length_a   19.69527718
_cell_length_b   19.73165027
_cell_length_c   33.40473299
_cell_angle_alpha   79.06743454
_cell_angle_beta   79.17770045
_cell_angle_gamma   63.93757587
_symmetry_Int_Tables_number   1
_chemical_formula_structural   Zn4H6C24S4Br2O17
_chemical_formula_sum   'Zn16 H24 C96 S16 Br8 O68'
_cell_volume   11369.51808776
_cell_formula_units_Z   4
loop_
 _symmetry_equiv_pos_site_id
 _symmetry_equiv_pos_as_xyz
  1  'x, y, z'
loop_
 _atom_site_type_symbol
 _atom_site_label
 _atom_site_symmetry_multiplicity
 _atom_site_fract_x
 _atom_site_fract_y
 _atom_site_fract_z
 _atom_site_occupancy
 _atom_site_pbe_bader_charge
 _atom_site_pbe_bader_spin_density
 _atom_site_pbe_cm5_charge
 _atom_site_pbe_ddec_charge
 _atom_site_pbe_ddec_spin_density
 _atom_site_pbe_ddec_sum_bond_order
 _atom_site_pbe_magmom
Zn  Zn0  1  0.05585757  0.40016530  0.47814182  1  1.318447  0  0.66997  0.973003  0  2.332659  0
Zn  Zn1  1  0.98489818  0.48332365  0.56055204  1  1.310698  0  0.675818  0.961902  0  2.36666  0
Zn  Zn2  1  0.05857552  0.56091898  0.48172602  1  1.32029  0  0.672252  0.964075  0  2.383695  0
Zn  Zn3  1  0.90062911  0.55566702  0.48016061  1  1.313151  0  0.671596  0.961525  0  2.392615  0
Zn  Zn4  1  0.69376102  0.34952041  0.27199824  1  1.317345  0  0.669664  0.972725  0  2.332148  0
Zn  Zn5  1  0.69051492  0.18814164  0.26659448  1  1.315756  0  0.672841  0.967459  0  2.34743  0
Zn  Zn6  1  0.76923612  0.26713899  0.19029602  1  1.317715  0  0.672034  0.963376  0  2.381622  0
Zn  Zn7  1  0.84800438  0.19377471  0.27144562  1  1.321977  0  0.674577  0.95742  0  2.399661  0
Zn  Zn8  1  0.26592744  0.76587359  0.68941002  1  1.313989  0  0.675641  0.961294  0  2.36723  0
Zn  Zn9  1  0.34992803  0.69649662  0.77101705  1  1.321233  0  0.672569  0.965852  0  2.355667  0
Zn  Zn10  1  0.19189459  0.84910068  0.77071341  1  1.318649  0  0.669279  0.968827  0  2.369866  0
Zn  Zn11  1  0.19184444  0.68861355  0.76829191  1  1.320622  0  0.672283  0.963826  0  2.383085  0
Zn  Zn12  1  0.55884840  0.06240276  0.98347813  1  1.315371  0  0.672613  0.967108  0  2.347887  0
Zn  Zn13  1  0.40145764  0.05404326  0.97724407  1  1.32023  0  0.675826  0.961967  0  2.363004  0
Zn  Zn14  1  0.55826276  0.90103416  0.97928363  1  1.319692  0  0.669291  0.968879  0  2.368143  0
Zn  Zn15  1  0.48011158  0.98354322  0.05971503  1  1.318497  0  0.672039  0.964007  0  2.382582  0
H  H16  1  0.74961647  0.44950033  0.34936646  1  0.135722  0  0.110427  0.130198  0  1.001487  0
H  H17  1  0.99937066  0.30201408  0.40061660  1  0.153244  0  0.110542  0.130173  0  1.001824  0
H  H18  1  0.20077342  0.69983605  0.60209614  1  0.13381  0  0.112066  0.132687  0  0.998923  0
H  H19  1  0.04906557  0.55028264  0.64790618  1  0.133299  0  0.111886  0.132258  0  0.998974  0
H  H20  1  0.64761475  0.14914408  0.04967884  1  0.120138  0  0.111221  0.131197  0  1.000576  0
H  H21  1  0.60264670  0.10060770  0.20037822  1  0.118604  0  0.111394  0.131345  0  1.00098  0
H  H22  1  0.30417366  0.99839337  0.90120778  1  0.13781  0  0.112298  0.133623  0  0.997987  0
H  H23  1  0.44695896  0.75016949  0.84859992  1  0.110713  0  0.111597  0.132585  0  0.998519  0
H  H24  1  0.32719978  0.53993933  0.39821984  1  0.600368  0  0.342671  0.3685  0  0.865525  0
H  H25  1  0.42253477  0.20956643  0.35215778  1  0.594629  0  0.34317  0.368864  0  0.86504  0
H  H26  1  0.75448862  0.54123568  0.68456349  1  0.616804  0  0.343377  0.368687  0  0.865889  0
H  H27  1  0.49623367  0.70813544  0.56571801  1  0.623463  0  0.343212  0.369493  0  0.864306  0
H  H28  1  0.04175584  0.25447837  0.68353396  1  0.618945  0  0.343206  0.368998  0  0.864654  0
H  H29  1  0.20887363  0.99469513  0.56628429  1  0.593725  0  0.343201  0.36933  0  0.864404  0
H  H30  1  0.74377383  0.81657119  0.38712978  1  0.608929  0  0.342895  0.36942  0  0.864191  0
H  H31  1  0.00450396  0.93257137  0.36316408  1  0.590351  0  0.342736  0.369135  0  0.864285  0
H  H32  1  0.70801509  0.49575728  0.06638263  1  0.614325  0  0.342374  0.367961  0  0.865621  0
H  H33  1  0.54146730  0.75477352  0.18401262  1  0.622991  0  0.342991  0.36917  0  0.864641  0
H  H34  1  0.14902126  0.07705579  0.21926694  1  0.610223  0  0.342966  0.368271  0  0.865216  0
H  H35  1  0.10007214  0.17376569  0.03062013  1  0.59693  0  0.342936  0.369301  0  0.864706  0
H  H36  1  0.50704225  0.43267149  0.86292446  1  0.601167  0  0.342869  0.368409  0  0.866318  0
H  H37  1  0.24486017  0.31814725  0.88672610  1  0.622071  0  0.343277  0.368923  0  0.864487  0
H  H38  1  0.92199197  0.70988020  0.85192929  1  0.594103  0  0.343401  0.369574  0  0.863473  0
H  H39  1  0.82818800  0.04062321  0.89769271  1  0.631749  0  0.343296  0.369444  0  0.864768  0
C  C40  1  0.06197503  0.31614831  0.56167395  1  1.597154  0  0.213224  0.622771  0  4.222515  0
C  C41  1  0.06941395  0.57093655  0.56789850  1  1.578664  0  0.229425  0.615751  0  4.153871  0
C  C42  1  0.18368776  0.43988354  0.43833735  1  1.620963  0  0.212505  0.62169  0  4.222608  0
C  C43  1  0.93557410  0.68421931  0.43883662  1  1.579683  0  0.212621  0.62101  0  4.223512  0
C  C44  1  0.93018790  0.43125303  0.43142032  1  1.590298  0  0.229621  0.617834  0  4.152539  0
C  C45  1  0.81725171  0.56098016  0.56285718  1  1.566506  0  0.213147  0.620656  0  4.223777  0
C  C46  1  0.56606801  0.30960624  0.31126946  1  1.586196  0  0.212979  0.622528  0  4.22017  0
C  C47  1  0.68335262  0.18003545  0.18040395  1  1.599969  0  0.228916  0.615841  0  4.150693  0
C  C48  1  0.68964176  0.43365492  0.18829658  1  1.592087  0  0.212088  0.62164  0  4.22017  0
C  C49  1  0.93536100  0.18789364  0.18952264  1  1.570842  0  0.211669  0.617413  0  4.227323  0
C  C50  1  0.81851364  0.31970294  0.31898300  1  1.584795  0  0.228831  0.615791  0  4.154121  0
C  C51  1  0.81276099  0.06515434  0.31128862  1  1.566051  0  0.212624  0.619804  0  4.224337  0
C  C52  1  0.43322257  0.68947207  0.68755753  1  1.57605  0  0.212883  0.622041  0  4.220692  0
C  C53  1  0.31702117  0.82146984  0.81856155  1  1.605426  0  0.229884  0.616216  0  4.152596  0
C  C54  1  0.18772550  0.93330699  0.68795381  1  1.569232  0  0.212445  0.620521  0  4.224159  0
C  C55  1  0.06546212  0.80965669  0.81130012  1  1.583264  0  0.212044  0.618595  0  4.225383  0
C  C56  1  0.18051219  0.67917235  0.68206880  1  1.586769  0  0.229335  0.61529  0  4.15446  0
C  C57  1  0.31504626  0.56629087  0.81142242  1  1.561193  0  0.212987  0.62095  0  4.220577  0
C  C58  1  0.43674669  0.18426614  0.93841493  1  1.605707  0  0.212725  0.620278  0  4.225854  0
C  C59  1  0.43432111  0.92752889  0.93095227  1  1.5954  0  0.229953  0.614787  0  4.15107  0
C  C60  1  0.68433201  0.94117866  0.93908649  1  1.575161  0  0.212502  0.621982  0  4.218041  0
C  C61  1  0.56066382  0.81674199  0.06221983  1  1.579349  0  0.212229  0.620812  0  4.222114  0
C  C62  1  0.56682624  0.06977188  0.06966169  1  1.598064  0  0.228471  0.614993  0  4.152928  0
C  C63  1  0.31418969  0.06196681  0.05987844  1  1.561277  0  0.213039  0.620769  0  4.225897  0
C  C64  1  0.89864920  0.40580962  0.40238234  1  -0.022067  0  -0.011962  -0.057589  0  3.912883  0
C  C65  1  0.85024837  0.34560969  0.34771330  1  0.052281  0  -0.011727  -0.055738  0  3.909996  0
C  C66  1  0.82726719  0.44771119  0.38747550  1  -0.054092  0  -0.007328  0.100144  0  3.91866  0
C  C67  1  0.92175460  0.30378552  0.36252310  1  -0.122352  0  -0.006582  0.099326  0  3.918877  0
C  C68  1  0.80468435  0.41725682  0.36081109  1  0.011872  0  -0.085463  -0.139185  0  3.955833  0
C  C69  1  0.94429303  0.33425528  0.38919424  1  0.038359  0  -0.085877  -0.138465  0  3.956096  0
C  C70  1  0.09946597  0.60036520  0.59567812  1  -0.012835  0  -0.012211  -0.057942  0  3.914102  0
C  C71  1  0.15027216  0.64987243  0.65432396  1  -0.014344  0  -0.012192  -0.05797  0  3.913594  0
C  C72  1  0.14296361  0.64314714  0.58282406  1  -0.075772  0  -0.006821  0.100543  0  3.922963  0
C  C73  1  0.10679841  0.60706600  0.66718648  1  -0.077099  0  -0.007087  0.100337  0  3.921763  0
C  C74  1  0.16722712  0.66683034  0.61194657  1  0.054608  0  -0.085051  -0.137709  0  3.952546  0
C  C75  1  0.08251443  0.58339450  0.63805833  1  0.06113  0  -0.08446  -0.136397  0  3.951545  0
C  C76  1  0.30465131  0.45432383  0.40076926  1  0.593056  0  0.087086  0.281106  0  4.08245  0
C  C77  1  0.44530244  0.29509116  0.34928885  1  0.575471  0  0.086047  0.280378  0  4.086945  0
C  C78  1  0.25831531  0.41543479  0.41385761  1  -0.144644  0  -0.038255  -0.231195  0  3.91272  0
C  C79  1  0.49167266  0.33388355  0.33606813  1  -0.086862  0  -0.038775  -0.232932  0  3.913568  0
C  C80  1  0.37719815  0.33918885  0.37294037  1  -0.161539  0  -0.03959  -0.137881  0  4.149642  0
C  C81  1  0.37291853  0.41019863  0.37720067  1  -0.138919  0  -0.039533  -0.136665  0  4.145557  0
C  C82  1  0.72589714  0.57589934  0.63030241  1  0.614918  0  0.086593  0.280803  0  4.08821  0
C  C83  1  0.52455978  0.67355887  0.62003668  1  0.62032  0  0.086358  0.281924  0  4.086496  0
C  C84  1  0.74313967  0.58505769  0.58771429  1  -0.141183  0  -0.038467  -0.230859  0  3.918863  0
C  C85  1  0.50735530  0.66469634  0.66265487  1  -0.151469  0  -0.038173  -0.232396  0  3.917302  0
C  C86  1  0.60445783  0.64103621  0.60832563  1  -0.148027  0  -0.039503  -0.140194  0  4.152288  0
C  C87  1  0.64601016  0.60828079  0.64200550  1  -0.133943  0  -0.039539  -0.137669  0  4.151834  0
C  C88  1  0.07674279  0.22541770  0.62943159  1  0.651562  0  0.086188  0.280673  0  4.085254  0
C  C89  1  0.17392877  0.02399621  0.62033210  1  0.613793  0  0.086743  0.281217  0  4.090637  0
C  C90  1  0.08633100  0.24212856  0.58677140  1  -0.112808  0  -0.038563  -0.232513  0  3.916035  0
C  C91  1  0.16403636  0.00734099  0.66295693  1  -0.137393  0  -0.038601  -0.231561  0  3.919204  0
C  C92  1  0.14199399  0.10369592  0.60819828  1  -0.146025  0  -0.039189  -0.137507  0  4.150218  0
C  C93  1  0.10879982  0.14571278  0.64157069  1  -0.180944  0  -0.039153  -0.137946  0  4.14898  0
C  C94  1  0.84199137  0.80119273  0.39734371  1  0.542279  0  0.086297  0.281089  0  4.090207  0
C  C95  1  0.90609031  0.94831195  0.35305977  1  0.53871  0  0.087814  0.28382  0  4.082599  0
C  C96  1  0.91045129  0.75833831  0.41405754  1  -0.093224  0  -0.038485  -0.23176  0  3.920564  0
C  C97  1  0.83765130  0.99112600  0.33624958  1  -0.070156  0  -0.038296  -0.232239  0  3.918487  0
C  C98  1  0.90758078  0.87883666  0.37524190  1  -0.130215  0  -0.039744  -0.140343  0  4.150894  0
C  C99  1  0.84070951  0.87045355  0.37498573  1  -0.134175  0  -0.039529  -0.136953  0  4.150609  0
C  C100  1  0.65512697  0.15310523  0.15040862  1  -0.006501  0  -0.011494  -0.056647  0  3.908707  0
C  C101  1  0.59525241  0.09652668  0.09964633  1  -0.004531  0  -0.01172  -0.057317  0  3.909578  0
C  C102  1  0.66762038  0.16674874  0.10721870  1  -0.066995  0  -0.007061  0.100699  0  3.920361  0
C  C103  1  0.58272080  0.08293210  0.14283865  1  -0.063132  0  -0.006809  0.100984  0  3.921888  0
C  C104  1  0.63794485  0.13861265  0.08297511  1  0.045826  0  -0.085604  -0.138003  0  3.953666  0
C  C105  1  0.61242142  0.11103091  0.16708119  1  0.040058  0  -0.085561  -0.138366  0  3.955053  0
C  C106  1  0.67403035  0.52452310  0.12055940  1  0.560307  0  0.087395  0.282983  0  4.082212  0
C  C107  1  0.57541977  0.72583830  0.12987280  1  0.61743  0  0.087284  0.282101  0  4.086334  0
C  C108  1  0.66460102  0.50769076  0.16321442  1  -0.084335  0  -0.038755  -0.232224  0  3.914253  0
C  C109  1  0.58505821  0.74270737  0.08724379  1  -0.136346  0  -0.038666  -0.231754  0  3.914594  0
C  C110  1  0.60797593  0.64612078  0.14191157  1  -0.129963  0  -0.039169  -0.136908  0  4.149206  0
C  C111  1  0.64148448  0.60425612  0.10849686  1  -0.147721  0  -0.039295  -0.138756  0  4.147824  0
C  C112  1  0.08208817  0.12396929  0.17773635  1  0.553541  0  0.087273  0.282178  0  4.083485  0
C  C113  1  0.16740843  0.12640395  0.07190354  1  0.535604  0  0.08644  0.281595  0  4.090389  0
C  C114  1  0.00967524  0.16299680  0.16494727  1  -0.099175  0  -0.038292  -0.230433  0  3.918687  0
C  C115  1  0.23988274  0.08738609  0.08455139  1  -0.041881  0  -0.039004  -0.232799  0  3.920172  0
C  C116  1  0.10997202  0.13975548  0.10602427  1  -0.183242  0  -0.039252  -0.137639  0  4.152621  0
C  C117  1  0.13965618  0.11072748  0.14365525  1  -0.17896  0  -0.039828  -0.139088  0  4.149016  0
C  C118  1  0.34394338  0.85177869  0.84753131  1  0.037039  0  -0.011886  -0.056699  0  3.911576  0
C  C119  1  0.40726893  0.89685087  0.90222545  1  -0.045484  0  -0.011591  -0.056389  0  3.909647  0
C  C120  1  0.30345269  0.92267690  0.86280812  1  -0.130087  0  -0.006891  0.101604  0  3.921271  0
C  C121  1  0.44764904  0.82584520  0.88706065  1  -0.069315  0  -0.007325  0.100981  0  3.924422  0
C  C122  1  0.33533229  0.94366893  0.88946859  1  0.067705  0  -0.085161  -0.137888  0  3.951881  0
C  C123  1  0.41579853  0.80487068  0.86037177  1  0.076412  0  -0.084911  -0.138435  0  3.954724  0
C  C124  1  0.40855848  0.44857390  0.85279930  1  0.530597  0  0.086002  0.280124  0  4.088091  0
C  C125  1  0.34353367  0.30187962  0.89677083  1  0.563555  0  0.087576  0.282857  0  4.084008  0
C  C126  1  0.34026606  0.49181721  0.83598090  1  -0.072805  0  -0.038648  -0.231313  0  3.916442  0
C  C127  1  0.41181559  0.25862354  0.91366212  1  -0.114175  0  -0.038413  -0.23211  0  3.915495  0
C  C128  1  0.34250106  0.37125377  0.87461087  1  -0.125201  0  -0.040001  -0.140852  0  4.150201  0
C  C129  1  0.40952534  0.37926636  0.87501989  1  -0.138256  0  -0.03936  -0.136306  0  4.147137  0
C  C130  1  0.94471121  0.79544364  0.84936105  1  0.550808  0  0.087571  0.281521  0  4.083389  0
C  C131  1  0.80494517  0.95535232  0.90062870  1  0.518874  0  0.086311  0.280958  0  4.086579  0
C  C132  1  0.99114924  0.83411397  0.83601188  1  -0.087883  0  -0.03874  -0.230939  0  3.917259  0
C  C133  1  0.75839104  0.91685598  0.91407296  1  -0.069734  0  -0.038284  -0.231387  0  3.915038  0
C  C134  1  0.87278352  0.91088591  0.87694263  1  -0.121878  0  -0.039354  -0.138238  0  4.149502  0
C  C135  1  0.87666176  0.83989188  0.87294206  1  -0.112954  0  -0.039149  -0.136285  0  4.145702  0
S  S136  1  0.29836199  0.32533637  0.39755577  1  0.242578  0  0.056926  0.107664  0  2.792587  0
S  S137  1  0.45179621  0.42394340  0.35248355  1  0.233599  0  0.056557  0.107528  0  2.791537  0
S  S138  1  0.66206134  0.63285134  0.56212990  1  0.247071  0  0.058379  0.110253  0  2.796795  0
S  S139  1  0.58845841  0.61679572  0.68820184  1  0.24146  0  0.058013  0.109702  0  2.795736  0
S  S140  1  0.13449580  0.16065082  0.56176088  1  0.235902  0  0.056594  0.107591  0  2.793054  0
S  S141  1  0.11601936  0.08875666  0.68800849  1  0.235943  0  0.057293  0.108292  0  2.793726  0
S  S142  1  0.97284032  0.80247499  0.40248247  1  0.240437  0  0.059217  0.111682  0  2.79573  0
S  S143  1  0.77552214  0.94671783  0.34765306  1  0.239949  0  0.057875  0.109392  0  2.794933  0
S  S144  1  0.61576686  0.58901469  0.18830050  1  0.236301  0  0.056842  0.107939  0  2.792588  0
S  S145  1  0.63393511  0.66142890  0.06211280  1  0.23796  0  0.057863  0.109585  0  2.791973  0
S  S146  1  0.01197670  0.18347342  0.11163171  1  0.293508  0  0.058548  0.109646  0  2.798145  0
S  S147  1  0.23770476  0.06708437  0.13791622  1  0.278268  0  0.058564  0.110675  0  2.794064  0
S  S148  1  0.27759942  0.44795378  0.84731587  1  0.23974  0  0.058969  0.111268  0  2.796269  0
S  S149  1  0.47430685  0.30269013  0.90244554  1  0.242054  0  0.056986  0.108004  0  2.793581  0
S  S150  1  0.95163787  0.92436141  0.85205384  1  0.233752  0  0.057802  0.108889  0  2.797597  0
S  S151  1  0.79768163  0.82663684  0.89790696  1  0.235148  0  0.057242  0.108309  0  2.794877  0
Br  Br152  1  0.75600045  0.54592197  0.40068039  1  -0.031533  0  0.016538  -0.06184  0  1.385088  0
Br  Br153  1  0.99331388  0.20583678  0.34913998  1  -0.025393  0  0.019741  -0.057047  0  1.387479  0
Br  Br154  1  0.17339495  0.67221714  0.52721372  1  -0.030404  0  0.015622  -0.063211  0  1.381713  0
Br  Br155  1  0.07671187  0.57756486  0.72279090  1  -0.027455  0  0.015819  -0.063111  0  1.381238  0
Br  Br156  1  0.72315229  0.22247811  0.07767280  1  -0.028482  0  0.016146  -0.06271  0  1.383789  0
Br  Br157  1  0.52676323  0.02765249  0.17241248  1  -0.029448  0  0.016146  -0.062604  0  1.383903  0
Br  Br158  1  0.20560295  0.99572447  0.84971139  1  -0.035158  0  0.014409  -0.066218  0  1.379918  0
Br  Br159  1  0.54558181  0.75292435  0.90010194  1  -0.034566  0  0.013373  -0.067074  0  1.379994  0
O  O160  1  0.00081304  0.49859684  0.50012430  1  -1.225008  0  -0.570017  -1.030231  0  2.522879  0
O  O161  1  0.07813642  0.31491538  0.52263023  1  -1.182371  0  -0.326898  -0.558075  0  2.322302  0
O  O162  1  0.03379191  0.53058334  0.58554049  1  -1.166146  0  -0.310687  -0.535327  0  2.328979  0
O  O163  1  0.15475864  0.50663190  0.44898916  1  -1.162633  0  -0.312783  -0.523942  0  2.334024  0
O  O164  1  0.02716797  0.37475091  0.58062937  1  -1.165151  0  -0.312506  -0.524513  0  2.3334  0
O  O165  1  0.15414347  0.39157200  0.44673992  1  -1.183202  0  -0.325976  -0.557486  0  2.324345  0
O  O166  1  0.08146148  0.58838607  0.52951366  1  -1.168416  0  -0.309481  -0.539283  0  2.434114  0
O  O167  1  0.00320607  0.65709730  0.44895659  1  -1.171578  0  -0.324377  -0.551615  0  2.338475  0
O  O168  1  0.88812018  0.49495312  0.44429567  1  -1.175091  0  -0.310477  -0.539887  0  2.445191  0
O  O169  1  0.88893998  0.65325611  0.44820110  1  -1.156178  0  -0.313084  -0.525079  0  2.332184  0
O  O170  1  0.99684904  0.38638435  0.44081323  1  -1.169055  0  -0.31278  -0.540528  0  2.312876  0
O  O171  1  0.87641704  0.52646351  0.58156450  1  -1.164498  0  -0.313359  -0.527095  0  2.328477  0
O  O172  1  0.81540107  0.57738812  0.52386451  1  -1.139012  0  -0.324008  -0.549808  0  2.339506  0
O  O173  1  0.74866534  0.25065746  0.25043275  1  -1.226033  0  -0.569932  -1.029962  0  2.519613  0
O  O174  1  0.59561869  0.35792964  0.30326575  1  -1.179317  0  -0.326169  -0.556877  0  2.324675  0
O  O175  1  0.66567632  0.16233955  0.21847291  1  -1.166787  0  -0.311048  -0.537017  0  2.319002  0
O  O176  1  0.72672435  0.37517043  0.16936333  1  -1.165521  0  -0.312841  -0.524051  0  2.333335  0
O  O177  1  0.59467638  0.24339325  0.29994741  1  -1.16403  0  -0.313565  -0.526765  0  2.324718  0
O  O178  1  0.67192742  0.43463025  0.22728346  1  -1.179477  0  -0.325618  -0.557336  0  2.321656  0
O  O179  1  0.72220229  0.21792545  0.16563874  1  -1.1787  0  -0.309712  -0.539598  0  2.437474  0
O  O180  1  0.87758818  0.22420102  0.16934230  1  -1.172942  0  -0.324063  -0.550857  0  2.335694  0
O  O181  1  0.85969045  0.25484312  0.30729883  1  -1.169796  0  -0.309124  -0.537821  0  2.448687  0
O  O182  1  0.93416096  0.17164371  0.22838539  1  -1.138777  0  -0.311199  -0.52124  0  2.337775  0
O  O183  1  0.75260211  0.36513873  0.30872762  1  -1.168926  0  -0.31263  -0.540227  0  2.311322  0
O  O184  1  0.74637686  0.09149708  0.29956136  1  -1.170749  0  -0.325059  -0.55557  0  2.326993  0
O  O185  1  0.85880255  0.09679341  0.30339202  1  -1.145488  0  -0.312084  -0.52079  0  2.336642  0
O  O186  1  0.25045069  0.75012436  0.74984306  1  -1.223432  0  -0.570097  -1.030219  0  2.524013  0
O  O187  1  0.37430706  0.72340427  0.66862194  1  -1.158983  0  -0.312834  -0.525274  0  2.329192  0
O  O188  1  0.36352318  0.75705068  0.80708134  1  -1.17282  0  -0.311482  -0.536756  0  2.325595  0
O  O189  1  0.17033854  0.93472835  0.72693619  1  -1.172459  0  -0.32567  -0.553521  0  2.331998  0
O  O190  1  0.43473407  0.67438706  0.72661303  1  -1.163305  0  -0.325443  -0.555023  0  2.32989  0
O  O191  1  0.22304744  0.87454060  0.66915622  1  -1.153692  0  -0.312242  -0.52504  0  2.332354  0
O  O192  1  0.25088884  0.86171881  0.80797489  1  -1.169106  0  -0.310815  -0.541356  0  2.428866  0
O  O193  1  0.09406184  0.85873430  0.80227006  1  -1.170029  0  -0.324777  -0.55237  0  2.332321  0
O  O194  1  0.16756634  0.66259233  0.72046727  1  -1.168559  0  -0.309859  -0.539413  0  2.434916  0
O  O195  1  0.09521202  0.74259421  0.80103097  1  -1.164581  0  -0.312521  -0.523889  0  2.332526  0
O  O196  1  0.21711978  0.71857083  0.66439326  1  -1.174041  0  -0.310119  -0.534338  0  2.32838  0
O  O197  1  0.36075492  0.59835422  0.80281154  1  -1.148485  0  -0.313892  -0.528327  0  2.322488  0
O  O198  1  0.24782707  0.59258572  0.80080724  1  -1.171929  0  -0.32442  -0.55062  0  2.339176  0
O  O199  1  0.49998790  0.00058775  0.99957845  1  -1.226575  0  -0.57019  -1.030771  0  2.521187  0
O  O200  1  0.50289465  0.15851142  0.95037070  1  -1.174801  0  -0.325  -0.554472  0  2.331037  0
O  O201  1  0.38901328  0.99341821  0.94091712  1  -1.167607  0  -0.310979  -0.535606  0  2.329658  0
O  O202  1  0.65548457  0.89227142  0.94754435  1  -1.165353  0  -0.325632  -0.553965  0  2.332936  0
O  O203  1  0.39138889  0.15185878  0.94585718  1  -1.163314  0  -0.312491  -0.524135  0  2.329151  0
O  O204  1  0.65519435  0.00757295  0.95019425  1  -1.164543  0  -0.313024  -0.527439  0  2.321369  0
O  O205  1  0.49920636  0.88615906  0.94290757  1  -1.17789  0  -0.310325  -0.540037  0  2.425348  0
O  O206  1  0.58020350  0.81555523  0.02334974  1  -1.169926  0  -0.325242  -0.5538  0  2.330996  0
O  O207  1  0.52809907  0.03175704  0.08442125  1  -1.179581  0  -0.309605  -0.539289  0  2.437265  0
O  O208  1  0.52243380  0.87540938  0.08088630  1  -1.165466  0  -0.312472  -0.524574  0  2.331613  0
O  O209  1  0.58425763  0.08770001  0.03159096  1  -1.170684  0  -0.3107  -0.536617  0  2.320187  0
O  O210  1  0.31559056  0.07631685  0.02094276  1  -1.156904  0  -0.312506  -0.525324  0  2.328335  0
O  O211  1  0.37180331  0.02687462  0.08025576  1  -1.168411  0  -0.324517  -0.551464  0  2.338929  0
O  O212  1  0.28582260  0.52500747  0.40978037  1  -1.088061  0  -0.329927  -0.396724  0  2.274326  0
O  O213  1  0.46388064  0.22441713  0.34034876  1  -1.083946  0  -0.33041  -0.39583  0  2.268691  0
O  O214  1  0.77954064  0.54045679  0.65647094  1  -1.123318  0  -0.329714  -0.395136  0  2.26944  0
O  O215  1  0.47104350  0.70894281  0.59378831  1  -1.116186  0  -0.329643  -0.39593  0  2.268059  0
O  O216  1  0.04109456  0.27923952  0.65535174  1  -1.118765  0  -0.329287  -0.394641  0  2.269323  0
O  O217  1  0.20952211  0.97006241  0.59448592  1  -1.086191  0  -0.329583  -0.395643  0  2.271059  0
O  O218  1  0.78496902  0.77846393  0.40216017  1  -1.092226  0  -0.329685  -0.397428  0  2.274449  0
O  O219  1  0.96306933  0.97105115  0.34841301  1  -1.076387  0  -0.329471  -0.396687  0  2.271948  0
O  O220  1  0.70979693  0.47086304  0.09455041  1  -1.098553  0  -0.329681  -0.396302  0  2.273801  0
O  O221  1  0.53959411  0.77957814  0.15583129  1  -1.118784  0  -0.330464  -0.397761  0  2.274334  0
O  O222  1  0.09437993  0.10220276  0.21766798  1  -1.102026  0  -0.329229  -0.395518  0  2.273987  0
O  O223  1  0.15476383  0.14819976  0.03202671  1  -1.089643  0  -0.329129  -0.39567  0  2.268593  0
O  O224  1  0.46567774  0.47114120  0.84814052  1  -1.086775  0  -0.330175  -0.396273  0  2.270459  0
O  O225  1  0.28634054  0.27944590  0.90135629  1  -1.110126  0  -0.330343  -0.395881  0  2.267557  0
O  O226  1  0.96346675  0.72470182  0.84047110  1  -1.083455  0  -0.330673  -0.397837  0  2.272514  0
O  O227  1  0.78668716  0.02600245  0.90947669  1  -1.122781  0  -0.330761  -0.397043  0  2.267804  0
