# generated using pymatgen
data_CdH9C5Br2NO2
_symmetry_space_group_name_H-M   'P 1'
_cell_length_a   7.41300458
_cell_length_b   10.13976242
_cell_length_c   12.88669182
_cell_angle_alpha   89.99968599
_cell_angle_beta   89.99923140
_cell_angle_gamma   90.00034585
_symmetry_Int_Tables_number   1
_chemical_formula_structural   CdH9C5Br2NO2
_chemical_formula_sum   'Cd4 H36 C20 Br8 N4 O8'
_cell_volume   968.64243358
_cell_formula_units_Z   4
loop_
 _symmetry_equiv_pos_site_id
 _symmetry_equiv_pos_as_xyz
  1  'x, y, z'
loop_
 _atom_site_type_symbol
 _atom_site_label
 _atom_site_symmetry_multiplicity
 _atom_site_fract_x
 _atom_site_fract_y
 _atom_site_fract_z
 _atom_site_occupancy
 _atom_site_hle17_bader_spin_density
 _atom_site_hle17_ddec_charge
 _atom_site_hle17_ddec_spin_density
 _atom_site_hle17_ddec_sum_bond_order
 _atom_site_hle17_magmom
 _atom_site_hse06_10hf_bader_spin_density
 _atom_site_hse06_10hf_ddec_charge
 _atom_site_hse06_10hf_ddec_spin_density
 _atom_site_hse06_10hf_ddec_sum_bond_order
 _atom_site_hse06_10hf_magmom
 _atom_site_hse06_bader_spin_density
 _atom_site_hse06_ddec_charge
 _atom_site_hse06_ddec_spin_density
 _atom_site_hse06_ddec_sum_bond_order
 _atom_site_hse06_magmom
 _atom_site_pbe_bader_spin_density
 _atom_site_pbe_cm5_charge
 _atom_site_pbe_ddec_charge
 _atom_site_pbe_ddec_spin_density
 _atom_site_pbe_ddec_sum_bond_order
 _atom_site_pbe_magmom
Cd  Cd0  1  0.30921904  0.24274253  0.99767480  1  0  0.954353  0  1.990005  0  0  0.809793  0  2.451819  0  0  0.86009  0  2.404321  0  0  0.532451  0.774732  0  2.484096  0
Cd  Cd1  1  0.80921951  0.25726416  0.00232661  1  0  0.954313  0  1.98997  0  0  0.809733  0  2.451768  0  0  0.860028  0  2.404278  0  0  0.532447  0.774633  0  2.484117  0
Cd  Cd2  1  0.69078608  0.74273805  0.50232168  1  0  0.954279  0  1.98997  0  0  0.809719  0  2.451796  0  0  0.860017  0  2.404301  0  0  0.532462  0.774648  0  2.48409  0
Cd  Cd3  1  0.19079190  0.75726001  0.49767461  1  0  0.954317  0  1.990037  0  0  0.809781  0  2.451847  0  0  0.860075  0  2.404354  0  0  0.53243  0.774704  0  2.484153  0
H  H4  1  0.78220025  0.99756281  0.20299182  1  0  0.306777  0  0.853689  0  0  0.289483  0  0.910526  0  0  0.298261  0  0.903482  0  0  0.316697  0.283068  0  0.915822  0
H  H5  1  0.28219968  0.50243564  0.79700919  1  0  0.306784  0  0.853778  0  0  0.289469  0  0.910642  0  0  0.298248  0  0.903599  0  0  0.316656  0.283051  0  0.915942  0
H  H6  1  0.21780915  0.49757026  0.29700681  1  0  0.306591  0  0.853837  0  0  0.289336  0  0.910673  0  0  0.298115  0  0.903632  0  0  0.316637  0.282917  0  0.91597  0
H  H7  1  0.71781014  0.00242913  0.70299066  1  0  0.306584  0  0.853835  0  0  0.289335  0  0.910664  0  0  0.298109  0  0.903633  0  0  0.316665  0.282929  0  0.915953  0
H  H8  1  0.82331698  0.88122455  0.29380032  1  0  0.288142  0  0.886239  0  0  0.265894  0  0.958366  0  0  0.27343  0  0.952479  0  0  0.29583  0.260432  0  0.962843  0
H  H9  1  0.32331006  0.61877506  0.70619960  1  0  0.288238  0  0.886241  0  0  0.265987  0  0.958339  0  0  0.273522  0  0.952453  0  0  0.295867  0.260525  0  0.962817  0
H  H10  1  0.17668333  0.38122950  0.20619959  1  0  0.288092  0  0.886159  0  0  0.265878  0  0.958279  0  0  0.273415  0  0.952392  0  0  0.295821  0.260413  0  0.96276  0
H  H11  1  0.67668861  0.11876775  0.79380130  1  0  0.288084  0  0.886191  0  0  0.265864  0  0.958321  0  0  0.2734  0  0.952437  0  0  0.29581  0.260402  0  0.962796  0
H  H12  1  0.11662015  0.93434169  0.27652544  1  0  0.088504  0  0.951151  0  0  0.092651  0  1.021182  0  0  0.095541  0  1.019352  0  0  0.102617  0.090249  0  1.023208  0
H  H13  1  0.61661446  0.56565703  0.72347143  1  0  0.088743  0  0.951178  0  0  0.092774  0  1.021141  0  0  0.095665  0  1.01931  0  0  0.102628  0.090371  0  1.023167  0
H  H14  1  0.88338466  0.43435252  0.22347035  1  0  0.088701  0  0.951007  0  0  0.092636  0  1.021082  0  0  0.095524  0  1.019256  0  0  0.102644  0.090255  0  1.023082  0
H  H15  1  0.38338915  0.06563773  0.77653513  1  0  0.088777  0  0.951042  0  0  0.09268  0  1.021132  0  0  0.095575  0  1.019292  0  0  0.102633  0.090278  0  1.023158  0
H  H16  1  0.22119931  0.88586121  0.07483800  1  0  0.094279  0  0.945249  0  0  0.107974  0  1.009755  0  0  0.109392  0  1.009713  0  0  0.094839  0.106701  0  1.010215  0
H  H17  1  0.72119476  0.61413402  0.92515495  1  0  0.094327  0  0.945172  0  0  0.108031  0  1.009709  0  0  0.109451  0  1.009664  0  0  0.094851  0.106758  0  1.010168  0
H  H18  1  0.77879700  0.38586130  0.42515801  1  0  0.094359  0  0.945216  0  0  0.108088  0  1.009701  0  0  0.109507  0  1.009656  0  0  0.094881  0.106814  0  1.010162  0
H  H19  1  0.27879982  0.11413342  0.57485373  1  0  0.09429  0  0.945383  0  0  0.108058  0  1.009815  0  0  0.109479  0  1.009769  0  0  0.094838  0.106787  0  1.010274  0
H  H20  1  0.16631987  0.75488139  0.16148214  1  0  0.090994  0  0.928172  0  0  0.104927  0  0.989711  0  0  0.107059  0  0.988878  0  0  0.091605  0.104076  0  0.989158  0
H  H21  1  0.66632248  0.74511558  0.83851511  1  0  0.09096  0  0.928198  0  0  0.104907  0  0.989746  0  0  0.10704  0  0.988915  0  0  0.091614  0.104053  0  0.989193  0
H  H22  1  0.83369152  0.25489218  0.33851210  1  0  0.091034  0  0.928118  0  0  0.104951  0  0.989711  0  0  0.107062  0  0.988903  0  0  0.091578  0.104099  0  0.989159  0
H  H23  1  0.33368400  0.24510771  0.66150076  1  0  0.091028  0  0.928078  0  0  0.10491  0  0.989702  0  0  0.107034  0  0.988885  0  0  0.091559  0.104061  0  0.989148  0
H  H24  1  0.95478841  0.71411832  0.01857204  1  0  0.082299  0  0.971334  0  0  0.098419  0  1.035117  0  0  0.099746  0  1.035072  0  0  0.085689  0.09719  0  1.03542  0
H  H25  1  0.45479004  0.78588186  0.98142297  1  0  0.08235  0  0.971286  0  0  0.098396  0  1.035155  0  0  0.099725  0  1.035107  0  0  0.085654  0.097165  0  1.035461  0
H  H26  1  0.04520374  0.21412277  0.48142237  1  0  0.082341  0  0.9713  0  0  0.098442  0  1.035137  0  0  0.099771  0  1.03509  0  0  0.085689  0.097208  0  1.035447  0
H  H27  1  0.54520060  0.28588279  0.51858575  1  0  0.082371  0  0.971245  0  0  0.098415  0  1.03514  0  0  0.099743  0  1.03509  0  0  0.085639  0.097185  0  1.035448  0
H  H28  1  0.91652281  0.88639946  0.00094666  1  0  0.079104  0  0.96238  0  0  0.08981  0  1.033181  0  0  0.091469  0  1.033044  0  0  0.078233  0.088599  0  1.032918  0
H  H29  1  0.41652257  0.61360253  0.99905485  1  0  0.079057  0  0.962437  0  0  0.089756  0  1.033223  0  0  0.091415  0  1.033091  0  0  0.078205  0.088543  0  1.032966  0
H  H30  1  0.08346810  0.38640296  0.49905865  1  0  0.079024  0  0.962429  0  0  0.089743  0  1.033225  0  0  0.091401  0  1.033091  0  0  0.078179  0.088529  0  1.032969  0
H  H31  1  0.58346796  0.11360276  0.50094141  1  0  0.079017  0  0.962442  0  0  0.08976  0  1.033201  0  0  0.09142  0  1.033067  0  0  0.078208  0.088556  0  1.032939  0
H  H32  1  0.78730787  0.71046840  0.18114197  1  0  0.087885  0  0.935979  0  0  0.102781  0  0.994724  0  0  0.103913  0  0.994534  0  0  0.108921  0.101842  0  0.995167  0
H  H33  1  0.28730789  0.78953106  0.81885978  1  0  0.087909  0  0.935948  0  0  0.102793  0  0.994676  0  0  0.103926  0  0.994487  0  0  0.10892  0.101854  0  0.995118  0
H  H34  1  0.21268560  0.21047864  0.31885712  1  0  0.087907  0  0.935882  0  0  0.102766  0  0.99466  0  0  0.103899  0  0.994466  0  0  0.10892  0.101829  0  0.995106  0
H  H35  1  0.71269358  0.28952468  0.68114349  1  0  0.087879  0  0.935894  0  0  0.102769  0  0.994642  0  0  0.103908  0  0.994456  0  0  0.108914  0.101831  0  0.995086  0
H  H36  1  0.66004500  0.82972165  0.11057328  1  0  0.080181  0  0.937604  0  0  0.094816  0  0.999239  0  0  0.096118  0  0.998344  0  0  0.104223  0.093733  0  1.000135  0
H  H37  1  0.16004103  0.67027331  0.88943101  1  0  0.080211  0  0.937583  0  0  0.094801  0  0.999259  0  0  0.096099  0  0.998367  0  0  0.104214  0.093717  0  1.000155  0
H  H38  1  0.33995622  0.32973195  0.38943073  1  0  0.080197  0  0.93766  0  0  0.094828  0  0.999284  0  0  0.096131  0  0.998389  0  0  0.10426  0.093746  0  1.000181  0
H  H39  1  0.83995807  0.17026797  0.61056423  1  0  0.080226  0  0.937585  0  0  0.09485  0  0.999229  0  0  0.09616  0  0.998334  0  0  0.104275  0.093768  0  1.000124  0
C  C40  1  0.05528645  0.08506861  0.16317026  1  0  0.647359  0  3.864007  0  0  0.595803  0  4.168408  0  0  0.629654  0  4.162079  0  0  0.207036  0.572792  0  4.171798  0
C  C41  1  0.55528920  0.41493996  0.83682692  1  0  0.647525  0  3.863499  0  0  0.595823  0  4.167939  0  0  0.629674  0  4.161611  0  0  0.207115  0.572815  0  4.171327  0
C  C42  1  0.94469786  0.58507078  0.33684256  1  0  0.647229  0  3.864021  0  0  0.595554  0  4.168374  0  0  0.629402  0  4.162051  0  0  0.206902  0.572545  0  4.171767  0
C  C43  1  0.44472413  0.91492443  0.66315718  1  0  0.647467  0  3.863609  0  0  0.595756  0  4.167993  0  0  0.629605  0  4.161666  0  0  0.207097  0.572749  0  4.171382  0
C  C44  1  0.04534630  0.94198300  0.20214897  1  0  0.015959  0  3.475819  0  0  -0.004879  0  3.71515  0  0  -0.005778  0  3.725065  0  0  0.003807  -0.004322  0  3.708458  0
C  C45  1  0.54535097  0.55801246  0.79784302  1  0  0.01544  0  3.476379  0  0  -0.004881  0  3.715112  0  0  -0.005778  0  3.725018  0  0  0.0038  -0.004325  0  3.708423  0
C  C46  1  0.95465318  0.44200052  0.29785377  1  0  0.015512  0  3.476308  0  0  -0.004642  0  3.714953  0  0  -0.005531  0  3.724855  0  0  0.003732  -0.004103  0  3.708252  0
C  C47  1  0.45465798  0.05799200  0.70215038  1  0  0.015457  0  3.476334  0  0  -0.004601  0  3.714849  0  0  -0.005489  0  3.724751  0  0  0.003773  -0.004052  0  3.708157  0
C  C48  1  0.11298470  0.84232823  0.12156657  1  0  -0.133706  0  3.614309  0  0  -0.1755  0  3.867219  0  0  -0.176834  0  3.879502  0  0  -0.160463  -0.174426  0  3.857634  0
C  C49  1  0.61298295  0.65767146  0.87842955  1  0  -0.133555  0  3.614251  0  0  -0.175559  0  3.867176  0  0  -0.176894  0  3.879447  0  0  -0.160501  -0.17448  0  3.857587  0
C  C50  1  0.88701124  0.34234096  0.37842575  1  0  -0.133719  0  3.614404  0  0  -0.17572  0  3.867328  0  0  -0.177038  0  3.879594  0  0  -0.160426  -0.174644  0  3.857749  0
C  C51  1  0.38701200  0.15765720  0.62158049  1  0  -0.133695  0  3.614389  0  0  -0.175728  0  3.867288  0  0  -0.17706  0  3.879553  0  0  -0.160414  -0.174651  0  3.857709  0
C  C52  1  0.94345557  0.80905135  0.05869700  1  0  -0.141091  0  3.655839  0  0  -0.180355  0  3.913706  0  0  -0.182957  0  3.92732  0  0  -0.17145  -0.177724  0  3.903434  0
C  C53  1  0.44345866  0.69094977  0.94130043  1  0  -0.141124  0  3.655765  0  0  -0.180285  0  3.913555  0  0  -0.182889  0  3.927175  0  0  -0.17139  -0.177655  0  3.903288  0
C  C54  1  0.05653334  0.30905810  0.44130244  1  0  -0.141031  0  3.65593  0  0  -0.180283  0  3.913814  0  0  -0.182886  0  3.927428  0  0  -0.171412  -0.17765  0  3.903547  0
C  C55  1  0.55653522  0.19094850  0.55870171  1  0  -0.141054  0  3.655594  0  0  -0.180268  0  3.913486  0  0  -0.182862  0  3.92711  0  0  -0.171403  -0.177647  0  3.903222  0
C  C56  1  0.79417775  0.80468082  0.13999153  1  0  0.045599  0  3.48623  0  0  -0.012814  0  3.74157  0  0  -0.008423  0  3.750638  0  0  -0.062881  -0.01578  0  3.735391  0
C  C57  1  0.29417467  0.69531571  0.86000705  1  0  0.04562  0  3.486149  0  0  -0.012746  0  3.741448  0  0  -0.008346  0  3.750493  0  0  -0.062859  -0.015712  0  3.735269  0
C  C58  1  0.20582191  0.30468976  0.36001258  1  0  0.045549  0  3.486234  0  0  -0.01279  0  3.741584  0  0  -0.008414  0  3.750681  0  0  -0.062913  -0.015761  0  3.735409  0
C  C59  1  0.70582195  0.19531057  0.63999118  1  0  0.045558  0  3.486023  0  0  -0.012859  0  3.741501  0  0  -0.008485  0  3.750575  0  0  -0.062928  -0.015829  0  3.735326  0
Br  Br60  1  0.06608278  0.45101456  0.02603726  1  0  -0.514873  0  1.086133  0  0  -0.455846  0  1.39105  0  0  -0.477288  0  1.366843  0  0  -0.225945  -0.441061  0  1.407849  0
Br  Br61  1  0.56611837  0.04899306  0.97396992  1  0  -0.514892  0  1.086086  0  0  -0.455859  0  1.390975  0  0  -0.477332  0  1.366829  0  0  -0.225959  -0.441074  0  1.407772  0
Br  Br62  1  0.93389384  0.95100686  0.47397476  1  0  -0.514904  0  1.086149  0  0  -0.455878  0  1.39103  0  0  -0.477354  0  1.366883  0  0  -0.225977  -0.441095  0  1.407826  0
Br  Br63  1  0.43391208  0.54898830  0.52602740  1  0  -0.514899  0  1.086157  0  0  -0.455874  0  1.391059  0  0  -0.477345  0  1.366908  0  0  -0.225953  -0.441098  0  1.407854  0
Br  Br64  1  0.55146626  0.38542794  0.11938297  1  0  -0.514851  0  0.980287  0  0  -0.448632  0  1.252552  0  0  -0.470353  0  1.230291  0  0  -0.263124  -0.432815  0  1.267887  0
Br  Br65  1  0.05151193  0.11458356  0.88061346  1  0  -0.514845  0  0.980291  0  0  -0.448626  0  1.252564  0  0  -0.470344  0  1.230302  0  0  -0.26311  -0.432815  0  1.267909  0
Br  Br66  1  0.44850306  0.88541585  0.38060372  1  0  -0.514828  0  0.980256  0  0  -0.44865  0  1.252556  0  0  -0.470347  0  1.230262  0  0  -0.263108  -0.432832  0  1.26788  0
Br  Br67  1  0.94853392  0.61458430  0.61938746  1  0  -0.514866  0  0.980234  0  0  -0.448685  0  1.252542  0  0  -0.47039  0  1.23026  0  0  -0.263145  -0.432851  0  1.267831  0
N  N68  1  0.84851559  0.90870973  0.21790171  1  0  -0.291493  0  3.276474  0  0  -0.225764  0  3.48234  0  0  -0.239298  0  3.48918  0  0  -0.472663  -0.216628  0  3.478153  0
N  N69  1  0.34851207  0.59129098  0.78209413  1  0  -0.291561  0  3.276566  0  0  -0.22596  0  3.482403  0  0  -0.239496  0  3.489241  0  0  -0.472658  -0.216823  0  3.478224  0
N  N70  1  0.15148631  0.40872194  0.28209886  1  0  -0.291176  0  3.276215  0  0  -0.225751  0  3.482145  0  0  -0.23928  0  3.488961  0  0  -0.472619  -0.216602  0  3.477947  0
N  N71  1  0.65148771  0.09127718  0.71790378  1  0  -0.291189  0  3.276415  0  0  -0.225723  0  3.482216  0  0  -0.239256  0  3.489061  0  0  -0.472594  -0.216583  0  3.478021  0
O  O72  1  0.21121957  0.12947438  0.14528211  1  0  -0.626516  0  2.072782  0  0  -0.570993  0  2.329914  0  0  -0.598302  0  2.319674  0  0  -0.333644  -0.552292  0  2.336384  0
O  O73  1  0.71119590  0.37051907  0.85471618  1  0  -0.626453  0  2.072914  0  0  -0.570907  0  2.330112  0  0  -0.598211  0  2.319874  0  0  -0.333588  -0.552206  0  2.336583  0
O  O74  1  0.78878535  0.62948365  0.35470724  1  0  -0.626229  0  2.073317  0  0  -0.570703  0  2.330473  0  0  -0.598007  0  2.320241  0  0  -0.333447  -0.552008  0  2.336939  0
O  O75  1  0.28878602  0.87051877  0.64528285  1  0  -0.626491  0  2.072827  0  0  -0.570972  0  2.330025  0  0  -0.59828  0  2.319787  0  0  -0.333608  -0.552271  0  2.336494  0
O  O76  1  0.90562353  0.14589240  0.15384325  1  0  -0.638931  0  2.063519  0  0  -0.577501  0  2.31353  0  0  -0.605361  0  2.303804  0  0  -0.331787  -0.558281  0  2.319807  0
O  O77  1  0.40557761  0.35411175  0.84616207  1  0  -0.639047  0  2.06247  0  0  -0.577636  0  2.312588  0  0  -0.605506  0  2.302869  0  0  -0.331891  -0.558415  0  2.318861  0
O  O78  1  0.09439906  0.64590565  0.34615845  1  0  -0.638928  0  2.062561  0  0  -0.57758  0  2.312717  0  0  -0.605449  0  2.302999  0  0  -0.331782  -0.558359  0  2.318992  0
O  O79  1  0.59440957  0.85410383  0.65383626  1  0  -0.638836  0  2.062707  0  0  -0.577493  0  2.312892  0  0  -0.605356  0  2.303176  0  0  -0.33182  -0.558283  0  2.319168  0
