# generated using pymatgen
data_NaCoH14C10(NO4)2
_symmetry_space_group_name_H-M   'P 1'
_cell_length_a   6.32879355
_cell_length_b   8.72647464
_cell_length_c   13.04995032
_cell_angle_alpha   74.23405436
_cell_angle_beta   75.93432878
_cell_angle_gamma   68.76566822
_symmetry_Int_Tables_number   1
_chemical_formula_structural   NaCoH14C10(NO4)2
_chemical_formula_sum   'Na2 Co2 H28 C20 N4 O16'
_cell_volume   638.06026454
_cell_formula_units_Z   2
loop_
 _symmetry_equiv_pos_site_id
 _symmetry_equiv_pos_as_xyz
  1  'x, y, z'
loop_
 _atom_site_type_symbol
 _atom_site_label
 _atom_site_symmetry_multiplicity
 _atom_site_fract_x
 _atom_site_fract_y
 _atom_site_fract_z
 _atom_site_occupancy
 _atom_site_hle17_bader_spin_density
 _atom_site_hle17_ddec_charge
 _atom_site_hle17_ddec_spin_density
 _atom_site_hle17_ddec_sum_bond_order
 _atom_site_hle17_magmom
 _atom_site_hse06_10hf_bader_spin_density
 _atom_site_hse06_10hf_ddec_charge
 _atom_site_hse06_10hf_ddec_spin_density
 _atom_site_hse06_10hf_ddec_sum_bond_order
 _atom_site_hse06_10hf_magmom
 _atom_site_hse06_bader_spin_density
 _atom_site_hse06_ddec_charge
 _atom_site_hse06_ddec_spin_density
 _atom_site_hse06_ddec_sum_bond_order
 _atom_site_hse06_magmom
 _atom_site_pbe_bader_spin_density
 _atom_site_pbe_cm5_charge
 _atom_site_pbe_ddec_charge
 _atom_site_pbe_ddec_spin_density
 _atom_site_pbe_ddec_sum_bond_order
 _atom_site_pbe_magmom
Na  Na0  1  0.48591943  0.24984396  0.74992623  1  0  0.90209  0  0.296132  0  0  0.83831  0  0.449371  0  0  0.856204  0  0.422303  0  0  0.597138  0.824724  0  0.469543  0
Na  Na1  1  0.51407985  0.75015673  0.25007471  1  0  0.9021  0  0.296122  0  0  0.83831  0  0.449384  0  0  0.856205  0  0.422316  0  0  0.597153  0.824725  0  0.469557  0
Co  Co2  1  0.99999987  0.49999912  0.50000057  1  0  0.745779  0  2.764016  0  0  0.817122  0  3.136284  0  0  0.900413  0  3.089554  0  0  0.761607  0.76444  0  3.170014  0
Co  Co3  1  0.99999796  0.00000118  0.99999881  1  0  0.745317  0  2.763251  0  0  0.816538  0  3.135201  0  0  0.899548  0  3.088701  0  0  0.761273  0.764568  0  3.168056  0
H  H4  1  0.98651112  0.88900796  0.43341502  1  0  0.131057  0  0.938692  0  0  0.14405  0  0.999096  0  0  0.14705  0  0.997798  0  0  0.127221  0.14129  0  1.002  0
H  H5  1  0.30884505  0.61094136  0.06648702  1  0  0.131168  0  0.940608  0  0  0.142987  0  1.002671  0  0  0.146013  0  1.001182  0  0  0.126935  0.140685  0  1.003951  0
H  H6  1  0.01348811  0.11099145  0.56658340  1  0  0.131049  0  0.938688  0  0  0.144044  0  0.999088  0  0  0.147043  0  0.997791  0  0  0.12721  0.141282  0  1.001998  0
H  H7  1  0.69115059  0.38905933  0.93351430  1  0  0.131148  0  0.940624  0  0  0.142981  0  1.002679  0  0  0.146008  0  1.001188  0  0  0.126915  0.140676  0  1.003968  0
H  H8  1  0.73369874  0.94238681  0.53149986  1  0  0.124157  0  0.936489  0  0  0.13618  0  0.9958  0  0  0.138829  0  0.995121  0  0  0.118663  0.133919  0  0.998186  0
H  H9  1  0.20722974  0.55756046  0.96857389  1  0  0.124312  0  0.937182  0  0  0.136406  0  0.996688  0  0  0.139044  0  0.995891  0  0  0.119147  0.134216  0  0.997852  0
H  H10  1  0.26630117  0.05761261  0.46849951  1  0  0.124147  0  0.936534  0  0  0.136172  0  0.99585  0  0  0.138821  0  0.99517  0  0  0.118653  0.13391  0  0.998234  0
H  H11  1  0.79276644  0.44243897  0.03142760  1  0  0.124306  0  0.937154  0  0  0.136404  0  0.996664  0  0  0.139042  0  0.995868  0  0  0.119141  0.134216  0  0.997827  0
H  H12  1  0.66610842  0.78575829  0.68023573  1  0  0.127197  0  0.934747  0  0  0.139125  0  0.996296  0  0  0.14194  0  0.994876  0  0  0.122541  0.137187  0  0.997388  0
H  H13  1  0.13207350  0.71410008  0.81985790  1  0  0.127408  0  0.934715  0  0  0.139306  0  0.996267  0  0  0.141978  0  0.994906  0  0  0.122156  0.137367  0  0.997355  0
H  H14  1  0.33389562  0.21424490  0.31976390  1  0  0.127174  0  0.934761  0  0  0.139112  0  0.996297  0  0  0.141927  0  0.994876  0  0  0.122526  0.137173  0  0.997397  0
H  H15  1  0.86792676  0.28590185  0.18014133  1  0  0.127408  0  0.934701  0  0  0.13931  0  0.996237  0  0  0.141984  0  0.994875  0  0  0.122166  0.137369  0  0.99732  0
H  H16  1  0.90443980  0.63352358  0.73701956  1  0  0.126625  0  0.940006  0  0  0.140082  0  1.000258  0  0  0.14276  0  0.99927  0  0  0.123782  0.138001  0  1.001571  0
H  H17  1  0.27452858  0.86679639  0.76302018  1  0  0.126522  0  0.939428  0  0  0.140412  0  0.999372  0  0  0.142964  0  0.998408  0  0  0.123957  0.138291  0  1.0005  0
H  H18  1  0.09556541  0.36647709  0.26297869  1  0  0.126607  0  0.939937  0  0  0.140037  0  1.000232  0  0  0.142712  0  0.999249  0  0  0.123783  0.13796  0  1.001539  0
H  H19  1  0.72547475  0.13320178  0.23697975  1  0  0.126508  0  0.939439  0  0  0.140393  0  0.999388  0  0  0.142947  0  0.998426  0  0  0.12396  0.138268  0  1.00052  0
H  H20  1  0.29565234  0.70147809  0.50546800  1  0  0.119735  0  0.941729  0  0  0.134576  0  1.0071  0  0  0.137172  0  1.00507  0  0  0.114237  0.132538  0  1.008726  0
H  H21  1  0.50255666  0.79846911  0.99430075  1  0  0.119877  0  0.941987  0  0  0.135356  0  1.006848  0  0  0.137963  0  1.004813  0  0  0.114854  0.13342  0  1.008261  0
H  H22  1  0.70435411  0.29851758  0.49453512  1  0  0.119727  0  0.941695  0  0  0.134558  0  1.007095  0  0  0.137153  0  1.005066  0  0  0.114222  0.132527  0  1.008716  0
H  H23  1  0.49744208  0.20153283  0.00570002  1  0  0.119878  0  0.942019  0  0  0.135363  0  1.006865  0  0  0.13797  0  1.004832  0  0  0.114868  0.13343  0  1.008273  0
H  H24  1  0.25493204  0.58708397  0.64041336  1  0  0.112185  0  0.959442  0  0  0.126259  0  1.028634  0  0  0.128717  0  1.026909  0  0  0.112244  0.124521  0  1.030105  0
H  H25  1  0.48255710  0.91278737  0.85936625  1  0  0.113387  0  0.958251  0  0  0.126844  0  1.028353  0  0  0.129274  0  1.026676  0  0  0.112676  0.124957  0  1.029701  0
H  H26  1  0.74506460  0.41291421  0.35959001  1  0  0.112203  0  0.95945  0  0  0.126272  0  1.028657  0  0  0.12873  0  1.026932  0  0  0.112246  0.124531  0  1.030131  0
H  H27  1  0.51744128  0.08721206  0.14063466  1  0  0.11336  0  0.958193  0  0  0.126837  0  1.028294  0  0  0.129267  0  1.026616  0  0  0.112683  0.124949  0  1.029644  0
H  H28  1  0.14168940  0.81143685  0.61368066  1  0  0.102702  0  0.950929  0  0  0.122084  0  1.014533  0  0  0.12241  0  1.015629  0  0  0.103065  0.120823  0  1.016573  0
H  H29  1  0.56642674  0.68844793  0.88615384  1  0  0.102464  0  0.953265  0  0  0.121648  0  1.01784  0  0  0.122151  0  1.018524  0  0  0.10299  0.121143  0  1.017424  0
H  H30  1  0.85831317  0.18856132  0.38632003  1  0  0.10272  0  0.950887  0  0  0.122106  0  1.0145  0  0  0.122434  0  1.015593  0  0  0.103072  0.120845  0  1.016537  0
H  H31  1  0.43357762  0.31155275  0.11384690  1  0  0.102541  0  0.953251  0  0  0.121768  0  1.01776  0  0  0.122272  0  1.018444  0  0  0.103043  0.121265  0  1.017347  0
C  C32  1  0.85014936  0.84339084  0.48828126  1  0  -0.204681  0  3.576292  0  0  -0.255613  0  3.818207  0  0  -0.258753  0  3.825327  0  0  -0.071225  -0.254566  0  3.816675  0
C  C33  1  0.18159922  0.65654608  0.01178705  1  0  -0.206004  0  3.57858  0  0  -0.257265  0  3.821599  0  0  -0.260199  0  3.828364  0  0  -0.072506  -0.255307  0  3.817871  0
C  C34  1  0.14985088  0.15660607  0.51171922  1  0  -0.204707  0  3.576281  0  0  -0.255629  0  3.818232  0  0  -0.258764  0  3.825347  0  0  -0.071227  -0.254576  0  3.816701  0
C  C35  1  0.81839718  0.34345460  0.98821350  1  0  -0.205963  0  3.578448  0  0  -0.257189  0  3.821469  0  0  -0.26014  0  3.82827  0  0  -0.07249  -0.255232  0  3.817746  0
C  C36  1  0.70644072  0.52631339  0.68788742  1  0  0.665653  0  3.854653  0  0  0.624484  0  4.162285  0  0  0.660485  0  4.152785  0  0  0.208055  0.599558  0  4.16807  0
C  C37  1  0.92019345  0.97335587  0.81240460  1  0  0.664774  0  3.853889  0  0  0.623873  0  4.160842  0  0  0.659794  0  4.151393  0  0  0.208379  0.599067  0  4.166836  0
C  C38  1  0.29356319  0.47368854  0.31211143  1  0  0.665772  0  3.854496  0  0  0.624554  0  4.162206  0  0  0.660563  0  4.152693  0  0  0.208029  0.599625  0  4.167998  0
C  C39  1  0.07980745  0.02664479  0.18759308  1  0  0.664738  0  3.853907  0  0  0.623826  0  4.160865  0  0  0.659749  0  4.151418  0  0  0.208356  0.599016  0  4.166859  0
C  C40  1  0.72606386  0.80678110  0.41685593  1  0  0.666406  0  3.853558  0  0  0.624758  0  4.162031  0  0  0.660822  0  4.152165  0  0  0.208725  0.600067  0  4.167566  0
C  C41  1  0.94966721  0.69302010  0.08344990  1  0  0.663437  0  3.852465  0  0  0.623159  0  4.15883  0  0  0.659202  0  4.149068  0  0  0.207333  0.598283  0  4.165011  0
C  C42  1  0.27393782  0.19321581  0.58314473  1  0  0.666429  0  3.853681  0  0  0.624745  0  4.162194  0  0  0.660806  0  4.152332  0  0  0.208734  0.600049  0  4.167737  0
C  C43  1  0.05032852  0.30698057  0.91654970  1  0  0.663369  0  3.852448  0  0  0.622972  0  4.15901  0  0  0.659013  0  4.149248  0  0  0.2072  0.598099  0  4.165185  0
C  C44  1  0.80445022  0.66745462  0.67163782  1  0  -0.199641  0  3.56357  0  0  -0.251327  0  3.804116  0  0  -0.254056  0  3.810846  0  0  -0.068727  -0.249738  0  3.800048  0
C  C45  1  0.14323060  0.83252832  0.82846608  1  0  -0.199524  0  3.561772  0  0  -0.251198  0  3.802018  0  0  -0.253456  0  3.808332  0  0  -0.068751  -0.249423  0  3.797991  0
C  C46  1  0.19555346  0.33254605  0.32836196  1  0  -0.199568  0  3.563404  0  0  -0.251217  0  3.803976  0  0  -0.253944  0  3.810697  0  0  -0.068663  -0.249633  0  3.79991  0
C  C47  1  0.85676909  0.16746985  0.17153423  1  0  -0.199426  0  3.561732  0  0  -0.251103  0  3.802028  0  0  -0.253364  0  3.808349  0  0  -0.06874  -0.249316  0  3.797988  0
C  C48  1  0.17810548  0.69819607  0.58222334  1  0  -0.184017  0  3.555916  0  0  -0.279182  0  3.809362  0  0  -0.275972  0  3.815411  0  0  -0.141904  -0.281105  0  3.807251  0
C  C49  1  0.45840782  0.80174087  0.91760228  1  0  -0.186705  0  3.558692  0  0  -0.282661  0  3.814135  0  0  -0.279537  0  3.820017  0  0  -0.144308  -0.284291  0  3.810148  0
C  C50  1  0.82189325  0.30180586  0.41777743  1  0  -0.184019  0  3.555861  0  0  -0.279172  0  3.809315  0  0  -0.275963  0  3.815364  0  0  -0.141892  -0.281097  0  3.807196  0
C  C51  1  0.54159203  0.19826358  0.08239758  1  0  -0.186791  0  3.558686  0  0  -0.282779  0  3.814122  0  0  -0.279655  0  3.820006  0  0  -0.144386  -0.28441  0  3.810139  0
N  N52  1  0.95896361  0.68951500  0.56560900  1  0  -0.043931  0  3.234887  0  0  0.015128  0  3.49251  0  0  -0.005342  0  3.515553  0  0  -0.332217  0.029574  0  3.476606  0
N  N53  1  0.21388375  0.81047165  0.93440456  1  0  -0.041677  0  3.232126  0  0  0.017595  0  3.488459  0  0  -0.003145  0  3.511513  0  0  -0.329814  0.030565  0  3.47358  0
N  N54  1  0.04103796  0.31048567  0.43438964  1  0  -0.043934  0  3.234836  0  0  0.01509  0  3.492516  0  0  -0.00538  0  3.515555  0  0  -0.332237  0.029539  0  3.476612  0
N  N55  1  0.78611540  0.18952777  0.06559559  1  0  -0.041711  0  3.232159  0  0  0.017513  0  3.488547  0  0  -0.003223  0  3.511597  0  0  -0.329813  0.030481  0  3.473669  0
O  O56  1  0.76866884  0.64913516  0.41725447  1  0  -0.564143  0  2.096961  0  0  -0.543186  0  2.364363  0  0  -0.5779  0  2.35617  0  0  -0.311386  -0.519849  0  2.370279  0
O  O57  1  0.83517626  0.85066316  0.08310485  1  0  -0.563519  0  2.097055  0  0  -0.543106  0  2.364143  0  0  -0.577929  0  2.356051  0  0  -0.311673  -0.519988  0  2.369691  0
O  O58  1  0.23133436  0.35086175  0.58274466  1  0  -0.56417  0  2.096989  0  0  -0.543208  0  2.364405  0  0  -0.577923  0  2.356215  0  0  -0.31138  -0.519871  0  2.370324  0
O  O59  1  0.16481892  0.14933877  0.91689459  1  0  -0.563507  0  2.097142  0  0  -0.543065  0  2.36429  0  0  -0.577884  0  2.356196  0  0  -0.311665  -0.519946  0  2.369832  0
O  O60  1  0.77375855  0.43974153  0.61251291  1  0  -0.557677  0  2.11388  0  0  -0.539182  0  2.383727  0  0  -0.573827  0  2.37569  0  0  -0.307353  -0.515816  0  2.389461  0
O  O61  1  0.82560587  0.05990592  0.88779710  1  0  -0.556564  0  2.114809  0  0  -0.537937  0  2.384279  0  0  -0.572535  0  2.376328  0  0  -0.307019  -0.514575  0  2.389623  0
O  O62  1  0.22623942  0.56026041  0.38748863  1  0  -0.557749  0  2.113776  0  0  -0.539221  0  2.383635  0  0  -0.573875  0  2.375607  0  0  -0.307361  -0.515855  0  2.389373  0
O  O63  1  0.17439282  0.94009475  0.11220115  1  0  -0.556515  0  2.114864  0  0  -0.537875  0  2.384327  0  0  -0.572474  0  2.37638  0  0  -0.306971  -0.514511  0  2.38967  0
O  O64  1  0.59648328  0.92183684  0.35825998  1  0  -0.620938  0  1.924705  0  0  -0.581406  0  2.155706  0  0  -0.604501  0  2.145362  0  0  -0.337398  -0.563796  0  2.162061  0
O  O65  1  0.87659402  0.57791844  0.14217870  1  0  -0.618472  0  1.923969  0  0  -0.578524  0  2.153782  0  0  -0.601603  0  2.143514  0  0  -0.335463  -0.5616  0  2.160426  0
O  O66  1  0.40351727  0.07816131  0.64173784  1  0  -0.620924  0  1.924831  0  0  -0.58134  0  2.155788  0  0  -0.604434  0  2.145445  0  0  -0.33736  -0.563729  0  2.162147  0
O  O67  1  0.12339918  0.42208475  0.85782038  1  0  -0.618411  0  1.923931  0  0  -0.578424  0  2.153811  0  0  -0.601502  0  2.143543  0  0  -0.335322  -0.561501  0  2.160455  0
O  O68  1  0.57035140  0.49429531  0.77121569  1  0  -0.624344  0  1.927298  0  0  -0.584178  0  2.160999  0  0  -0.607725  0  2.150949  0  0  -0.347525  -0.566975  0  2.167012  0
O  O69  1  0.83534827  0.00521260  0.72918280  1  0  -0.624891  0  1.925912  0  0  -0.584721  0  2.158821  0  0  -0.608304  0  2.148946  0  0  -0.348325  -0.567708  0  2.165949  0
O  O70  1  0.42965211  0.50570538  0.22878753  1  0  -0.624387  0  1.927359  0  0  -0.584205  0  2.161072  0  0  -0.607753  0  2.151019  0  0  -0.34752  -0.567001  0  2.167087  0
O  O71  1  0.16465825  0.99478681  0.27081484  1  0  -0.624922  0  1.925851  0  0  -0.584736  0  2.15878  0  0  -0.60832  0  2.148906  0  0  -0.348321  -0.567723  0  2.165909  0
