# generated using pymatgen
data_Zr3H20C42(O8F3)2
_symmetry_space_group_name_H-M   'P 1'
_cell_length_a   19.17720044
_cell_length_b   19.17722682
_cell_length_c   19.17725014
_cell_angle_alpha   59.99990039
_cell_angle_beta   59.99979420
_cell_angle_gamma   60.00002384
_symmetry_Int_Tables_number   1
_chemical_formula_structural   Zr3H20C42(O8F3)2
_chemical_formula_sum   'Zr6 H40 C84 O32 F12'
_cell_volume   4987.02360165
_cell_formula_units_Z   2
loop_
 _symmetry_equiv_pos_site_id
 _symmetry_equiv_pos_as_xyz
  1  'x, y, z'
loop_
 _atom_site_type_symbol
 _atom_site_label
 _atom_site_symmetry_multiplicity
 _atom_site_fract_x
 _atom_site_fract_y
 _atom_site_fract_z
 _atom_site_occupancy
 _atom_site_pbe_bader_charge
 _atom_site_pbe_bader_spin_density
 _atom_site_pbe_cm5_charge
 _atom_site_pbe_ddec_charge
 _atom_site_pbe_ddec_spin_density
 _atom_site_pbe_ddec_sum_bond_order
 _atom_site_pbe_magmom
Zr  Zr0  1  0.90776233  0.40778455  0.59223228  1  2.638976  0  1.629084  2.379615  0  2.748347  0
Zr  Zr1  1  0.09221246  0.59220301  0.40779571  1  2.636547  0  1.628911  2.379353  0  2.748607  0
Zr  Zr2  1  0.09219616  0.40779233  0.59220451  1  2.636543  0  1.628794  2.379194  0  2.748953  0
Zr  Zr3  1  0.90781002  0.59218699  0.40781247  1  2.638146  0  1.628878  2.379068  0  2.749282  0
Zr  Zr4  1  0.90774338  0.59225610  0.59224151  1  2.636868  0  1.629173  2.379955  0  2.748384  0
Zr  Zr5  1  0.09222146  0.40775905  0.40776820  1  2.638966  0  1.62919  2.379912  0  2.748346  0
H  H6  1  0.92749336  0.42749791  0.71751092  1  0.617038  0  0.331206  0.422046  0  0.85979  0
H  H7  1  0.92749554  0.71751121  0.42749528  1  0.617689  0  0.331148  0.421954  0  0.859924  0
H  H8  1  0.21750897  0.42749510  0.42749471  1  0.591034  0  0.331161  0.422023  0  0.859761  0
H  H9  1  0.92749561  0.42749572  0.42749676  1  0.611306  0  0.331177  0.422024  0  0.859539  0
H  H10  1  0.45089930  0.61355023  0.04957725  1  0.104093  0  0.109965  0.130218  0  1.005101  0
H  H11  1  0.54957711  0.38597113  0.95090197  1  0.106956  0  0.10996  0.130245  0  1.005071  0
H  H12  1  0.67940460  0.60953735  0.81833484  1  0.11469  0  0.115132  0.123992  0  0.982824  0
H  H13  1  0.55263494  0.61214543  0.94786907  1  0.063344  0  0.103775  0.106674  0  1.012173  0
H  H14  1  0.31833089  0.39272251  0.17940383  1  0.118012  0  0.115168  0.124052  0  0.982806  0
H  H15  1  0.44786836  0.38734963  0.05263574  1  0.050328  0  0.103771  0.106634  0  1.012207  0
H  H16  1  0.11355119  0.95089875  0.38597168  1  0.070588  0  0.109982  0.130265  0  1.005067  0
H  H17  1  0.88596930  0.04957625  0.61354994  1  0.068749  0  0.109983  0.130257  0  1.005083  0
H  H18  1  0.10954038  0.17940448  0.39272344  1  0.122806  0  0.115155  0.124033  0  0.982838  0
H  H19  1  0.11214674  0.05263460  0.38735184  1  0.065863  0  0.103795  0.106681  0  1.012187  0
H  H20  1  0.89272137  0.81833236  0.60953997  1  0.12798  0  0.115177  0.124054  0  0.982808  0
H  H21  1  0.88734843  0.94786931  0.61214448  1  0.058421  0  0.103774  0.106646  0  1.012185  0
H  H22  1  0.45090162  0.04957514  0.38596885  1  0.106854  0  0.109959  0.130238  0  1.00508  0
H  H23  1  0.54957542  0.95089902  0.61355373  1  0.103912  0  0.109963  0.130247  0  1.005093  0
H  H24  1  0.67940218  0.81833511  0.39272267  1  0.118116  0  0.115145  0.123979  0  0.982706  0
H  H25  1  0.55263355  0.94786847  0.38735223  1  0.050214  0  0.103764  0.106643  0  1.01212  0
H  H26  1  0.31833479  0.17940108  0.60953690  1  0.11484  0  0.115157  0.124013  0  0.982774  0
H  H27  1  0.44786843  0.05263272  0.61214395  1  0.063326  0  0.103781  0.10667  0  1.012112  0
H  H28  1  0.88596623  0.61355121  0.95090397  1  0.070626  0  0.109963  0.130235  0  1.00508  0
H  H29  1  0.11355179  0.38596914  0.04957604  1  0.068716  0  0.109965  0.130252  0  1.005085  0
H  H30  1  0.89272495  0.60953707  0.17939970  1  0.122933  0  0.115134  0.123946  0  0.982878  0
H  H31  1  0.88735158  0.61214493  0.05263283  1  0.06595  0  0.103753  0.106628  0  1.012152  0
H  H32  1  0.10953471  0.39272805  0.81833306  1  0.127896  0  0.115125  0.124016  0  0.982753  0
H  H33  1  0.11214373  0.38735376  0.94786474  1  0.058634  0  0.103816  0.106721  0  1.0121  0
H  H34  1  0.88596849  0.95090243  0.04957837  1  0.106865  0  0.110002  0.130307  0  1.005002  0
H  H35  1  0.11355188  0.04957454  0.95090064  1  0.103775  0  0.109958  0.130217  0  1.005087  0
H  H36  1  0.89272330  0.17940127  0.81833415  1  0.117908  0  0.115135  0.124005  0  0.982734  0
H  H37  1  0.88735083  0.05263194  0.94787007  1  0.050126  0  0.103774  0.10667  0  1.012189  0
H  H38  1  0.10953819  0.81833114  0.17940468  1  0.114728  0  0.115146  0.124021  0  0.982774  0
H  H39  1  0.11214679  0.94786607  0.05263428  1  0.063265  0  0.103793  0.106672  0  1.012151  0
H  H40  1  0.45090251  0.38596863  0.61355026  1  0.070612  0  0.110002  0.130292  0  1.005061  0
H  H41  1  0.54957756  0.61355013  0.38597122  1  0.068781  0  0.109973  0.130222  0  1.005124  0
H  H42  1  0.67940310  0.39272456  0.60953965  1  0.122855  0  0.11514  0.124039  0  0.982791  0
H  H43  1  0.55263392  0.38735064  0.61214754  1  0.065902  0  0.103781  0.106672  0  1.012182  0
H  H44  1  0.31833327  0.60953826  0.39272316  1  0.127811  0  0.115128  0.124002  0  0.982729  0
H  H45  1  0.44786791  0.61214609  0.38735122  1  0.058458  0  0.103774  0.106677  0  1.012156  0
C  C46  1  0.76365696  0.50046552  0.73236358  1  1.587554  0  0.234036  0.653794  0  4.111431  0
C  C47  1  0.00350862  0.73235926  0.50046938  1  1.581118  0  0.234077  0.653658  0  4.111233  0
C  C48  1  0.23235519  0.50350946  0.26366216  1  1.584549  0  0.234066  0.653745  0  4.111154  0
C  C49  1  0.00046094  0.26365976  0.50351733  1  1.587808  0  0.234007  0.653433  0  4.111182  0
C  C50  1  0.00351382  0.26365505  0.73236217  1  1.584154  0  0.23401  0.653638  0  4.111658  0
C  C51  1  0.76365537  0.50351211  0.50047063  1  1.588059  0  0.234105  0.653715  0  4.111548  0
C  C52  1  0.00046243  0.73235709  0.26366020  1  1.586991  0  0.233957  0.653524  0  4.111398  0
C  C53  1  0.23236098  0.50046185  0.50351644  1  1.5809  0  0.233925  0.653427  0  4.111287  0
C  C54  1  0.00044382  0.50353234  0.73235817  1  1.582218  0  0.234287  0.654048  0  4.110751  0
C  C55  1  0.23235648  0.26365902  0.50045052  1  1.587402  0  0.234193  0.654001  0  4.110998  0
C  C56  1  0.00352610  0.50045063  0.26365979  1  1.587825  0  0.234089  0.653717  0  4.111315  0
C  C57  1  0.76365767  0.73236061  0.50352598  1  1.584409  0  0.234026  0.653732  0  4.111127  0
C  C58  1  0.31077660  0.50424686  0.18646799  1  0.028044  0  -0.024348  -0.158757  0  3.953432  0
C  C59  1  0.68646948  0.49850288  0.81078229  1  0.079174  0  -0.024345  -0.158775  0  3.953655  0
C  C60  1  0.35137526  0.56498695  0.14709707  1  0.443764  0  0.110316  0.296637  0  4.036037  0
C  C61  1  0.42437642  0.56355484  0.07547133  1  0.010708  0  -0.100061  -0.266111  0  3.972883  0
C  C62  1  0.64709985  0.43653578  0.85137802  1  0.397211  0  0.110317  0.296664  0  4.035992  0
C  C63  1  0.57547266  0.43659277  0.92438055  1  0.008682  0  -0.100044  -0.266168  0  3.972925  0
C  C64  1  0.64953168  0.56107689  0.84870525  1  -0.058613  0  -0.075332  -0.057517  0  3.982462  0
C  C65  1  0.57800101  0.56192080  0.92178550  1  -0.061156  0  -0.094909  -0.152216  0  3.98455  0
C  C66  1  0.34870130  0.44068657  0.14952982  1  -0.056497  0  -0.075433  -0.057706  0  3.982443  0
C  C67  1  0.42178241  0.43829360  0.07800010  1  -0.05168  0  -0.094893  -0.152078  0  3.98451  0
C  C68  1  0.46148842  0.50016427  0.03874635  1  0.065229  0  0.002172  0.10526  0  3.985526  0
C  C69  1  0.53874791  0.49959779  0.96149022  1  0.005164  0  0.002196  0.105325  0  3.985584  0
C  C70  1  0.00424560  0.81077996  0.49850349  1  0.124223  0  -0.024381  -0.158832  0  3.953311  0
C  C71  1  0.99850462  0.18646711  0.50424788  1  0.035956  0  -0.024431  -0.158824  0  3.953487  0
C  C72  1  0.06498443  0.85137907  0.43653815  1  0.393525  0  0.110387  0.29686  0  4.035777  0
C  C73  1  0.06355245  0.92438010  0.43659445  1  0.100065  0  -0.100105  -0.266301  0  3.972903  0
C  C74  1  0.93653549  0.14709686  0.56498780  1  0.459897  0  0.110346  0.296691  0  4.036057  0
C  C75  1  0.93659202  0.07547157  0.56355430  1  0.085383  0  -0.100078  -0.266185  0  3.972998  0
C  C76  1  0.06108028  0.14952908  0.44068680  1  -0.039315  0  -0.075347  -0.05758  0  3.982457  0
C  C77  1  0.06192152  0.07800018  0.43829300  1  -0.024796  0  -0.094925  -0.152177  0  3.984545  0
C  C78  1  0.94068333  0.84870455  0.56107919  1  -0.083533  0  -0.075432  -0.05768  0  3.982401  0
C  C79  1  0.93829099  0.92178499  0.56192064  1  -0.014344  0  -0.094896  -0.152127  0  3.984583  0
C  C80  1  0.00016261  0.96149084  0.49959871  1  -0.10673  0  0.002222  0.105341  0  3.985473  0
C  C81  1  0.99959668  0.03874844  0.50016379  1  -0.052509  0  0.002185  0.105313  0  3.985537  0
C  C82  1  0.31078047  0.18646400  0.49850249  1  0.079302  0  -0.024408  -0.158975  0  3.953782  0
C  C83  1  0.68646532  0.81078205  0.50424728  1  0.027535  0  -0.024402  -0.158947  0  3.953795  0
C  C84  1  0.35137648  0.14709737  0.43653295  1  0.397283  0  0.110353  0.296747  0  4.036256  0
C  C85  1  0.42437814  0.07547015  0.43659230  1  0.009521  0  -0.100107  -0.266211  0  3.972936  0
C  C86  1  0.64710050  0.85137674  0.56498888  1  0.443702  0  0.110306  0.296626  0  4.03622  0
C  C87  1  0.57546982  0.92437702  0.56355858  1  0.010854  0  -0.100075  -0.266157  0  3.972947  0
C  C88  1  0.64952856  0.84870071  0.44069101  1  -0.056038  0  -0.075347  -0.057443  0  3.982473  0
C  C89  1  0.57800079  0.92178304  0.43829468  1  -0.051486  0  -0.094903  -0.152155  0  3.984515  0
C  C90  1  0.34869936  0.14952851  0.56107698  1  -0.059132  0  -0.075372  -0.057468  0  3.982489  0
C  C91  1  0.42178311  0.07799798  0.56191935  1  -0.060653  0  -0.094973  -0.152312  0  3.984541  0
C  C92  1  0.46148889  0.03874439  0.49959915  1  0.00431  0  0.00224  0.105365  0  3.985584  0
C  C93  1  0.53874684  0.96148638  0.50016610  1  0.065222  0  0.002218  0.105282  0  3.985663  0
C  C94  1  0.99849760  0.50424947  0.81078229  1  0.124103  0  -0.024409  -0.159005  0  3.953753  0
C  C95  1  0.00424732  0.49850090  0.18646661  1  0.035712  0  -0.024453  -0.158897  0  3.953722  0
C  C96  1  0.93653071  0.56498967  0.85137945  1  0.393256  0  0.110324  0.296694  0  4.036356  0
C  C97  1  0.93658856  0.56355518  0.92438259  1  0.099995  0  -0.100056  -0.266161  0  3.972826  0
C  C98  1  0.06498929  0.43653371  0.14709835  1  0.459975  0  0.11038  0.296708  0  4.036133  0
C  C99  1  0.06355557  0.43659024  0.07547211  1  0.085387  0  -0.100064  -0.26617  0  3.97289  0
C  C100  1  0.94068892  0.56107411  0.14953117  1  -0.039072  0  -0.075324  -0.057424  0  3.982627  0
C  C101  1  0.93829407  0.56191846  0.07800162  1  -0.025007  0  -0.094901  -0.152194  0  3.984633  0
C  C102  1  0.06107305  0.44069228  0.84870050  1  -0.082595  0  -0.075365  -0.057507  0  3.982435  0
C  C103  1  0.06191669  0.43829777  0.92178271  1  -0.015031  0  -0.094959  -0.1523  0  3.984583  0
C  C104  1  0.99959633  0.50016198  0.96149201  1  -0.106657  0  0.002202  0.10535  0  3.985514  0
C  C105  1  0.00016173  0.49959634  0.03875013  1  -0.052728  0  0.002196  0.10532  0  3.985475  0
C  C106  1  0.99850186  0.81078204  0.18646872  1  0.079397  0  -0.024383  -0.158787  0  3.953564  0
C  C107  1  0.00424844  0.18646511  0.81078056  1  0.027567  0  -0.024436  -0.158922  0  3.953642  0
C  C108  1  0.93653301  0.85138070  0.14710059  1  0.397214  0  0.110373  0.29679  0  4.036137  0
C  C109  1  0.93659218  0.92438146  0.07547261  1  0.008714  0  -0.100093  -0.266263  0  3.972992  0
C  C110  1  0.06498696  0.14709423  0.85137936  1  0.443869  0  0.110376  0.2968  0  4.035885  0
C  C111  1  0.06355499  0.07546874  0.92438050  1  0.010963  0  -0.100092  -0.266218  0  3.972931  0
C  C112  1  0.94068757  0.14952632  0.84870457  1  -0.055747  0  -0.075326  -0.057504  0  3.982448  0
C  C113  1  0.93829417  0.07799794  0.92178386  1  -0.051743  0  -0.094933  -0.152251  0  3.984641  0
C  C114  1  0.06107796  0.84870298  0.14953148  1  -0.059167  0  -0.075397  -0.057583  0  3.982408  0
C  C115  1  0.06192090  0.92178353  0.07800111  1  -0.060672  0  -0.094918  -0.152184  0  3.984497  0
C  C116  1  0.99959710  0.96148985  0.03874941  1  0.060015  0  0.002163  0.105268  0  3.985587  0
C  C117  1  0.00016436  0.03874534  0.96149081  1  0.010429  0  0.002243  0.105421  0  3.985403  0
C  C118  1  0.31078188  0.49850187  0.50424734  1  0.124537  0  -0.024389  -0.158741  0  3.953534  0
C  C119  1  0.68646466  0.50424833  0.49850648  1  0.035586  0  -0.024423  -0.158826  0  3.953612  0
C  C120  1  0.35138247  0.43653293  0.56498490  1  0.393533  0  0.110316  0.296696  0  4.036219  0
C  C121  1  0.42438129  0.43659199  0.56355368  1  0.099893  0  -0.100092  -0.26622  0  3.973069  0
C  C122  1  0.64709588  0.56498886  0.43653869  1  0.460225  0  0.110364  0.296738  0  4.035986  0
C  C123  1  0.57547044  0.56355618  0.43659514  1  0.085104  0  -0.10007  -0.266175  0  3.972965  0
C  C124  1  0.64952704  0.44068766  0.56108126  1  -0.039609  0  -0.075356  -0.057602  0  3.982484  0
C  C125  1  0.57799742  0.43829538  0.56192422  1  -0.024753  0  -0.094958  -0.152249  0  3.984627  0
C  C126  1  0.34870451  0.56107647  0.44068756  1  -0.083194  0  -0.075326  -0.057502  0  3.982311  0
C  C127  1  0.42178444  0.56192058  0.43829311  1  -0.014441  0  -0.094902  -0.152204  0  3.984565  0
C  C128  1  0.46149051  0.49959840  0.50016347  1  -0.106733  0  0.002185  0.105263  0  3.985573  0
C  C129  1  0.53874706  0.50016490  0.49959928  1  -0.052316  0  0.002246  0.105426  0  3.985474  0
O  O130  1  0.79506039  0.44225638  0.70033351  1  -1.17367  0  -0.360668  -0.620705  0  2.316854  0
O  O131  1  0.06234551  0.70032783  0.44225867  1  -1.172869  0  -0.360629  -0.620534  0  2.316491  0
O  O132  1  0.20032929  0.56234448  0.29506804  1  -1.172118  0  -0.360705  -0.620668  0  2.316493  0
O  O133  1  0.94224966  0.29506710  0.56234876  1  -1.181127  0  -0.360588  -0.620423  0  2.316391  0
O  O134  1  0.06235027  0.29506193  0.70033464  1  -1.171969  0  -0.360642  -0.620642  0  2.316573  0
O  O135  1  0.79506256  0.56234854  0.44225647  1  -1.181305  0  -0.360657  -0.620705  0  2.316414  0
O  O136  1  0.94224940  0.70032915  0.29506608  1  -1.173289  0  -0.360514  -0.620511  0  2.316478  0
O  O137  1  0.20033276  0.44224962  0.56235268  1  -1.173054  0  -0.36051  -0.620491  0  2.316241  0
O  O138  1  0.94222716  0.56237193  0.70034348  1  -1.173559  0  -0.360756  -0.620845  0  2.316539  0
O  O139  1  0.20033762  0.29505075  0.44223679  1  -1.173662  0  -0.360753  -0.620858  0  2.316582  0
O  O140  1  0.06236505  0.44223407  0.29505202  1  -1.181479  0  -0.360648  -0.620685  0  2.31675  0
O  O141  1  0.79504752  0.70034508  0.56236602  1  -1.172052  0  -0.360631  -0.620679  0  2.31691  0
O  O142  1  0.20363025  0.29340847  0.55976832  1  -1.181997  0  -0.348368  -0.611431  0  2.262596  0
O  O143  1  0.94318629  0.55976292  0.29341304  1  -1.18407  0  -0.348329  -0.611302  0  2.262676  0
O  O144  1  0.79341130  0.70363126  0.44318892  1  -1.180423  0  -0.348375  -0.611314  0  2.262446  0
O  O145  1  0.05976219  0.44319102  0.70363118  1  -1.18153  0  -0.348434  -0.611426  0  2.262591  0
O  O146  1  0.94316846  0.29339545  0.70364805  1  -1.180292  0  -0.34831  -0.611381  0  2.262699  0
O  O147  1  0.20364816  0.55978255  0.44316630  1  -1.181157  0  -0.348336  -0.611359  0  2.262561  0
O  O148  1  0.05978374  0.70364269  0.29340078  1  -1.182133  0  -0.348365  -0.611376  0  2.262478  0
O  O149  1  0.79339402  0.44316585  0.55979038  1  -1.184016  0  -0.348384  -0.611452  0  2.262799  0
O  O150  1  0.05978409  0.29339764  0.44316737  1  -1.18423  0  -0.348362  -0.611268  0  2.262658  0
O  O151  1  0.79339496  0.55978742  0.70364614  1  -1.182124  0  -0.348354  -0.61136  0  2.262836  0
O  O152  1  0.94315914  0.70365239  0.55978792  1  -1.181354  0  -0.348379  -0.61136  0  2.262778  0
O  O153  1  0.20364303  0.44316513  0.29339738  1  -1.180477  0  -0.348324  -0.611345  0  2.262621  0
O  O154  1  0.94814079  0.44810332  0.44812932  1  -1.24095  0  -0.695763  -1.07063  0  2.370869  0
O  O155  1  0.15562305  0.44811653  0.44810919  1  -1.222427  0  -0.695755  -1.070645  0  2.370922  0
O  O156  1  0.94811683  0.65562530  0.44815015  1  -1.248809  0  -0.69572  -1.070492  0  2.371171  0
O  O157  1  0.94809678  0.44814814  0.65562658  1  -1.248294  0  -0.695784  -1.070685  0  2.370979  0
O  O158  1  0.03820094  0.53824912  0.53824119  1  -1.196078  0  -0.79138  -1.150238  0  2.125754  0
O  O159  1  0.88529808  0.53823172  0.53825904  1  -1.194474  0  -0.791434  -1.150006  0  2.125519  0
O  O160  1  0.03824687  0.53821043  0.38530101  1  -1.193907  0  -0.7914  -1.150061  0  2.125925  0
O  O161  1  0.03821776  0.38530655  0.53822035  1  -1.194558  0  -0.791308  -1.14989  0  2.125255  0
F  F162  1  0.32092354  0.62886275  0.17756364  1  -0.625775  0  -0.100904  -0.140048  0  1.343969  0
F  F163  1  0.67757039  0.37264543  0.82092443  1  -0.627492  0  -0.100924  -0.140089  0  1.344011  0
F  F164  1  0.12886493  0.82092359  0.37265053  1  -0.63228  0  -0.100971  -0.140137  0  1.34387  0
F  F165  1  0.87264765  0.17756482  0.62886263  1  -0.628159  0  -0.10089  -0.140046  0  1.344079  0
F  F166  1  0.32092125  0.17756854  0.37264363  1  -0.62765  0  -0.100905  -0.140037  0  1.344175  0
F  F167  1  0.67756591  0.82091888  0.62886556  1  -0.625868  0  -0.100879  -0.140001  0  1.344223  0
F  F168  1  0.87264367  0.62886250  0.82092264  1  -0.632382  0  -0.100929  -0.140061  0  1.344214  0
F  F169  1  0.12886682  0.37265136  0.17756462  1  -0.628233  0  -0.100949  -0.140088  0  1.344062  0
F  F170  1  0.87264312  0.82092856  0.17756651  1  -0.627491  0  -0.100958  -0.140131  0  1.344092  0
F  F171  1  0.12886463  0.17755815  0.82092856  1  -0.625804  0  -0.100957  -0.140103  0  1.34386  0
F  F172  1  0.32093016  0.37264322  0.62886213  1  -0.632364  0  -0.100942  -0.140107  0  1.344064  0
F  F173  1  0.67756053  0.62886589  0.37264774  1  -0.628364  0  -0.100948  -0.140089  0  1.343956  0
