# generated using pymatgen
data_HgH11C11N3Cl2
_symmetry_space_group_name_H-M   'P 1'
_cell_length_a   7.74863772
_cell_length_b   12.08859236
_cell_length_c   13.83160000
_cell_angle_alpha   92.18489989
_cell_angle_beta   90.00000000
_cell_angle_gamma   90.00000000
_symmetry_Int_Tables_number   1
_chemical_formula_structural   HgH11C11N3Cl2
_chemical_formula_sum   'Hg4 H44 C44 N12 Cl8'
_cell_volume   1294.66576147
_cell_formula_units_Z   4
loop_
 _symmetry_equiv_pos_site_id
 _symmetry_equiv_pos_as_xyz
  1  'x, y, z'
loop_
 _atom_site_type_symbol
 _atom_site_label
 _atom_site_symmetry_multiplicity
 _atom_site_fract_x
 _atom_site_fract_y
 _atom_site_fract_z
 _atom_site_occupancy
 _atom_site_hle17_bader_spin_density
 _atom_site_hle17_ddec_charge
 _atom_site_hle17_ddec_spin_density
 _atom_site_hle17_ddec_sum_bond_order
 _atom_site_hle17_magmom
 _atom_site_hse06_10hf_bader_spin_density
 _atom_site_hse06_10hf_ddec_charge
 _atom_site_hse06_10hf_ddec_spin_density
 _atom_site_hse06_10hf_ddec_sum_bond_order
 _atom_site_hse06_10hf_magmom
 _atom_site_hse06_bader_spin_density
 _atom_site_hse06_ddec_charge
 _atom_site_hse06_ddec_spin_density
 _atom_site_hse06_ddec_sum_bond_order
 _atom_site_hse06_magmom
 _atom_site_pbe_bader_charge
 _atom_site_pbe_bader_spin_density
 _atom_site_pbe_cm5_charge
 _atom_site_pbe_ddec_charge
 _atom_site_pbe_ddec_spin_density
 _atom_site_pbe_ddec_sum_bond_order
 _atom_site_pbe_magmom
Hg  Hg0  1  0.11800784  0.00751171  0.25877208  1  0  0.733703  0  2.099152  0  0  0.566303  0  2.601659  0  0  0.615325  0  2.567036  0  0.808064  0  0.525738  0.532996  0  2.624527  0
Hg  Hg1  1  0.61800799  0.49248647  0.24122898  1  0  0.733747  0  2.099115  0  0  0.566372  0  2.601614  0  0  0.615394  0  2.566992  0  0.808147  0  0.525746  0.533062  0  2.624483  0
Hg  Hg2  1  0.88199116  0.99248796  0.74122870  1  0  0.73372  0  2.099102  0  0  0.566344  0  2.601603  0  0  0.615367  0  2.566982  0  0.808083  0  0.525759  0.533038  0  2.624467  0
Hg  Hg3  1  0.38198973  0.50751072  0.75876955  1  0  0.733749  0  2.099046  0  0  0.566374  0  2.601545  0  0  0.615396  0  2.56692  0  0.808083  0  0.525742  0.533064  0  2.624412  0
H  H4  1  0.61010982  0.31997705  0.36736301  1  0  0.261398  0  0.969762  0  0  0.242429  0  1.045726  0  0  0.24876  0  1.041353  0  0.456224  0  0.277746  0.237964  0  1.048807  0
H  H5  1  0.11011097  0.18002362  0.13263741  1  0  0.261416  0  0.969751  0  0  0.242451  0  1.045687  0  0  0.248783  0  1.041312  0  0.456223  0  0.277766  0.237985  0  1.048769  0
H  H6  1  0.38988789  0.68002511  0.63263786  1  0  0.261383  0  0.969785  0  0  0.242422  0  1.045724  0  0  0.248753  0  1.041352  0  0.456242  0  0.277749  0.237957  0  1.048803  0
H  H7  1  0.88989062  0.81997771  0.86736270  1  0  0.261393  0  0.969754  0  0  0.24243  0  1.045713  0  0  0.248761  0  1.041341  0  0.456223  0  0.277758  0.237964  0  1.048793  0
H  H8  1  0.33674435  0.18413544  0.39440937  1  0  0.078788  0  0.96221  0  0  0.083545  0  1.036227  0  0  0.085751  0  1.034493  0  0.099582  0  0.106978  0.081978  0  1.037466  0
H  H9  1  0.83674579  0.31585943  0.10559158  1  0  0.078788  0  0.962226  0  0  0.0836  0  1.036212  0  0  0.085809  0  1.034473  0  0.099542  0  0.106998  0.08203  0  1.037453  0
H  H10  1  0.66325723  0.81586589  0.60559219  1  0  0.078814  0  0.962206  0  0  0.083563  0  1.03625  0  0  0.085769  0  1.034514  0  0.099582  0  0.106985  0.081997  0  1.037487  0
H  H11  1  0.16325837  0.68413445  0.89440829  1  0  0.078838  0  0.962191  0  0  0.083609  0  1.036223  0  0  0.085817  0  1.034483  0  0.099551  0  0.106997  0.082043  0  1.03746  0
H  H12  1  0.83665803  0.05503732  0.46618866  1  0  0.093248  0  0.936278  0  0  0.105747  0  0.996489  0  0  0.108334  0  0.994225  0  0.100357  0  0.10361  0.103821  0  0.998157  0
H  H13  1  0.33666047  0.44496252  0.03381318  1  0  0.093248  0  0.936288  0  0  0.105773  0  0.996474  0  0  0.108355  0  0.994214  0  0.100353  0  0.103618  0.103847  0  0.998142  0
H  H14  1  0.16334355  0.94496318  0.53381070  1  0  0.093235  0  0.936322  0  0  0.10574  0  0.996526  0  0  0.108327  0  0.994261  0  0.100368  0  0.103613  0.103814  0  0.998194  0
H  H15  1  0.66334499  0.55503881  0.96618911  1  0  0.093254  0  0.936293  0  0  0.105754  0  0.996502  0  0  0.108341  0  0.994238  0  0.100351  0  0.103621  0.103827  0  0.998172  0
H  H16  1  0.76640181  0.88585130  0.36141612  1  0  0.100835  0  0.987189  0  0  0.107551  0  1.053535  0  0  0.1105  0  1.053005  0  0.114488  0  0.092154  0.105393  0  1.054129  0
H  H17  1  0.26639650  0.61414821  0.13858289  1  0  0.100813  0  0.987225  0  0  0.107533  0  1.053572  0  0  0.11048  0  1.053041  0  0.114515  0  0.092151  0.105376  0  1.054165  0
H  H18  1  0.23359719  0.11414920  0.63858253  1  0  0.100811  0  0.987228  0  0  0.107526  0  1.053578  0  0  0.110476  0  1.053049  0  0.114465  0  0.092138  0.105368  0  1.054171  0
H  H19  1  0.73359734  0.38585229  0.86141792  1  0  0.100779  0  0.987172  0  0  0.107486  0  1.053547  0  0  0.110436  0  1.053018  0  0.114507  0  0.092115  0.105329  0  1.054142  0
H  H20  1  0.47636115  0.87338918  0.28303954  1  0  0.077897  0  0.974363  0  0  0.083436  0  1.04639  0  0  0.085575  0  1.044502  0  0.129741  0  0.099  0.081796  0  1.047895  0
H  H21  1  0.97635743  0.62660868  0.21695869  1  0  0.077925  0  0.974379  0  0  0.083466  0  1.046398  0  0  0.085603  0  1.044511  0  0.12976  0  0.09902  0.081826  0  1.047902  0
H  H22  1  0.52363656  0.12661215  0.71696130  1  0  0.077874  0  0.974373  0  0  0.083409  0  1.046409  0  0  0.085549  0  1.044521  0  0.129722  0  0.098979  0.081769  0  1.047914  0
H  H23  1  0.02363770  0.37338685  0.78304051  1  0  0.077918  0  0.974354  0  0  0.08345  0  1.046387  0  0  0.085592  0  1.044494  0  0.129594  0  0.09901  0.081808  0  1.047893  0
H  H24  1  0.52376045  0.25034512  0.55342598  1  0  0.059918  0  0.931164  0  0  0.073823  0  1.000257  0  0  0.073  0  1.001605  0  0.069518  0  0.098601  0.074355  0  0.999396  0
H  H25  1  0.02376547  0.24965389  0.94657366  1  0  0.05995  0  0.931146  0  0  0.073859  0  1.000233  0  0  0.073032  0  1.001578  0  0.069557  0  0.098625  0.074389  0  0.999374  0
H  H26  1  0.47623984  0.74965455  0.44657480  1  0  0.059948  0  0.931129  0  0  0.073865  0  1.000222  0  0  0.073031  0  1.001562  0  0.069527  0  0.098609  0.074395  0  0.999361  0
H  H27  1  0.97623870  0.75034662  0.05342571  1  0  0.059957  0  0.931155  0  0  0.073866  0  1.000236  0  0  0.073029  0  1.001576  0  0.069534  0  0.098618  0.074398  0  0.999373  0
H  H28  1  0.74790695  0.22529008  0.54124032  1  0  0.069343  0  0.952729  0  0  0.082868  0  1.020333  0  0  0.083334  0  1.01972  0  0.080787  0  0.095903  0.082437  0  1.020944  0
H  H29  1  0.24791067  0.27470976  0.95876007  1  0  0.069298  0  0.952745  0  0  0.082824  0  1.020355  0  0  0.083287  0  1.019737  0  0.080758  0  0.09587  0.082394  0  1.020965  0
H  H30  1  0.25209464  0.77471208  0.45876054  1  0  0.069321  0  0.952759  0  0  0.082863  0  1.020362  0  0  0.083319  0  1.01974  0  0.080802  0  0.095895  0.082435  0  1.020969  0
H  H31  1  0.75209478  0.72528826  0.04123994  1  0  0.069346  0  0.952722  0  0  0.082873  0  1.020325  0  0  0.083326  0  1.019703  0  0.080799  0  0.095898  0.08244  0  1.020938  0
H  H32  1  0.73007414  0.39191282  0.62169389  1  0  0.111294  0  0.968069  0  0  0.119554  0  1.03424  0  0  0.1226  0  1.03413  0  0.0814  0  0.099179  0.117388  0  1.034498  0
H  H33  1  0.23007915  0.10808785  0.87830725  1  0  0.111303  0  0.968025  0  0  0.119559  0  1.034209  0  0  0.122609  0  1.034087  0  0.081418  0  0.099205  0.117394  0  1.034465  0
H  H34  1  0.26993003  0.60808934  0.37830842  1  0  0.111266  0  0.968112  0  0  0.119528  0  1.034289  0  0  0.122576  0  1.03417  0  0.081386  0  0.099188  0.117364  0  1.034546  0
H  H35  1  0.76991856  0.89191100  0.12169278  1  0  0.111278  0  0.96807  0  0  0.119527  0  1.034266  0  0  0.12258  0  1.034133  0  0.081441  0  0.099188  0.117362  0  1.034522  0
H  H36  1  0.85066050  0.57721632  0.66887000  1  0  0.090332  0  0.949748  0  0  0.100028  0  1.012567  0  0  0.102224  0  1.011133  0  0.079807  0  0.09693  0.098394  0  1.013633  0
H  H37  1  0.35066164  0.92278319  0.83113118  1  0  0.090225  0  0.949848  0  0  0.099931  0  1.012655  0  0  0.102126  0  1.011222  0  0.079801  0  0.096866  0.098298  0  1.01372  0
H  H38  1  0.14934754  0.42278832  0.33112372  1  0  0.090243  0  0.949727  0  0  0.09994  0  1.012567  0  0  0.102137  0  1.011134  0  0.079689  0  0.09688  0.098305  0  1.013632  0
H  H39  1  0.64933607  0.07721566  0.16887030  1  0  0.090327  0  0.949754  0  0  0.100022  0  1.012574  0  0  0.102218  0  1.01114  0  0.079765  0  0.096901  0.098388  0  1.013641  0
H  H40  1  0.89407071  0.71755635  0.54204726  1  0  0.101245  0  0.976168  0  0  0.110317  0  1.039816  0  0  0.113825  0  1.038535  0  0.066028  0  0.090706  0.107819  0  1.040897  0
H  H41  1  0.39406798  0.78244316  0.95795391  1  0  0.101229  0  0.976207  0  0  0.110312  0  1.039846  0  0  0.113818  0  1.038569  0  0.066095  0  0.090705  0.107814  0  1.040926  0
H  H42  1  0.10593217  0.28244415  0.45794560  1  0  0.101236  0  0.976157  0  0  0.110309  0  1.039816  0  0  0.113816  0  1.038535  0  0.066023  0  0.090692  0.10781  0  1.040897  0
H  H43  1  0.60592973  0.21755734  0.04204762  1  0  0.101198  0  0.97623  0  0  0.110283  0  1.03987  0  0  0.113789  0  1.038594  0  0.066088  0  0.09069  0.107784  0  1.040953  0
H  H44  1  0.78993369  0.67059863  0.37337325  1  0  0.06439  0  0.97104  0  0  0.070152  0  1.045861  0  0  0.072392  0  1.042907  0  0.112655  0  0.096278  0.068475  0  1.048032  0
H  H45  1  0.28992967  0.82940171  0.12662723  1  0  0.064446  0  0.971068  0  0  0.070215  0  1.045882  0  0  0.07245  0  1.042932  0  0.11266  0  0.096323  0.068537  0  1.048055  0
H  H46  1  0.21006273  0.32940187  0.62662105  1  0  0.064399  0  0.971058  0  0  0.070164  0  1.045874  0  0  0.072395  0  1.042928  0  0.112725  0  0.096276  0.068486  0  1.048047  0
H  H47  1  0.71006675  0.17059714  0.87337425  1  0  0.064401  0  0.971077  0  0  0.070181  0  1.045877  0  0  0.07241  0  1.042933  0  0.112701  0  0.096302  0.068503  0  1.048051  0
C  C48  1  0.43525457  0.11962197  0.39030917  1  0  0.078386  0  3.688283  0  0  0.041787  0  3.936297  0  0  0.048904  0  3.954564  0  0.500898  0  0.042094  0.036837  0  3.924561  0
C  C49  1  0.93525472  0.38037538  0.10969042  1  0  0.078451  0  3.688297  0  0  0.041796  0  3.936299  0  0  0.048916  0  3.954563  0  0.501226  0  0.0421  0.03686  0  3.924543  0
C  C50  1  0.56474830  0.88038018  0.60969098  1  0  0.078347  0  3.688366  0  0  0.041744  0  3.93638  0  0  0.048861  0  3.954649  0  0.500916  0  0.042066  0.036782  0  3.924667  0
C  C51  1  0.06474686  0.61962264  0.89030887  1  0  0.07833  0  3.688321  0  0  0.041705  0  3.936344  0  0  0.048822  0  3.954615  0  0.500903  0  0.042069  0.036749  0  3.92462  0
C  C52  1  0.59202277  0.13274802  0.43939672  1  0  0.028507  0  3.718108  0  0  0.054683  0  3.953381  0  0  0.049705  0  3.977273  0  -0.025493  0  -0.002305  0.057741  0  3.937325  0
C  C53  1  0.09202521  0.36725182  0.06060512  1  0  0.028506  0  3.718115  0  0  0.054665  0  3.953427  0  0  0.049681  0  3.977311  0  -0.025621  0  -0.002273  0.057721  0  3.937374  0
C  C54  1  0.40797881  0.86725331  0.56060412  1  0  0.02851  0  3.718062  0  0  0.054709  0  3.953328  0  0  0.049716  0  3.977206  0  -0.025499  0  -0.002254  0.057767  0  3.93727  0
C  C55  1  0.90797896  0.63274868  0.93939642  1  0  0.028542  0  3.718141  0  0  0.054718  0  3.953416  0  0  0.049721  0  3.977294  0  -0.025531  0  -0.002302  0.057776  0  3.93736  0
C  C56  1  0.71262978  0.04724001  0.42932716  1  0  -0.041382  0  3.712275  0  0  -0.069794  0  3.95863  0  0  -0.066936  0  3.97847  0  -0.028852  0  -0.066071  -0.071281  0  3.944993  0
C  C57  1  0.21262963  0.45276066  0.07067398  1  0  -0.041406  0  3.712295  0  0  -0.069832  0  3.958652  0  0  -0.066967  0  3.97849  0  -0.028854  0  -0.066091  -0.071322  0  3.945017  0
C  C58  1  0.28737051  0.95276215  0.57067298  1  0  -0.041381  0  3.712233  0  0  -0.069805  0  3.958603  0  0  -0.066947  0  3.978444  0  -0.028842  0  -0.06611  -0.071293  0  3.944967  0
C  C59  1  0.78737066  0.54724067  0.92932686  1  0  -0.041402  0  3.712316  0  0  -0.069816  0  3.958676  0  0  -0.066957  0  3.978518  0  -0.02886  0  -0.06607  -0.071304  0  3.945045  0
C  C60  1  0.67348225  0.95297739  0.37214347  1  0  -0.12775  0  3.756272  0  0  -0.135291  0  4.00374  0  0  -0.143896  0  4.027839  0  -0.041542  0  -0.090766  -0.129695  0  3.987396  0
C  C61  1  0.17348082  0.54702295  0.12785773  1  0  -0.127656  0  3.756254  0  0  -0.135216  0  4.003746  0  0  -0.143816  0  4.027837  0  -0.041557  0  -0.09073  -0.129624  0  3.98741  0
C  C62  1  0.32651804  0.04702477  0.62785595  1  0  -0.127738  0  3.756303  0  0  -0.135288  0  4.00379  0  0  -0.143893  0  4.027889  0  -0.04157  0  -0.090744  -0.129697  0  3.987454  0
C  C63  1  0.82651690  0.45297838  0.87214383  1  0  -0.127651  0  3.756228  0  0  -0.135193  0  4.003691  0  0  -0.143798  0  4.027791  0  -0.041464  0  -0.090733  -0.129589  0  3.987324  0
C  C64  1  0.51353156  0.94657165  0.32673497  1  0  0.118455  0  3.706227  0  0  0.086944  0  3.956147  0  0  0.093693  0  3.976366  0  0.453505  0  0.038795  0.082699  0  3.942252  0
C  C65  1  0.01352883  0.55342620  0.17326543  1  0  0.118469  0  3.706276  0  0  0.086966  0  3.956166  0  0  0.093717  0  3.976383  0  0.453529  0  0.038807  0.08272  0  3.942273  0
C  C66  1  0.48646745  0.05342885  0.67326584  1  0  0.118445  0  3.706255  0  0  0.086954  0  3.956145  0  0  0.093702  0  3.976366  0  0.453498  0  0.038801  0.08271  0  3.942245  0
C  C67  1  0.98646888  0.44657182  0.82673530  1  0  0.118399  0  3.706249  0  0  0.086908  0  3.956145  0  0  0.093656  0  3.976364  0  0.453596  0  0.038798  0.082666  0  3.94225  0
C  C68  1  0.62822269  0.23643761  0.49984291  1  0  0.023164  0  3.696841  0  0  -0.039954  0  3.946276  0  0  -0.034257  0  3.959038  0  0.328022  0  -0.055463  -0.043698  0  3.937482  0
C  C69  1  0.12822641  0.26356388  0.00015753  1  0  0.023177  0  3.696835  0  0  -0.039953  0  3.946261  0  0  -0.034265  0  3.959062  0  0.328006  0  -0.055478  -0.043698  0  3.93747  0
C  C70  1  0.37177761  0.76356455  0.50015868  1  0  0.023149  0  3.696829  0  0  -0.040024  0  3.946321  0  0  -0.034289  0  3.95905  0  0.328036  0  -0.055467  -0.043763  0  3.937515  0
C  C71  1  0.87177776  0.73643662  0.99984183  1  0  0.023063  0  3.696862  0  0  -0.040046  0  3.946277  0  0  -0.034301  0  3.958989  0  0.327994  0  -0.055489  -0.043787  0  3.937474  0
C  C72  1  0.70067671  0.43151197  0.47022986  1  0  0.425817  0  3.811651  0  0  0.394482  0  4.067542  0  0  0.415571  0  4.082166  0  1.025528  0  0.226124  0.38046  0  4.057215  0
C  C73  1  0.20067786  0.06848787  0.02977053  1  0  0.42582  0  3.811768  0  0  0.39445  0  4.067643  0  0  0.415539  0  4.082268  0  1.025524  0  0.226097  0.380428  0  4.057316  0
C  C74  1  0.29932100  0.56848936  0.52976881  1  0  0.425906  0  3.811734  0  0  0.394588  0  4.06757  0  0  0.415678  0  4.082194  0  1.025483  0  0.226153  0.380564  0  4.057246  0
C  C75  1  0.79931857  0.93151098  0.97023023  1  0  0.4258  0  3.811633  0  0  0.394447  0  4.067541  0  0  0.415534  0  4.082172  0  1.025575  0  0.226114  0.380424  0  4.05721  0
C  C76  1  0.74656091  0.45492543  0.56823809  1  0  -0.23716  0  3.696905  0  0  -0.250694  0  3.950002  0  0  -0.26306  0  3.970392  0  -0.062255  0  -0.105894  -0.242785  0  3.936382  0
C  C77  1  0.24656205  0.04507523  0.93176305  1  0  -0.237174  0  3.696864  0  0  -0.250723  0  3.949996  0  0  -0.263083  0  3.970381  0  -0.062368  0  -0.105934  -0.242813  0  3.936374  0
C  C78  1  0.25344197  0.54507673  0.43176061  1  0  -0.237261  0  3.696934  0  0  -0.250809  0  3.950033  0  0  -0.263171  0  3.970419  0  -0.062294  0  -0.105985  -0.2429  0  3.936415  0
C  C79  1  0.75343437  0.95492361  0.06823843  1  0  -0.237114  0  3.696815  0  0  -0.250644  0  3.949921  0  0  -0.263004  0  3.970311  0  -0.06231  0  -0.10589  -0.242733  0  3.936298  0
C  C80  1  0.81452253  0.55772760  0.59396386  1  0  0.025846  0  3.751583  0  0  0.005596  0  4.004882  0  0  0.014017  0  4.020977  0  -0.032543  0  -0.074384  0.000466  0  3.993683  0
C  C81  1  0.31452109  0.94227274  0.90603662  1  0  0.025967  0  3.75159  0  0  0.005715  0  4.004893  0  0  0.014137  0  4.020989  0  -0.032576  0  -0.0743  0.000585  0  3.993692  0
C  C82  1  0.18548551  0.44227373  0.40603265  1  0  0.025996  0  3.751386  0  0  0.005742  0  4.004693  0  0  0.014161  0  4.020792  0  -0.032474  0  -0.074301  0.000616  0  3.993488  0
C  C83  1  0.68547662  0.05772693  0.09396416  1  0  0.02586  0  3.751641  0  0  0.00561  0  4.004938  0  0  0.014031  0  4.021034  0  -0.032697  0  -0.074344  0.000484  0  3.993726  0
C  C84  1  0.83587854  0.63750786  0.52383230  1  0  -0.168687  0  3.776799  0  0  -0.183934  0  4.032675  0  0  -0.193985  0  4.054181  0  0.022029  0  -0.116817  -0.17753  0  4.018183  0
C  C85  1  0.33587969  0.86249330  0.97616965  1  0  -0.168714  0  3.776871  0  0  -0.18399  0  4.032782  0  0  -0.194042  0  4.054291  0  0.02218  0  -0.116867  -0.177585  0  4.018288  0
C  C86  1  0.16411788  0.36249347  0.47616564  1  0  -0.16867  0  3.776688  0  0  -0.183939  0  4.032583  0  0  -0.193989  0  4.054088  0  0.022067  0  -0.116809  -0.177534  0  4.018092  0
C  C87  1  0.66412190  0.13750637  0.02383113  1  0  -0.168669  0  3.776922  0  0  -0.183943  0  4.032821  0  0  -0.193993  0  4.054326  0  0.022191  0  -0.11684  -0.177539  0  4.018332  0
C  C88  1  0.78105471  0.61103806  0.43061466  1  0  0.129327  0  3.770847  0  0  0.099087  0  4.021429  0  0  0.10939  0  4.040313  0  0.415739  0  0.0289  0.092496  0  4.008423  0
C  C89  1  0.28105198  0.88896145  0.06938579  1  0  0.129319  0  3.770945  0  0  0.099053  0  4.021517  0  0  0.10936  0  4.040404  0  0.415325  0  0.028896  0.092462  0  4.00851  0
C  C90  1  0.21894429  0.38896409  0.56938332  1  0  0.129337  0  3.770892  0  0  0.099115  0  4.021451  0  0  0.109424  0  4.04034  0  0.415787  0  0.028938  0.092525  0  4.008443  0
C  C91  1  0.71894573  0.11103657  0.93061566  1  0  0.129338  0  3.77093  0  0  0.099093  0  4.021494  0  0  0.109406  0  4.040382  0  0.415324  0  0.028897  0.092502  0  4.008487  0
N  N92  1  0.39705173  0.02881918  0.33585499  1  0  -0.297098  0  3.291546  0  0  -0.219288  0  3.560302  0  0  -0.240261  0  3.581955  0  -1.217142  0  -0.316078  -0.20498  0  3.545064  0
N  N93  1  0.89705058  0.47117652  0.16414454  1  0  -0.297269  0  3.291659  0  0  -0.219455  0  3.560436  0  0  -0.240428  0  3.582088  0  -1.21744  0  -0.316159  -0.20515  0  3.545203  0
N  N94  1  0.60294598  0.97118133  0.66414510  1  0  -0.297044  0  3.291556  0  0  -0.219243  0  3.560316  0  0  -0.240217  0  3.581974  0  -1.21717  0  -0.316068  -0.204931  0  3.545072  0
N  N95  1  0.10294842  0.52881984  0.83585614  1  0  -0.297116  0  3.291582  0  0  -0.219314  0  3.560345  0  0  -0.240287  0  3.582  0  -1.217141  0  -0.316087  -0.205006  0  3.545105  0
N  N96  1  0.64353764  0.33085057  0.43851756  1  0  -0.417156  0  3.352726  0  0  -0.354731  0  3.592195  0  0  -0.376236  0  3.604675  0  -1.235214  0  -0.43044  -0.339654  0  3.582966  0
N  N97  1  0.14353878  0.16915010  0.06148214  1  0  -0.417183  0  3.352754  0  0  -0.35472  0  3.592192  0  0  -0.376228  0  3.604664  0  -1.235198  0  -0.430441  -0.339646  0  3.582969  0
N  N98  1  0.35646137  0.66914993  0.56148326  1  0  -0.417149  0  3.352718  0  0  -0.354703  0  3.592166  0  0  -0.376224  0  3.604628  0  -1.235232  0  -0.430429  -0.33963  0  3.582942  0
N  N99  1  0.85646022  0.83085041  0.93851723  1  0  -0.417116  0  3.352666  0  0  -0.354672  0  3.592093  0  0  -0.376193  0  3.604552  0  -1.235203  0  -0.430439  -0.339609  0  3.582897  0
N  N100  1  0.71406229  0.51156459  0.40401727  1  0  -0.406203  0  3.220618  0  0  -0.322181  0  3.483243  0  0  -0.348069  0  3.501558  0  -1.214828  0  -0.327636  -0.304759  0  3.47035  0
N  N101  1  0.21406085  0.98843574  0.09598466  1  0  -0.406219  0  3.220671  0  0  -0.322123  0  3.483221  0  0  -0.348011  0  3.501536  0  -1.214461  0  -0.327614  -0.304701  0  3.470327  0
N  N102  1  0.28593542  0.48843674  0.59598140  1  0  -0.406258  0  3.22077  0  0  -0.322246  0  3.483376  0  0  -0.348136  0  3.501688  0  -1.214829  0  -0.327662  -0.304824  0  3.470483  0
N  N103  1  0.78593815  0.01156227  0.90401680  1  0  -0.406209  0  3.220625  0  0  -0.322175  0  3.483243  0  0  -0.348065  0  3.501557  0  -1.214503  0  -0.327631  -0.304753  0  3.470348  0
Cl  Cl104  1  0.98637854  0.18820752  0.28844815  1  0  -0.471224  0  0.974318  0  0  -0.410012  0  1.247728  0  0  -0.427031  0  1.231134  0  -0.530173  0  -0.258062  -0.398276  0  1.258862  0
Cl  Cl105  1  0.48638227  0.31178983  0.21155433  1  0  -0.471215  0  0.974311  0  0  -0.410008  0  1.247726  0  0  -0.427028  0  1.231137  0  -0.530166  0  -0.258061  -0.398272  0  1.258862  0
Cl  Cl106  1  0.01361917  0.81179215  0.71155336  1  0  -0.471225  0  0.974298  0  0  -0.41002  0  1.247711  0  0  -0.42704  0  1.231122  0  -0.530171  0  -0.25807  -0.39828  0  1.258845  0
Cl  Cl107  1  0.51361673  0.68820736  0.78844782  1  0  -0.471202  0  0.974258  0  0  -0.410008  0  1.247688  0  0  -0.427018  0  1.231081  0  -0.53013  0  -0.258054  -0.398268  0  1.258823  0
Cl  Cl108  1  0.07002263  0.81386834  0.29779912  1  0  -0.50524  0  0.940751  0  0  -0.442481  0  1.211812  0  0  -0.459194  0  1.192192  0  -0.556353  0  -0.274826  -0.430879  0  1.225113  0
Cl  Cl109  1  0.57002407  0.68613034  0.20220203  1  0  -0.505253  0  0.940752  0  0  -0.442488  0  1.211801  0  0  -0.459203  0  1.192184  0  -0.556338  0  -0.274832  -0.430888  0  1.225103  0
Cl  Cl110  1  0.92997895  0.18613216  0.70220097  1  0  -0.505256  0  0.940735  0  0  -0.442493  0  1.211791  0  0  -0.459205  0  1.192167  0  -0.556361  0  -0.274838  -0.430894  0  1.225094  0
Cl  Cl111  1  0.42997623  0.31386768  0.79779870  1  0  -0.505252  0  0.940733  0  0  -0.442484  0  1.211789  0  0  -0.459198  0  1.19217  0  -0.556358  0  -0.274826  -0.430884  0  1.22509  0
