# generated using pymatgen
data_ZnH12C6S3(NO4)2
_symmetry_space_group_name_H-M   'P 1'
_cell_length_a   4.94498128
_cell_length_b   9.91904179
_cell_length_c   13.88609040
_cell_angle_alpha   90.00091344
_cell_angle_beta   95.21722461
_cell_angle_gamma   89.99959709
_symmetry_Int_Tables_number   1
_chemical_formula_structural   ZnH12C6S3(NO4)2
_chemical_formula_sum   'Zn2 H24 C12 S6 N4 O16'
_cell_volume   678.28371043
_cell_formula_units_Z   2
loop_
 _symmetry_equiv_pos_site_id
 _symmetry_equiv_pos_as_xyz
  1  'x, y, z'
loop_
 _atom_site_type_symbol
 _atom_site_label
 _atom_site_symmetry_multiplicity
 _atom_site_fract_x
 _atom_site_fract_y
 _atom_site_fract_z
 _atom_site_occupancy
 _atom_site_hle17_bader_spin_density
 _atom_site_hle17_ddec_charge
 _atom_site_hle17_ddec_spin_density
 _atom_site_hle17_ddec_sum_bond_order
 _atom_site_hle17_magmom
 _atom_site_hse06_10hf_bader_spin_density
 _atom_site_hse06_10hf_ddec_charge
 _atom_site_hse06_10hf_ddec_spin_density
 _atom_site_hse06_10hf_ddec_sum_bond_order
 _atom_site_hse06_10hf_magmom
 _atom_site_hse06_bader_spin_density
 _atom_site_hse06_ddec_charge
 _atom_site_hse06_ddec_spin_density
 _atom_site_hse06_ddec_sum_bond_order
 _atom_site_hse06_magmom
 _atom_site_pbe_bader_spin_density
 _atom_site_pbe_cm5_charge
 _atom_site_pbe_ddec_charge
 _atom_site_pbe_ddec_spin_density
 _atom_site_pbe_ddec_sum_bond_order
 _atom_site_pbe_magmom
Zn  Zn0  1  0.47618218  0.03653244  0.62743253  1  0  1.219819  0  1.602629  0  0  1.058388  0  2.036669  0  0  1.105418  0  1.977667  0  0  0.666401  1.024984  0  2.077452  0
Zn  Zn1  1  0.52382687  0.53654766  0.37256018  1  0  1.219822  0  1.602599  0  0  1.05844  0  2.036583  0  0  1.105474  0  1.977585  0  0  0.666412  1.025038  0  2.077365  0
H  H2  1  0.34561060  0.84858010  0.73976184  1  0  0.408655  0  0.904532  0  0  0.37344  0  0.979139  0  0  0.38495  0  0.96256  0  0  0.282316  0.36528  0  0.990888  0
H  H3  1  0.65439382  0.34858952  0.26023225  1  0  0.408562  0  0.904517  0  0  0.373428  0  0.979148  0  0  0.384941  0  0.962562  0  0  0.282319  0.365268  0  0.990897  0
H  H4  1  0.37230036  0.77203528  0.63884774  1  0  0.436762  0  0.863854  0  0  0.403315  0  0.931354  0  0  0.414002  0  0.916003  0  0  0.294638  0.395797  0  0.942152  0
H  H5  1  0.62769862  0.27205101  0.36115031  1  0  0.436802  0  0.863809  0  0  0.403402  0  0.931217  0  0  0.414085  0  0.915873  0  0  0.2947  0.395881  0  0.942018  0
H  H6  1  0.25434166  0.19561018  0.75991239  1  0  0.388619  0  0.932137  0  0  0.344456  0  1.01719  0  0  0.355489  0  1.001546  0  0  0.284465  0.336739  0  1.028137  0
H  H7  1  0.74566409  0.69562767  0.24009433  1  0  0.388623  0  0.932104  0  0  0.344444  0  1.017208  0  0  0.355476  0  1.001566  0  0  0.284425  0.336728  0  1.028154  0
H  H8  1  0.04578520  0.07100565  0.74211997  1  0  0.423907  0  0.87751  0  0  0.392806  0  0.944457  0  0  0.404221  0  0.927964  0  0  0.292878  0.384745  0  0.956075  0
H  H9  1  0.95423985  0.57102869  0.25788590  1  0  0.423992  0  0.877451  0  0  0.392912  0  0.944346  0  0  0.404335  0  0.927842  0  0  0.292905  0.384851  0  0.955965  0
H  H10  1  0.63454108  0.28834122  0.67544719  1  0  0.394377  0  0.911491  0  0  0.354773  0  0.996814  0  0  0.365225  0  0.98184  0  0  0.287651  0.347446  0  1.00731  0
H  H11  1  0.36547405  0.78836314  0.32456093  1  0  0.39424  0  0.911579  0  0  0.354654  0  0.99695  0  0  0.365105  0  0.981978  0  0  0.287592  0.347323  0  1.007452  0
H  H12  1  0.87724266  0.20016351  0.64457852  1  0  0.415563  0  0.876848  0  0  0.388554  0  0.942087  0  0  0.399205  0  0.926416  0  0  0.293269  0.380919  0  0.953341  0
H  H13  1  0.12277321  0.70018611  0.35543362  1  0  0.415642  0  0.876604  0  0  0.388551  0  0.942085  0  0  0.399217  0  0.926382  0  0  0.293242  0.380915  0  0.953341  0
H  H14  1  0.92189046  0.88690486  0.61707844  1  0  0.426952  0  0.852173  0  0  0.400177  0  0.920587  0  0  0.409799  0  0.906633  0  0  0.296891  0.393293  0  0.929965  0
H  H15  1  0.07811362  0.38691833  0.38291322  1  0  0.426973  0  0.852199  0  0  0.400221  0  0.92052  0  0  0.409842  0  0.906565  0  0  0.296923  0.393335  0  0.92993  0
H  H16  1  0.90456641  0.98071644  0.52889647  1  0  0.434141  0  0.86  0  0  0.402357  0  0.924472  0  0  0.413688  0  0.908178  0  0  0.296931  0.394384  0  0.935911  0
H  H17  1  0.09544300  0.48072266  0.47110006  1  0  0.434179  0  0.859951  0  0  0.402411  0  0.92439  0  0  0.413741  0  0.908098  0  0  0.296985  0.394439  0  0.935828  0
H  H18  1  0.87995362  0.09305126  0.35421654  1  0  0.156305  0  0.969956  0  0  0.165495  0  1.031727  0  0  0.169521  0  1.029088  0  0  0.114091  0.162577  0  1.033794  0
H  H19  1  0.12003668  0.59302464  0.64577768  1  0  0.156219  0  0.969886  0  0  0.165441  0  1.031658  0  0  0.169467  0  1.029014  0  0  0.114081  0.16252  0  1.033716  0
H  H20  1  0.05027042  0.94384762  0.32892890  1  0  0.138162  0  0.934493  0  0  0.150887  0  0.992583  0  0  0.153603  0  0.991138  0  0  0.114146  0.148829  0  0.993896  0
H  H21  1  0.94971087  0.44382528  0.67106702  1  0  0.138226  0  0.934284  0  0  0.150993  0  0.992358  0  0  0.153695  0  0.990928  0  0  0.11417  0.148929  0  0.993673  0
H  H22  1  0.94724182  0.03951210  0.95842059  1  0  0.112583  0  0.977422  0  0  0.120056  0  1.052607  0  0  0.122096  0  1.052179  0  0  0.091247  0.117796  0  1.054547  0
H  H23  1  0.05276114  0.53952422  0.04158060  1  0  0.112681  0  0.977334  0  0  0.120128  0  1.05248  0  0  0.122186  0  1.052038  0  0  0.091231  0.117867  0  1.054425  0
H  H24  1  0.12231116  0.91528126  0.89836042  1  0  0.158181  0  0.963625  0  0  0.169626  0  1.0233  0  0  0.173652  0  1.020804  0  0  0.108674  0.166807  0  1.024997  0
H  H25  1  0.87767853  0.41530549  0.10164407  1  0  0.158178  0  0.963571  0  0  0.169623  0  1.023188  0  0  0.173649  0  1.020694  0  0  0.108715  0.166804  0  1.024884  0
C  C26  1  0.29290511  0.08069617  0.42156069  1  0  0.745551  0  3.822794  0  0  0.690406  0  4.127213  0  0  0.724573  0  4.119469  0  0  0.221966  0.666996  0  4.132221  0
C  C27  1  0.70709141  0.58068076  0.57843790  1  0  0.74546  0  3.82285  0  0  0.690416  0  4.12716  0  0  0.724595  0  4.119393  0  0  0.222065  0.667007  0  4.132151  0
C  C28  1  0.07739010  0.05303378  0.33756364  1  0  -0.325024  0  3.603678  0  0  -0.355905  0  3.859491  0  0  -0.360896  0  3.8632  0  0  -0.152537  -0.352472  0  3.857155  0
C  C29  1  0.92259039  0.55301019  0.66243052  1  0  -0.324877  0  3.603749  0  0  -0.355745  0  3.859358  0  0  -0.360709  0  3.863028  0  0  -0.152528  -0.352367  0  3.85717  0
C  C30  1  0.36899164  0.01282601  0.18288618  1  0  0.078857  0  3.79313  0  0  0.068742  0  4.114698  0  0  0.08051  0  4.127943  0  0  0.119819  0.060625  0  4.105712  0
C  C31  1  0.63100544  0.51280898  0.81711307  1  0  0.079083  0  3.793068  0  0  0.068892  0  4.114781  0  0  0.080661  0  4.12802  0  0  0.119873  0.060776  0  4.105786  0
C  C32  1  0.67776999  0.88627571  0.09374985  1  0  0.078149  0  3.797818  0  0  0.066498  0  4.118597  0  0  0.07809  0  4.131783  0  0  0.115493  0.058992  0  4.109125  0
C  C33  1  0.32221385  0.38627418  0.90625483  1  0  0.078025  0  3.797883  0  0  0.066425  0  4.118593  0  0  0.078017  0  4.131781  0  0  0.115478  0.058922  0  4.109114  0
C  C34  1  0.92729008  0.93744633  0.92753363  1  0  -0.337146  0  3.646459  0  0  -0.366127  0  3.897367  0  0  -0.371633  0  3.902294  0  0  -0.164548  -0.36176  0  3.893983  0
C  C35  1  0.07270551  0.43746425  0.07247059  1  0  -0.337244  0  3.646746  0  0  -0.366135  0  3.897461  0  0  -0.371651  0  3.902368  0  0  -0.164546  -0.361773  0  3.894082  0
C  C36  1  0.70058698  0.93461803  0.84494944  1  0  0.708239  0  3.882271  0  0  0.656445  0  4.188147  0  0  0.689623  0  4.181593  0  0  0.198991  0.633949  0  4.191417  0
C  C37  1  0.29945934  0.43462467  0.15504269  1  0  0.707995  0  3.882523  0  0  0.656385  0  4.188126  0  0  0.689571  0  4.181574  0  0  0.198999  0.633891  0  4.191391  0
S  S38  1  0.14364849  0.12767169  0.22409590  1  0  0.107668  0  2.505122  0  0  0.095669  0  2.863068  0  0  0.09197  0  2.862715  0  0  0.049543  0.097981  0  2.863804  0
S  S39  1  0.85635980  0.62764476  0.77589858  1  0  0.107628  0  2.50531  0  0  0.09567  0  2.863225  0  0  0.09197  0  2.862865  0  0  0.049589  0.097992  0  2.863972  0
S  S40  1  0.51866555  0.04197454  0.07558245  1  0  0.106669  0  2.555525  0  0  0.101624  0  2.899472  0  0  0.102384  0  2.900048  0  0  0.116542  0.100304  0  2.900098  0
S  S41  1  0.48132519  0.54197053  0.92441622  1  0  0.106624  0  2.555537  0  0  0.10159  0  2.899483  0  0  0.102349  0  2.900065  0  0  0.116536  0.100273  0  2.900107  0
S  S42  1  0.91084745  0.81592693  0.02265679  1  0  0.10424  0  2.491352  0  0  0.092583  0  2.847067  0  0  0.08897  0  2.846631  0  0  0.045748  0.095223  0  2.848489  0
S  S43  1  0.08913904  0.31593597  0.97735507  1  0  0.104256  0  2.491493  0  0  0.092542  0  2.847153  0  0  0.088926  0  2.846722  0  0  0.045692  0.095183  0  2.848571  0
N  N44  1  0.44095302  0.89678971  0.22399207  1  0  -0.225316  0  3.102483  0  0  -0.189621  0  3.371516  0  0  -0.199965  0  3.386189  0  0  -0.21407  -0.182526  0  3.361516  0
N  N45  1  0.55902870  0.39676624  0.77601195  1  0  -0.22543  0  3.102811  0  0  -0.189753  0  3.371865  0  0  -0.200099  0  3.386544  0  0  -0.214112  -0.182651  0  3.361858  0
N  N46  1  0.61593359  0.82539077  0.17304514  1  0  -0.227177  0  3.144596  0  0  -0.185999  0  3.412326  0  0  -0.195944  0  3.425331  0  0  -0.218387  -0.179447  0  3.403653  0
N  N47  1  0.38404670  0.32537719  0.82695943  1  0  -0.227128  0  3.144646  0  0  -0.185978  0  3.412386  0  0  -0.195926  0  3.425393  0  0  -0.218395  -0.179425  0  3.403705  0
O  O48  1  0.21574474  0.04503450  0.50381277  1  0  -0.668009  0  2.056917  0  0  -0.583343  0  2.304675  0  0  -0.614976  0  2.291415  0  0  -0.310746  -0.561263  0  2.313405  0
O  O49  1  0.78425816  0.54503212  0.49618561  1  0  -0.667931  0  2.056884  0  0  -0.583374  0  2.304653  0  0  -0.615004  0  2.291377  0  0  -0.310797  -0.561291  0  2.313385  0
O  O50  1  0.51877024  0.13006525  0.40857958  1  0  -0.623725  0  2.016424  0  0  -0.56685  0  2.24289  0  0  -0.591516  0  2.234162  0  0  -0.30803  -0.54969  0  2.248607  0
O  O51  1  0.48119948  0.63003695  0.59142163  1  0  -0.623811  0  2.016414  0  0  -0.566957  0  2.242816  0  0  -0.591645  0  2.234103  0  0  -0.308085  -0.549769  0  2.248496  0
O  O52  1  0.48707964  0.86729754  0.85249484  1  0  -0.641588  0  2.029641  0  0  -0.589675  0  2.262698  0  0  -0.615367  0  2.255887  0  0  -0.322342  -0.571538  0  2.266962  0
O  O53  1  0.51291043  0.36731622  0.14750550  1  0  -0.641108  0  2.030455  0  0  -0.589324  0  2.263465  0  0  -0.615004  0  2.256652  0  0  -0.322174  -0.57119  0  2.267723  0
O  O54  1  0.75307484  0.00409781  0.77160688  1  0  -0.677717  0  2.054515  0  0  -0.60683  0  2.297442  0  0  -0.635816  0  2.286641  0  0  -0.317225  -0.586424  0  2.303943  0
O  O55  1  0.24691624  0.50412925  0.22839495  1  0  -0.677804  0  2.053904  0  0  -0.607085  0  2.296819  0  0  -0.636117  0  2.286037  0  0  -0.317369  -0.586671  0  2.303317  0
O  O56  1  0.28437371  0.85095974  0.66848475  1  0  -0.85114  0  1.922525  0  0  -0.780598  0  2.123412  0  0  -0.804204  0  2.089033  0  0  -0.566203  -0.763776  0  2.147265  0
O  O57  1  0.71563883  0.35096841  0.33151394  1  0  -0.851174  0  1.922614  0  0  -0.780707  0  2.123389  0  0  -0.804308  0  2.089005  0  0  -0.566242  -0.763894  0  2.147266  0
O  O58  1  0.17690094  0.12904591  0.70965788  1  0  -0.842072  0  1.979783  0  0  -0.768907  0  2.19239  0  0  -0.792315  0  2.15667  0  0  -0.5677  -0.752212  0  2.217101  0
O  O59  1  0.82311346  0.62906315  0.29034618  1  0  -0.842268  0  1.979673  0  0  -0.769067  0  2.192173  0  0  -0.792486  0  2.156432  0  0  -0.567723  -0.752373  0  2.216888  0
O  O60  1  0.68332824  0.22170613  0.62611665  1  0  -0.800673  0  1.912456  0  0  -0.740083  0  2.123672  0  0  -0.760314  0  2.08833  0  0  -0.574028  -0.725697  0  2.148345  0
O  O61  1  0.31669150  0.72172628  0.37389011  1  0  -0.800591  0  1.912271  0  0  -0.739942  0  2.123591  0  0  -0.760176  0  2.088247  0  0  -0.573973  -0.725562  0  2.148272  0
O  O62  1  0.78562374  0.92848023  0.56971509  1  0  -0.823784  0  1.889003  0  0  -0.762385  0  2.096599  0  0  -0.784065  0  2.062278  0  0  -0.575877  -0.746875  0  2.119981  0
O  O63  1  0.21438200  0.42850120  0.43027063  1  0  -0.823873  0  1.88901  0  0  -0.762475  0  2.096546  0  0  -0.784155  0  2.062228  0  0  -0.575994  -0.746962  0  2.119952  0
