# generated using pymatgen
data_CuH7C13NO4
_symmetry_space_group_name_H-M   'P 1'
_cell_length_a   11.97301742
_cell_length_b   13.71220852
_cell_length_c   13.78461528
_cell_angle_alpha   90.00060375
_cell_angle_beta   114.43810998
_cell_angle_gamma   89.99874498
_symmetry_Int_Tables_number   1
_chemical_formula_structural   CuH7C13NO4
_chemical_formula_sum   'Cu4 H28 C52 N4 O16'
_cell_volume   2060.35504344
_cell_formula_units_Z   4
loop_
 _symmetry_equiv_pos_site_id
 _symmetry_equiv_pos_as_xyz
  1  'x, y, z'
loop_
 _atom_site_type_symbol
 _atom_site_label
 _atom_site_symmetry_multiplicity
 _atom_site_fract_x
 _atom_site_fract_y
 _atom_site_fract_z
 _atom_site_occupancy
 _atom_site_pbe_bader_charge
 _atom_site_pbe_bader_spin_density
 _atom_site_pbe_cm5_charge
 _atom_site_pbe_ddec_charge
 _atom_site_pbe_ddec_spin_density
 _atom_site_pbe_ddec_sum_bond_order
 _atom_site_pbe_magmom
Cu  Cu0  1  0.09797007  0.55422410  0.53989928  1  1.085187  0.58443  0.687583  0.780123  0.738337  2.371116  0.585
Cu  Cu1  1  0.90205634  0.05420290  0.96011478  1  1.085128  0.584357  0.68741  0.779836  0.738252  2.37116  0.585
Cu  Cu2  1  0.90202204  0.44578123  0.46009784  1  1.085381  0.584387  0.687447  0.779973  0.73828  2.371127  0.585
Cu  Cu3  1  0.09797432  0.94577909  0.03990044  1  1.085521  0.584382  0.687462  0.779851  0.738255  2.370825  0.585
H  H4  1  0.34350212  0.47607426  0.61390057  1  0.098186  -0.000127  0.114116  0.085595  -0.00012  1.01112  0.0
H  H5  1  0.65649385  0.97607240  0.88609832  1  0.09817  -0.000127  0.114092  0.085602  -0.000119  1.011091  0.0
H  H6  1  0.65649092  0.52393325  0.38609688  1  0.098048  -0.000127  0.114058  0.085517  -0.00012  1.011109  0.0
H  H7  1  0.34350653  0.02393146  0.11390247  1  0.09808  -0.000128  0.114061  0.085535  -0.00012  1.0111  0.0
H  H8  1  0.56120898  0.51900130  0.65665402  1  0.079964  -2e-05  0.109027  0.1174  -2.6e-05  0.99697  0.0
H  H9  1  0.43878431  0.01900013  0.84334206  1  0.079847  -2e-05  0.109055  0.117365  -2.6e-05  0.996996  0.0
H  H10  1  0.43878404  0.48100475  0.34334270  1  0.079758  -2e-05  0.109007  0.117329  -2.6e-05  0.996992  0.0
H  H11  1  0.56121513  0.98100374  0.15665477  1  0.079766  -2e-05  0.109022  0.117321  -2.6e-05  0.996996  0.0
H  H12  1  0.45611966  0.82227211  0.63975131  1  0.065028  -2.8e-05  0.109551  0.116801  -2.9e-05  0.994104  0.0
H  H13  1  0.54387545  0.32227129  0.86024567  1  0.064995  -2.8e-05  0.109552  0.116836  -2.9e-05  0.994197  0.0
H  H14  1  0.54387155  0.17773394  0.36024766  1  0.065105  -2.8e-05  0.109562  0.116835  -2.9e-05  0.994167  0.0
H  H15  1  0.45612490  0.67773330  0.13975003  1  0.065095  -2.8e-05  0.109573  0.11686  -2.9e-05  0.994163  0.0
H  H16  1  0.24258202  0.76575276  0.59731231  1  0.098882  -6.8e-05  0.12409  0.09397  -6.8e-05  0.962831  0.0
H  H17  1  0.75741171  0.26575123  0.90268432  1  0.098963  -6.8e-05  0.124075  0.093944  -6.8e-05  0.96285  0.0
H  H18  1  0.75740825  0.23425329  0.40268198  1  0.099073  -6.8e-05  0.12408  0.093908  -6.8e-05  0.962884  0.0
H  H19  1  0.24258775  0.73425337  0.09731614  1  0.099052  -6.8e-05  0.124063  0.09391  -6.8e-05  0.962805  0.0
H  H20  1  0.67920371  0.58425402  0.57873291  1  0.074467  0.000318  0.10463  0.108644  0.000278  1.027907  0.0
H  H21  1  0.32080083  0.08425228  0.92126423  1  0.07459  0.000318  0.104627  0.10869  0.000278  1.027918  0.0
H  H22  1  0.32078749  0.41575276  0.42126460  1  0.074527  0.000318  0.104616  0.108658  0.000278  1.02785  0.0
H  H23  1  0.67921052  0.91575085  0.07873322  1  0.074524  0.000318  0.104645  0.10869  0.000278  1.027883  0.0
H  H24  1  0.00507447  0.74944486  0.75551117  1  0.158498  0.000688  0.115289  0.12897  0.00053  0.981397  0.0
H  H25  1  0.99492883  0.24945096  0.74448870  1  0.158525  0.000689  0.115276  0.128985  0.00053  0.981511  0.0
H  H26  1  0.99493140  0.25054515  0.24448941  1  0.15838  0.000689  0.115288  0.128945  0.00053  0.981548  0.0
H  H27  1  0.00506974  0.75054196  0.25551725  1  0.158516  0.000688  0.115271  0.129004  0.00053  0.981581  0.0
H  H28  1  0.66640013  0.82494581  0.77604508  1  0.067356  0.0002  0.105942  0.108311  0.000118  1.012385  0.0
H  H29  1  0.33359767  0.32495049  0.72395361  1  0.067454  0.0002  0.105936  0.1083  0.000118  1.012364  0.0
H  H30  1  0.33361034  0.17505659  0.22396076  1  0.067361  0.0002  0.105891  0.108258  0.000118  1.012434  0.0
H  H31  1  0.66638893  0.67505629  0.27603864  1  0.067411  0.0002  0.105911  0.108328  0.000118  1.012353  0.0
C  C32  1  0.37265771  0.55200270  0.62002781  1  0.461338  -0.000663  0.042614  0.105176  -0.000727  3.969521  0.0
C  C33  1  0.62733204  0.05200123  0.87996880  1  0.461239  -0.000662  0.042644  0.105136  -0.000725  3.969703  0.0
C  C34  1  0.62733257  0.44800554  0.37996865  1  0.461239  -0.000663  0.042665  0.105183  -0.000727  3.969679  0.0
C  C35  1  0.37267017  0.94800410  0.12003265  1  0.461158  -0.000662  0.042615  0.105043  -0.000725  3.969772  0.0
C  C36  1  0.49341849  0.57643100  0.64312171  1  0.016594  0.000414  -0.089144  -0.191375  0.000265  3.965211  0.0
C  C37  1  0.50657526  0.07642721  0.85687803  1  0.015997  0.000412  -0.089189  -0.191259  0.000264  3.965299  0.0
C  C38  1  0.50657456  0.42357579  0.35688010  1  0.016367  0.000414  -0.089169  -0.191308  0.000265  3.965261  0.0
C  C39  1  0.49342693  0.92357520  0.14311978  1  0.016227  0.000412  -0.089092  -0.191098  0.000264  3.96522  0.0
C  C40  1  0.52787104  0.67504356  0.65096615  1  -0.036488  -0.000222  0.01148  0.11524  -0.000337  3.99839  0.0
C  C41  1  0.47212397  0.17504181  0.84902998  1  -0.036112  -0.00022  0.011481  0.115235  -0.000335  3.998241  0.0
C  C42  1  0.47212383  0.32496322  0.34903267  1  -0.036628  -0.000222  0.011499  0.115339  -0.000337  3.998324  0.0
C  C43  1  0.52787730  0.82496206  0.15096532  1  -0.03614  -0.000221  0.011469  0.115265  -0.000336  3.998303  0.0
C  C44  1  0.43587438  0.74443143  0.63565765  1  -0.019828  0.000425  -0.085648  -0.187481  0.000267  3.954341  0.0
C  C45  1  0.56411895  0.24443100  0.86433861  1  -0.019763  0.000424  -0.085707  -0.18764  0.000266  3.954316  0.0
C  C46  1  0.56411865  0.25557389  0.36433980  1  -0.019835  0.000425  -0.085663  -0.187572  0.000267  3.954272  0.0
C  C47  1  0.43588232  0.75557360  0.13565742  1  -0.020061  0.000424  -0.085674  -0.187651  0.000266  3.954226  0.0
C  C48  1  0.31639477  0.71328502  0.61163500  1  0.470879  -0.000667  0.052068  0.103675  -0.000769  3.968707  0.0
C  C49  1  0.68359748  0.21328547  0.88836200  1  0.47063  -0.000665  0.052195  0.103864  -0.000767  3.968577  0.0
C  C50  1  0.68359642  0.28672103  0.38836179  1  0.470709  -0.000667  0.052017  0.103666  -0.000769  3.968555  0.0
C  C51  1  0.31640472  0.78671766  0.11163726  1  0.47038  -0.000666  0.052061  0.103744  -0.000768  3.968544  0.0
C  C52  1  0.65642263  0.70082605  0.67521634  1  -0.005393  0.001619  -0.009183  0.054003  0.00097  4.024949  0.001
C  C53  1  0.34357448  0.20082796  0.82477574  1  -0.006348  0.001619  -0.009168  0.054014  0.00097  4.025258  0.001
C  C54  1  0.34357499  0.29918292  0.32478419  1  -0.00525  0.001618  -0.009253  0.053855  0.00097  4.025108  0.001
C  C55  1  0.65642401  0.79918101  0.17521350  1  -0.005329  0.00162  -0.009198  0.054012  0.000971  4.025027  0.001
C  C56  1  0.72331250  0.64376582  0.63357033  1  0.026772  0.00178  -0.077118  -0.13158  0.001276  3.918587  0.001
C  C57  1  0.27669427  0.14376361  0.86642895  1  0.026926  0.001779  -0.077141  -0.131674  0.001274  3.918691  0.001
C  C58  1  0.27668146  0.35623804  0.36642962  1  0.026675  0.00178  -0.077149  -0.131635  0.001275  3.918713  0.001
C  C59  1  0.72331341  0.85623660  0.13356647  1  0.0267  0.001779  -0.077106  -0.131677  0.001275  3.918756  0.001
C  C60  1  0.84727157  0.66239999  0.65974537  1  -0.090199  0.017145  -0.013952  -0.017152  0.011836  3.973293  0.013
C  C61  1  0.15273565  0.16240717  0.84024919  1  -0.089504  0.017151  -0.014037  -0.017242  0.011843  3.973283  0.013
C  C62  1  0.15272237  0.33759731  0.34025095  1  -0.090069  0.017141  -0.013935  -0.017245  0.011836  3.973341  0.013
C  C63  1  0.84726838  0.83758648  0.15974855  1  -0.090778  0.017155  -0.01398  -0.017059  0.011842  3.973382  0.013
C  C64  1  0.90744401  0.73680284  0.73176496  1  -0.055872  0.002931  -0.066132  -0.094254  0.0019  3.890579  0.002
C  C65  1  0.09255775  0.23680822  0.76823205  1  -0.055364  0.002932  -0.06613  -0.094228  0.001901  3.890979  0.002
C  C66  1  0.09256003  0.26318936  0.26823714  1  -0.055482  0.002932  -0.066104  -0.094108  0.001901  3.890899  0.002
C  C67  1  0.90744263  0.76318544  0.23177019  1  -0.055242  0.002929  -0.06606  -0.094298  0.001899  3.890962  0.002
C  C68  1  0.84112566  0.79495844  0.77276819  1  -0.036981  0.017241  -0.00956  -0.009027  0.011983  3.966636  0.014
C  C69  1  0.15887103  0.29497013  0.72722980  1  -0.037553  0.017234  -0.009459  -0.0091  0.011979  3.966772  0.014
C  C70  1  0.15888576  0.20503157  0.22724452  1  -0.036317  0.017238  -0.009519  -0.009104  0.011983  3.96681  0.014
C  C71  1  0.84111651  0.70502790  0.27276786  1  -0.036772  0.017233  -0.00957  -0.009122  0.01198  3.96687  0.014
C  C72  1  0.71578117  0.77869951  0.74269020  1  0.031016  0.001088  -0.073339  -0.127059  0.00048  3.91031  0.001
C  C73  1  0.28421777  0.27870257  0.75731277  1  0.031308  0.001089  -0.073379  -0.127031  0.00048  3.910349  0.001
C  C74  1  0.28422747  0.22130216  0.25731572  1  0.030861  0.001089  -0.073298  -0.126983  0.00048  3.910288  0.001
C  C75  1  0.71577617  0.72130275  0.24268355  1  0.030838  0.001089  -0.073321  -0.127128  0.00048  3.910359  0.001
C  C76  1  0.91241288  0.60161677  0.60880590  1  1.565491  -0.001508  0.213531  0.578073  -0.001813  4.162409  -0.004
C  C77  1  0.08760502  0.10160604  0.89120054  1  1.565252  -0.001513  0.213544  0.578133  -0.001822  4.162436  -0.004
C  C78  1  0.08759114  0.39838928  0.39119111  1  1.564778  -0.001506  0.213626  0.57835  -0.001813  4.162139  -0.004
C  C79  1  0.91242380  0.89837303  0.10881185  1  1.565038  -0.001516  0.213451  0.577893  -0.00182  4.162647  -0.004
C  C80  1  0.90454357  0.87242863  0.85328096  1  1.575919  -0.001669  0.214327  0.579751  -0.0021  4.163764  -0.004
C  C81  1  0.09547052  0.37244069  0.64672766  1  1.575776  -0.001662  0.214267  0.579773  -0.002092  4.163908  -0.004
C  C82  1  0.09548528  0.12755408  0.14673796  1  1.576388  -0.001662  0.214284  0.579927  -0.002099  4.163982  -0.004
C  C83  1  0.90452620  0.62756463  0.35327545  1  1.576461  -0.001658  0.214384  0.58014  -0.002092  4.163864  -0.004
N  N84  1  0.28421457  0.61873596  0.60333359  1  -1.197898  -0.001607  -0.331241  -0.243021  -0.000961  3.47453  0.0
N  N85  1  0.71577448  0.11873589  0.89666347  1  -1.197363  -0.001607  -0.331247  -0.243073  -0.000961  3.474252  0.0
N  N86  1  0.71577387  0.38126936  0.39666150  1  -1.197497  -0.001607  -0.331174  -0.24282  -0.000961  3.474419  0.0
N  N87  1  0.28423140  0.88126725  0.10334001  1  -1.197007  -0.001607  -0.331184  -0.242853  -0.000961  3.474504  0.0
O  O88  1  0.85166218  0.52929100  0.55404896  1  -1.11789  0.092115  -0.314485  -0.533084  0.05812  2.40461  0.084
O  O89  1  0.14834092  0.02928844  0.94594129  1  -1.118224  0.092086  -0.314509  -0.533094  0.058102  2.405202  0.084
O  O90  1  0.14831618  0.47070557  0.44594544  1  -1.118098  0.092081  -0.314406  -0.533092  0.058098  2.40499  0.084
O  O91  1  0.85168419  0.97070667  0.05406106  1  -1.117711  0.092125  -0.314336  -0.532915  0.058125  2.404662  0.084
O  O92  1  0.02012015  0.62689409  0.62205683  1  -1.101552  0.094969  -0.311022  -0.507265  0.059871  2.306749  0.086
O  O93  1  0.97987785  0.12689533  0.87793770  1  -1.101308  0.095009  -0.310982  -0.507217  0.059897  2.306067  0.086
O  O94  1  0.97986551  0.37309664  0.37792928  1  -1.101001  0.095006  -0.311178  -0.507446  0.059895  2.306068  0.086
O  O95  1  0.02013174  0.87308957  0.12207581  1  -1.101086  0.094979  -0.311129  -0.507177  0.059879  2.306616  0.086
O  O96  1  0.01438820  0.85455635  0.91888215  1  -1.098807  0.09912  -0.310393  -0.507019  0.062587  2.321879  0.09
O  O97  1  0.98561069  0.35456454  0.58111217  1  -1.098572  0.099145  -0.310403  -0.507034  0.062601  2.321349  0.09
O  O98  1  0.98562870  0.14542782  0.08112599  1  -1.099018  0.099139  -0.310271  -0.506924  0.062599  2.321587  0.09
O  O99  1  0.01436675  0.64542692  0.41888190  1  -1.099304  0.099098  -0.310437  -0.507148  0.062571  2.322062  0.09
O  O100  1  0.84172417  0.94834113  0.85038077  1  -1.114675  0.092128  -0.312875  -0.527205  0.058181  2.365549  0.084
O  O101  1  0.15827063  0.44834473  0.64961814  1  -1.114962  0.092103  -0.312909  -0.527292  0.058164  2.366057  0.084
O  O102  1  0.15829461  0.05165106  0.14964182  1  -1.115409  0.092116  -0.312948  -0.527475  0.058175  2.365913  0.084
O  O103  1  0.84169946  0.55165330  0.35037040  1  -1.115105  0.092133  -0.312925  -0.527539  0.058185  2.365473  0.084
