# generated using pymatgen
data_SmH19C21NO8
_symmetry_space_group_name_H-M   'P 1'
_cell_length_a   12.18424645
_cell_length_b   12.18627764
_cell_length_c   18.39481174
_cell_angle_alpha   102.22904637
_cell_angle_beta   107.84877381
_cell_angle_gamma   102.56431187
_symmetry_Int_Tables_number   1
_chemical_formula_structural   SmH19C21NO8
_chemical_formula_sum   'Sm4 H76 C84 N4 O32'
_cell_volume   2420.86663822
_cell_formula_units_Z   4
loop_
 _symmetry_equiv_pos_site_id
 _symmetry_equiv_pos_as_xyz
  1  'x, y, z'
loop_
 _atom_site_type_symbol
 _atom_site_label
 _atom_site_symmetry_multiplicity
 _atom_site_fract_x
 _atom_site_fract_y
 _atom_site_fract_z
 _atom_site_occupancy
 _atom_site_pbe_bader_charge
 _atom_site_pbe_bader_spin_density
 _atom_site_pbe_cm5_charge
 _atom_site_pbe_ddec_charge
 _atom_site_pbe_ddec_spin_density
 _atom_site_pbe_ddec_sum_bond_order
 _atom_site_pbe_magmom
Sm  Sm0  1  0.32655068  0.90247271  0.98712607  1  2.201436  0  1.495617  2.049405  0  2.132163  0
Sm  Sm1  1  0.41520811  0.33939013  0.51272931  1  2.200582  0  1.495467  2.049311  0  2.132408  0
Sm  Sm2  1  0.67345107  0.09752955  0.01287259  1  2.201448  0  1.495617  2.049418  0  2.132073  0
Sm  Sm3  1  0.58479191  0.66061001  0.48727205  1  2.200616  0  1.495447  2.049386  0  2.132306  0
H  H4  1  0.48065364  0.82404873  0.89099850  1  0.659124  0  0.303128  0.405739  0  0.929668  0
H  H5  1  0.43289915  0.58948704  0.60902566  1  0.660754  0  0.303173  0.406831  0  0.928144  0
H  H6  1  0.51934688  0.17595266  0.10900070  1  0.65916  0  0.303108  0.405712  0  0.92971  0
H  H7  1  0.56709946  0.41051315  0.39097516  1  0.660695  0  0.303189  0.406901  0  0.928069  0
H  H8  1  0.38154791  0.70849909  0.88765385  1  0.612369  0  0.336792  0.425716  0  0.854372  0
H  H9  1  0.32066682  0.49362495  0.61231894  1  0.62886  0  0.336678  0.424557  0  0.855853  0
H  H10  1  0.61845527  0.29150288  0.11234625  1  0.612338  0  0.3368  0.425712  0  0.854367  0
H  H11  1  0.67933070  0.50637415  0.38768079  1  0.62889  0  0.336675  0.42459  0  0.855814  0
H  H12  1  0.06525520  0.13729813  0.04688956  1  0.095559  0  0.110938  0.119695  0  0.996153  0
H  H13  1  0.59058632  0.01890262  0.45303186  1  0.096499  0  0.110186  0.1189  0  0.995046  0
H  H14  1  0.93474395  0.86270260  0.95311180  1  0.095556  0  0.110905  0.119671  0  0.996072  0
H  H15  1  0.40941153  0.98109535  0.54696733  1  0.096173  0  0.110202  0.118893  0  0.995038  0
H  H16  1  0.01432554  0.29132013  0.13117970  1  0.060878  0  0.105843  0.104904  0  1.025957  0
H  H17  1  0.66047972  0.88358567  0.36890212  1  0.075103  0  0.105842  0.105176  0  1.026865  0
H  H18  1  0.98567482  0.70867887  0.86882111  1  0.060865  0  0.105842  0.104879  0  1.026003  0
H  H19  1  0.33951704  0.11641121  0.63109598  1  0.075303  0  0.105832  0.105199  0  1.026881  0
H  H20  1  0.38869042  0.43444064  0.29013250  1  0.085148  0  0.109928  0.116726  0  1.028546  0
H  H21  1  0.64393097  0.09824439  0.20943876  1  0.096161  0  0.109645  0.116152  0  1.029422  0
H  H22  1  0.61130971  0.56555975  0.70986544  1  0.085153  0  0.10989  0.116687  0  1.02848  0
H  H23  1  0.35606727  0.90175741  0.79056081  1  0.096214  0  0.109643  0.116156  0  1.029377  0
H  H24  1  0.43689621  0.27568654  0.20914812  1  0.069713  0  0.101495  0.099382  0  1.029184  0
H  H25  1  0.56603111  0.22749461  0.29031548  1  0.069793  0  0.101151  0.097885  0  1.030617  0
H  H26  1  0.56310164  0.72431427  0.79085018  1  0.069723  0  0.101525  0.099433  0  1.02915  0
H  H27  1  0.43396713  0.77250435  0.70968497  1  0.069786  0  0.101167  0.097929  0  1.030605  0
H  H28  1  0.23168533  0.63928513  0.45357806  1  0.061288  0  0.107638  0.10805  0  0.997062  0
H  H29  1  0.68513936  0.77755426  0.04629382  1  0.052319  0  0.107686  0.10864  0  0.997013  0
H  H30  1  0.76831610  0.36071520  0.54642293  1  0.061323  0  0.107645  0.108057  0  0.997035  0
H  H31  1  0.31485754  0.22244240  0.95370266  1  0.052385  0  0.107675  0.108592  0  0.997049  0
H  H32  1  0.09803631  0.73750550  0.37834384  1  0.056087  0  0.098398  0.09366  0  1.030068  0
H  H33  1  0.85859852  0.71907893  0.12148546  1  0.061095  0  0.098834  0.094017  0  1.03217  0
H  H34  1  0.90196567  0.26249536  0.62165770  1  0.056128  0  0.098383  0.093644  0  1.030061  0
H  H35  1  0.14139770  0.28091717  0.87851299  1  0.061017  0  0.098823  0.093971  0  1.032198  0
H  H36  1  0.00770324  0.66175725  0.22816197  1  0.053072  0  0.098304  0.090724  0  1.03829  0
H  H37  1  0.93337512  0.77919456  0.27169514  1  0.040439  0  0.097451  0.089764  0  1.038682  0
H  H38  1  0.99229714  0.33824435  0.77183885  1  0.05312  0  0.098302  0.090714  0  1.038328  0
H  H39  1  0.06662130  0.22080346  0.72830351  1  0.040396  0  0.09747  0.089824  0  1.038675  0
H  H40  1  0.05517798  0.49496687  0.15706292  1  0.057478  0  0.097395  0.094085  0  1.058238  0
H  H41  1  0.83798482  0.89823156  0.34283746  1  0.063862  0  0.096401  0.093321  0  1.058773  0
H  H42  1  0.94482281  0.50503550  0.84294007  1  0.057396  0  0.097402  0.094092  0  1.058272  0
H  H43  1  0.16201505  0.10176903  0.65716462  1  0.063884  0  0.096384  0.093266  0  1.058892  0
H  H44  1  0.98663408  0.70189939  0.04737011  1  0.112798  0  0.104996  0.10893  0  1.013666  0
H  H45  1  0.15450314  0.93927099  0.45258650  1  0.101641  0  0.105342  0.109088  0  1.013578  0
H  H46  1  0.01336961  0.29810076  0.95262962  1  0.112949  0  0.104999  0.108906  0  1.013646  0
H  H47  1  0.84549795  0.06072763  0.54741593  1  0.101656  0  0.10534  0.109083  0  1.013608  0
H  H48  1  0.16538859  0.47611251  0.95132521  1  0.091618  0  0.105897  0.109754  0  1.004289  0
H  H49  1  0.02476851  0.21400832  0.54862635  1  0.072491  0  0.105327  0.10913  0  1.003748  0
H  H50  1  0.83461405  0.52388892  0.04867435  1  0.091666  0  0.10591  0.10979  0  1.004291  0
H  H51  1  0.97523147  0.78598945  0.45137409  1  0.072468  0  0.105335  0.109148  0  1.003677  0
H  H52  1  0.06854629  0.97085300  0.87934966  1  0.131086  0  0.129239  0.05747  0  1.015456  0
H  H53  1  0.59110836  0.18910272  0.62046185  1  0.132443  0  0.129179  0.05701  0  1.015284  0
H  H54  1  0.93145333  0.02914638  0.12064953  1  0.131088  0  0.12922  0.057474  0  1.015449  0
H  H55  1  0.40888381  0.81089238  0.37953696  1  0.132434  0  0.129174  0.057071  0  1.015241  0
H  H56  1  0.91466810  0.99058203  0.79366812  1  0.066963  0  0.110445  0.122819  0  0.990004  0
H  H57  1  0.69658621  0.12087108  0.70606923  1  0.054715  0  0.10963  0.122392  0  0.989538  0
H  H58  1  0.08533297  0.00941991  0.20633163  1  0.066959  0  0.110465  0.122852  0  0.990037  0
H  H59  1  0.30341217  0.87913051  0.29392872  1  0.054748  0  0.109645  0.122413  0  0.989561  0
H  H60  1  0.83246185  0.85956160  0.71054173  1  0.127447  0  0.114757  0.142434  0  0.986145  0
H  H61  1  0.64869306  0.12167856  0.78918090  1  0.099294  0  0.113717  0.140537  0  0.987139  0
H  H62  1  0.16753922  0.14044033  0.28945802  1  0.127447  0  0.114759  0.142435  0  0.986166  0
H  H63  1  0.35130930  0.87831597  0.21081754  1  0.099301  0  0.113728  0.140566  0  0.987122  0
H  H64  1  0.92057236  0.98532496  0.69684713  1  0.059516  0  0.102633  0.117082  0  1.006203  0
H  H65  1  0.78823275  0.22342238  0.80291813  1  0.04334  0  0.101932  0.116414  0  1.005424  0
H  H66  1  0.07942922  0.01467491  0.30315314  1  0.059536  0  0.102641  0.117093  0  1.006213  0
H  H67  1  0.21176589  0.77657594  0.19707746  1  0.043343  0  0.101977  0.116485  0  1.005401  0
H  H68  1  0.11826994  0.78899947  0.71829636  1  0.092227  0  0.111802  0.133962  0  0.999232  0
H  H69  1  0.57060904  0.39992150  0.78164327  1  0.078759  0  0.112639  0.135259  0  0.996975  0
H  H70  1  0.88173130  0.21100177  0.28170356  1  0.092225  0  0.111808  0.133962  0  0.999221  0
H  H71  1  0.42939050  0.60008023  0.21835936  1  0.078688  0  0.112611  0.135226  0  0.997013  0
H  H72  1  0.05533455  0.86842007  0.65318088  1  0.055034  0  0.100989  0.113744  0  1.005336  0
H  H73  1  0.71520326  0.40197833  0.84669029  1  0.076723  0  0.10091  0.113505  0  1.00491  0
H  H74  1  0.94466701  0.13158311  0.34681672  1  0.054777  0  0.101012  0.113773  0  1.005308  0
H  H75  1  0.28479955  0.59801957  0.15331033  1  0.076722  0  0.100905  0.113515  0  1.004933  0
H  H76  1  0.95792585  0.74124098  0.65986697  1  0.117638  0  0.107272  0.139173  0  1.013605  0
H  H77  1  0.58131269  0.29799642  0.84002593  1  0.120713  0  0.108285  0.140335  0  1.012124  0
H  H78  1  0.04207485  0.25875972  0.34013241  1  0.117597  0  0.107261  0.139172  0  1.013611  0
H  H79  1  0.41868894  0.70200275  0.15997704  1  0.120731  0  0.108242  0.140254  0  1.012172  0
C  C80  1  0.28411500  0.10225193  0.07406714  1  1.520943  0  0.198647  0.573802  0  4.221435  0
C  C81  1  0.52823654  0.21034829  0.42565161  1  1.508786  0  0.197374  0.572853  0  4.221549  0
C  C82  1  0.71588393  0.89775020  0.92593135  1  1.520731  0  0.198679  0.573846  0  4.221366  0
C  C83  1  0.47176147  0.78964898  0.57434775  1  1.508664  0  0.197379  0.572878  0  4.221581  0
C  C84  1  0.25459740  0.19678300  0.12296239  1  0.010033  0  -0.022612  -0.04517  0  3.998702  0
C  C85  1  0.57377159  0.13181907  0.37673259  1  0.001559  0  -0.02253  -0.045767  0  3.996915  0
C  C86  1  0.74540119  0.80321743  0.87703753  1  0.010118  0  -0.022632  -0.045177  0  3.998545  0
C  C87  1  0.42622093  0.86817772  0.62326479  1  0.001497  0  -0.022494  -0.045767  0  3.996977  0
C  C88  1  0.13542479  0.20231567  0.10054476  1  -0.051618  0  -0.08154  -0.089369  0  3.967648  0
C  C89  1  0.60185560  0.03523133  0.39930022  1  -0.057978  0  -0.080296  -0.088281  0  3.965213  0
C  C90  1  0.86457377  0.79768523  0.89945337  1  -0.051696  0  -0.081496  -0.089325  0  3.967638  0
C  C91  1  0.39813862  0.96476190  0.60069624  1  -0.05742  0  -0.080271  -0.088174  0  3.965055  0
C  C92  1  0.10742316  0.28905956  0.14748620  1  0.003158  0  -0.088381  -0.133724  0  3.972674  0
C  C93  1  0.64183629  0.96028032  0.35249273  1  -0.02148  0  -0.089419  -0.134765  0  3.974968  0
C  C94  1  0.89257872  0.71094389  0.85251787  1  0.003165  0  -0.088361  -0.133676  0  3.972661  0
C  C95  1  0.35816189  0.03971934  0.64750502  1  -0.021888  0  -0.089459  -0.134918  0  3.974909  0
C  C96  1  0.19718452  0.37265104  0.21703261  1  -0.051727  0  -0.000403  0.079354  0  3.98664  0
C  C97  1  0.65576605  0.98030319  0.28285912  1  -0.044684  0  0.000595  0.078952  0  3.98506  0
C  C98  1  0.80281457  0.62734756  0.78296694  1  -0.051707  0  -0.00039  0.079411  0  3.986665  0
C  C99  1  0.34423554  0.01969953  0.71714027  1  -0.044435  0  0.000634  0.07908  0  3.985095  0
C  C100  1  0.31666508  0.36781188  0.23835234  1  -0.011566  0  -0.08307  -0.12234  0  3.94735  0
C  C101  1  0.62919665  0.07815253  0.26129773  1  -0.056168  0  -0.082951  -0.122005  0  3.944208  0
C  C102  1  0.68333673  0.63218659  0.76165081  1  -0.011572  0  -0.083031  -0.122279  0  3.947616  0
C  C103  1  0.37081498  0.92185740  0.73870638  1  -0.056328  0  -0.082974  -0.1221  0  3.944302  0
C  C104  1  0.34452725  0.28016195  0.19209586  1  -0.057103  0  -0.081965  -0.082527  0  3.972871  0
C  C105  1  0.58777480  0.15235087  0.30748222  1  -0.020505  0  -0.081794  -0.079997  0  3.971797  0
C  C106  1  0.65547124  0.71983398  0.80790133  1  -0.05716  0  -0.082005  -0.082659  0  3.973094  0
C  C107  1  0.41222698  0.84764808  0.69251913  1  -0.020316  0  -0.081833  -0.080032  0  3.971709  0
C  C108  1  0.28818900  0.44881559  0.39783016  1  1.573699  0  0.221776  0.621406  0  4.196461  0
C  C109  1  0.55073085  0.89027051  0.10220732  1  1.572222  0  0.220693  0.6187  0  4.200484  0
C  C110  1  0.71181017  0.55118491  0.60217210  1  1.573693  0  0.22176  0.621371  0  4.196648  0
C  C111  1  0.44926999  0.10972974  0.89779133  1  1.57241  0  0.220682  0.618659  0  4.200669  0
C  C112  1  0.21561701  0.50940986  0.34802631  1  -0.097045  0  -0.0055  -0.067095  0  3.919943  0
C  C113  1  0.66113735  0.86738359  0.15189082  1  -0.042408  0  -0.003735  -0.065656  0  3.919277  0
C  C114  1  0.78438231  0.49059019  0.65197523  1  -0.096921  0  -0.005502  -0.067035  0  3.919865  0
C  C115  1  0.33886259  0.13261464  0.84810783  1  -0.04267  0  -0.003779  -0.065743  0  3.919135  0
C  C116  1  0.19148179  0.60698084  0.38842782  1  -0.015033  0  -0.079352  -0.090402  0  3.976912  0
C  C117  1  0.71812739  0.80264975  0.11145577  1  -0.029838  0  -0.079267  -0.090437  0  3.977816  0
C  C118  1  0.80851843  0.39302121  0.61157373  1  -0.015165  0  -0.079354  -0.09042  0  3.976926  0
C  C119  1  0.28186759  0.19734571  0.88854232  1  -0.029616  0  -0.079296  -0.090482  0  3.977935  0
C  C120  1  0.11644109  0.66202030  0.34609945  1  -0.025612  0  -0.094798  -0.094387  0  4.028986  0
C  C121  1  0.81554999  0.76994834  0.15376179  1  -0.012045  0  -0.095416  -0.096137  0  4.033222  0
C  C122  1  0.88355981  0.33798208  0.65390102  1  -0.025616  0  -0.094749  -0.094319  0  4.028921  0
C  C123  1  0.18444801  0.23004917  0.84623667  1  -0.01187  0  -0.0953  -0.09589  0  4.033294  0
C  C124  1  0.06594204  0.61987471  0.26264344  1  -0.089851  0  -0.092834  -0.081068  0  4.040302  0
C  C125  1  0.85708440  0.80307519  0.23723544  1  -0.061636  0  -0.092467  -0.080203  0  4.039964  0
C  C126  1  0.93405924  0.38012607  0.73735828  1  -0.089952  0  -0.092857  -0.0811  0  4.040304  0
C  C127  1  0.14291525  0.19692679  0.76276377  1  -0.06167  0  -0.092462  -0.080299  0  4.040029  0
C  C128  1  0.09160225  0.52462928  0.22223277  1  0.006489  0  -0.089268  -0.125186  0  3.972516  0
C  C129  1  0.80242199  0.86939291  0.27766152  1  -0.074486  0  -0.086799  -0.122663  0  3.971338  0
C  C130  1  0.90839904  0.47537125  0.77776985  1  0.006587  0  -0.089296  -0.125222  0  3.972581  0
C  C131  1  0.19757697  0.13060874  0.72233877  1  -0.074544  0  -0.086816  -0.122608  0  3.971512  0
C  C132  1  0.16686536  0.46794236  0.26363163  1  0.036289  0  0.004099  0.053873  0  3.954229  0
C  C133  1  0.70431026  0.90320715  0.23628117  1  0.059994  0  0.002048  0.052824  0  3.956297  0
C  C134  1  0.83313487  0.53205662  0.73637170  1  0.03627  0  0.004065  0.053788  0  3.954323  0
C  C135  1  0.29568935  0.09679531  0.76371624  1  0.059693  0  0.002015  0.052823  0  3.956181  0
C  C136  1  0.17102592  0.70307391  0.99677564  1  1.532092  0  0.18833  0.568157  0  4.248591  0
C  C137  1  0.20627450  0.17416693  0.50313961  1  1.549756  0  0.186666  0.567453  0  4.248212  0
C  C138  1  0.82897851  0.29692870  0.00322483  1  1.532455  0  0.188312  0.568165  0  4.248559  0
C  C139  1  0.79372467  0.82583357  0.49686265  1  1.549727  0  0.186728  0.567584  0  4.248173  0
C  C140  1  0.08423144  0.59812611  0.99985908  1  0.022769  0  -0.011866  -0.023042  0  3.961136  0
C  C141  1  0.09828253  0.08434294  0.50013819  1  0.041747  0  -0.011344  -0.023413  0  3.963305  0
C  C142  1  0.91577264  0.40187503  0.00014192  1  0.022744  0  -0.011847  -0.023074  0  3.961177  0
C  C143  1  0.90171910  0.91565623  0.49986478  1  0.041615  0  -0.011311  -0.023451  0  3.963296  0
C  C144  1  0.99130674  0.61283332  0.02721615  1  -0.086776  0  -0.082018  -0.105602  0  3.978905  0
C  C145  1  0.08559905  0.96410737  0.47274443  1  -0.138061  0  -0.082292  -0.105585  0  3.97898  0
C  C146  1  0.00869605  0.38716766  0.97278269  1  -0.087009  0  -0.082072  -0.105589  0  3.978737  0
C  C147  1  0.91440043  0.03589222  0.52725638  1  -0.138034  0  -0.082352  -0.105671  0  3.979063  0
C  C148  1  0.09263353  0.48487836  0.97270015  1  -0.090175  0  -0.082127  -0.097423  0  3.976147  0
C  C149  1  0.01219407  0.11990546  0.52730388  1  -0.032423  0  -0.081486  -0.095789  0  3.972503  0
C  C150  1  0.90736728  0.51512236  0.02729671  1  -0.090172  0  -0.082215  -0.097489  0  3.976213  0
C  C151  1  0.98780685  0.88009385  0.47269837  1  -0.032258  0  -0.081471  -0.095781  0  3.972445  0
C  C152  1  0.09085364  0.91277920  0.83515582  1  1.360337  0  0.18317  0.311348  0  4.11496  0
C  C153  1  0.57730648  0.25561537  0.66469391  1  1.35311  0  0.185025  0.314492  0  4.112644  0
C  C154  1  0.90914794  0.08722067  0.16484446  1  1.360298  0  0.183096  0.311214  0  4.114976  0
C  C155  1  0.42269284  0.74438467  0.33530763  1  1.35307  0  0.185063  0.314468  0  4.112502  0
C  C156  1  0.91587808  0.93430730  0.73899969  1  0.2278  0  -0.128816  -0.279323  0  3.896315  0
C  C157  1  0.69503545  0.17670304  0.76076687  1  0.292626  0  -0.126526  -0.275578  0  3.894005  0
C  C158  1  0.08412404  0.06569335  0.26100023  1  0.227776  0  -0.128859  -0.279404  0  3.896399  0
C  C159  1  0.30496328  0.82329717  0.23923143  1  0.29216  0  -0.126623  -0.275737  0  3.894078  0
C  C160  1  0.03926093  0.81730139  0.69352025  1  0.228788  0  -0.135256  -0.27091  0  3.847967  0
C  C161  1  0.62369309  0.34566112  0.80636302  1  0.214235  0  -0.137236  -0.273025  0  3.845115  0
C  C162  1  0.96074049  0.18270201  0.30647897  1  0.229009  0  -0.135331  -0.271029  0  3.847943  0
C  C163  1  0.37630571  0.65433814  0.19363887  1  0.214333  0  -0.137155  -0.272908  0  3.845161  0
N  N164  1  0.02047610  0.89124220  0.75920076  1  -1.221973  0  -0.273593  0.041134  0  3.720572  0
N  N165  1  0.63182574  0.26117282  0.74062389  1  -1.224342  0  -0.27408  0.038688  0  3.720377  0
N  N166  1  0.97952458  0.10875874  0.24079772  1  -1.221857  0  -0.273473  0.041341  0  3.720392  0
N  N167  1  0.36817003  0.73882747  0.25937585  1  -1.223946  0  -0.274112  0.038659  0  3.720324  0
O  O168  1  0.38936394  0.08699871  0.10062422  1  -1.20416  0  -0.374897  -0.647476  0  2.249557  0
O  O169  1  0.48632518  0.28895683  0.39909528  1  -1.201686  0  -0.373959  -0.647317  0  2.249952  0
O  O170  1  0.61063534  0.91300204  0.89937462  1  -1.203999  0  -0.374904  -0.647502  0  2.249541  0
O  O171  1  0.51367533  0.71104172  0.60090481  1  -1.201586  0  -0.374008  -0.647382  0  2.249987  0
O  O172  1  0.20560939  0.03551975  0.00686438  1  -1.189511  0  -0.373377  -0.620199  0  2.255802  0
O  O173  1  0.52879146  0.19905853  0.49289239  1  -1.177449  0  -0.373106  -0.619785  0  2.254769  0
O  O174  1  0.79438987  0.96448123  0.99313356  1  -1.189475  0  -0.373434  -0.620253  0  2.255812  0
O  O175  1  0.47121071  0.80094426  0.50710934  1  -1.177468  0  -0.373068  -0.619761  0  2.254778  0
O  O176  1  0.24289969  0.34326523  0.39391092  1  -1.176244  0  -0.340487  -0.598673  0  2.216936  0
O  O177  1  0.44905482  0.84898491  0.10611600  1  -1.173951  0  -0.338716  -0.596344  0  2.216772  0
O  O178  1  0.75710104  0.65673500  0.60609026  1  -1.176267  0  -0.340489  -0.598703  0  2.21704  0
O  O179  1  0.55094586  0.15101603  0.89388248  1  -1.173975  0  -0.338704  -0.596315  0  2.216926  0
O  O180  1  0.39575937  0.50848599  0.44845976  1  -1.221332  0  -0.436174  -0.747601  0  2.405342  0
O  O181  1  0.55990791  0.94726775  0.05162894  1  -1.224579  0  -0.437881  -0.748118  0  2.406594  0
O  O182  1  0.60424102  0.49151254  0.55154285  1  -1.221303  0  -0.436102  -0.747516  0  2.405358  0
O  O183  1  0.44009294  0.05273250  0.94836972  1  -1.224711  0  -0.437891  -0.748108  0  2.40659  0
O  O184  1  0.23933126  0.68773830  0.95718688  1  -1.177151  0  -0.394842  -0.646683  0  2.152999  0
O  O185  1  0.23043995  0.28204243  0.54266136  1  -1.188295  0  -0.394811  -0.645908  0  2.153772  0
O  O186  1  0.76067066  0.31226327  0.04281196  1  -1.177353  0  -0.394855  -0.646681  0  2.15284  0
O  O187  1  0.76955936  0.71795785  0.45733928  1  -1.188295  0  -0.394841  -0.645961  0  2.15371  0
O  O188  1  0.17278498  0.80613791  0.03220785  1  -1.177437  0  -0.389936  -0.628487  0  2.165513  0
O  O189  1  0.27389855  0.14049050  0.46767828  1  -1.178871  0  -0.388956  -0.628827  0  2.163497  0
O  O190  1  0.82721999  0.19386524  0.96779317  1  -1.177508  0  -0.389902  -0.628473  0  2.165554  0
O  O191  1  0.72610184  0.85950803  0.53232433  1  -1.178914  0  -0.388997  -0.628905  0  2.163601  0
O  O192  1  0.39720105  0.79112215  0.89015828  1  -1.249133  0  -0.621062  -0.831443  0  2.036282  0
O  O193  1  0.40072265  0.50680839  0.60968485  1  -1.268247  0  -0.621333  -0.831114  0  2.037305  0
O  O194  1  0.60279965  0.20887856  0.10984110  1  -1.249189  0  -0.621047  -0.831415  0  2.036328  0
O  O195  1  0.59927683  0.49319120  0.39031596  1  -1.268252  0  -0.621335  -0.831224  0  2.037215  0
O  O196  1  0.17753620  0.87128957  0.85724028  1  -1.194618  0  -0.38497  -0.574259  0  2.362009  0
O  O197  1  0.51369948  0.32022206  0.64266358  1  -1.191269  0  -0.38579  -0.575542  0  2.359929  0
O  O198  1  0.82246308  0.12871119  0.14275856  1  -1.194602  0  -0.384918  -0.574192  0  2.361945  0
O  O199  1  0.48629448  0.67977421  0.35733613  1  -1.19123  0  -0.385767  -0.575546  0  2.359888  0
