# generated using pymatgen
data_HgH8C10(IN2)2
_symmetry_space_group_name_H-M   'P 1'
_cell_length_a   8.53539874
_cell_length_b   11.72884946
_cell_length_c   13.67913998
_cell_angle_alpha   90.00026253
_cell_angle_beta   90.00017415
_cell_angle_gamma   90.00027633
_symmetry_Int_Tables_number   1
_chemical_formula_structural   HgH8C10(IN2)2
_chemical_formula_sum   'Hg4 H32 C40 I8 N16'
_cell_volume   1369.42426936
_cell_formula_units_Z   4
loop_
 _symmetry_equiv_pos_site_id
 _symmetry_equiv_pos_as_xyz
  1  'x, y, z'
loop_
 _atom_site_type_symbol
 _atom_site_label
 _atom_site_symmetry_multiplicity
 _atom_site_fract_x
 _atom_site_fract_y
 _atom_site_fract_z
 _atom_site_occupancy
 _atom_site_hle17_bader_spin_density
 _atom_site_hle17_ddec_charge
 _atom_site_hle17_ddec_spin_density
 _atom_site_hle17_ddec_sum_bond_order
 _atom_site_hle17_magmom
 _atom_site_hse06_10hf_bader_spin_density
 _atom_site_hse06_10hf_ddec_charge
 _atom_site_hse06_10hf_ddec_spin_density
 _atom_site_hse06_10hf_ddec_sum_bond_order
 _atom_site_hse06_10hf_magmom
 _atom_site_hse06_bader_spin_density
 _atom_site_hse06_ddec_charge
 _atom_site_hse06_ddec_spin_density
 _atom_site_hse06_ddec_sum_bond_order
 _atom_site_hse06_magmom
 _atom_site_pbe_bader_spin_density
 _atom_site_pbe_cm5_charge
 _atom_site_pbe_ddec_charge
 _atom_site_pbe_ddec_spin_density
 _atom_site_pbe_ddec_sum_bond_order
 _atom_site_pbe_magmom
Hg  Hg0  1  0.11820548  0.55287486  0.75000010  1  0  0.531012  0  2.177202  0  0  0.399644  0  2.66542  0  0  0.443867  0  2.640861  0  0  0.386276  0.369871  0  2.681759  0
Hg  Hg1  1  0.61820334  0.94712158  0.75000062  1  0  0.53106  0  2.177221  0  0  0.399656  0  2.665487  0  0  0.443875  0  2.640929  0  0  0.386271  0.369882  0  2.681825  0
Hg  Hg2  1  0.38179899  0.05287780  0.24999937  1  0  0.531052  0  2.177218  0  0  0.399667  0  2.665478  0  0  0.44389  0  2.640918  0  0  0.386285  0.369893  0  2.681823  0
Hg  Hg3  1  0.88179685  0.44712366  0.24999916  1  0  0.53104  0  2.177145  0  0  0.399655  0  2.665405  0  0  0.443879  0  2.640843  0  0  0.38629  0.369882  0  2.681748  0
H  H4  1  0.08180188  0.32700060  0.60784229  1  0  0.067174  0  0.965113  0  0  0.071967  0  1.03851  0  0  0.07458  0  1.0365  0  0  0.09753  0.070083  0  1.040144  0
H  H5  1  0.58180613  0.17298723  0.60784613  1  0  0.067232  0  0.96511  0  0  0.072032  0  1.038466  0  0  0.074654  0  1.036435  0  0  0.097559  0.07012  0  1.040148  0
H  H6  1  0.08180608  0.32700562  0.89215549  1  0  0.067226  0  0.965185  0  0  0.07202  0  1.038547  0  0  0.074643  0  1.036514  0  0  0.097562  0.070136  0  1.040193  0
H  H7  1  0.41819551  0.82700883  0.10784506  1  0  0.06722  0  0.965122  0  0  0.072023  0  1.038493  0  0  0.074643  0  1.036464  0  0  0.097569  0.070132  0  1.04014  0
H  H8  1  0.91819459  0.67299452  0.39215697  1  0  0.067182  0  0.965165  0  0  0.071984  0  1.038536  0  0  0.074603  0  1.036508  0  0  0.097535  0.0701  0  1.040175  0
H  H9  1  0.41818917  0.82700448  0.39215167  1  0  0.067228  0  0.965101  0  0  0.072006  0  1.038501  0  0  0.074622  0  1.036484  0  0  0.097562  0.07011  0  1.040144  0
H  H10  1  0.91819391  0.67299631  0.10784670  1  0  0.067163  0  0.965113  0  0  0.071954  0  1.038505  0  0  0.074575  0  1.036476  0  0  0.097503  0.070056  0  1.040153  0
H  H11  1  0.58181150  0.17299140  0.89215567  1  0  0.067182  0  0.965094  0  0  0.071978  0  1.038475  0  0  0.074601  0  1.036443  0  0  0.097539  0.070079  0  1.040133  0
H  H12  1  0.90455720  0.22786328  0.48811095  1  0  0.095667  0  1.008403  0  0  0.09449  0  1.08842  0  0  0.098375  0  1.086262  0  0  0.094231  0.09154  0  1.090303  0
H  H13  1  0.40455728  0.27212846  0.48811860  1  0  0.095677  0  1.008391  0  0  0.094488  0  1.088418  0  0  0.098373  0  1.08626  0  0  0.094192  0.091537  0  1.090303  0
H  H14  1  0.90456426  0.22786456  0.01188510  1  0  0.095691  0  1.008316  0  0  0.094499  0  1.088353  0  0  0.098385  0  1.086199  0  0  0.094179  0.091543  0  1.090245  0
H  H15  1  0.59543800  0.72786537  0.98811675  1  0  0.095705  0  1.008333  0  0  0.094528  0  1.088344  0  0  0.098411  0  1.086191  0  0  0.094203  0.091574  0  1.090234  0
H  H16  1  0.09543927  0.77213269  0.51188685  1  0  0.095725  0  1.008348  0  0  0.094546  0  1.088354  0  0  0.098432  0  1.0862  0  0  0.094226  0.091593  0  1.090242  0
H  H17  1  0.59543451  0.72786239  0.51188213  1  0  0.095763  0  1.008319  0  0  0.094598  0  1.088309  0  0  0.098483  0  1.086153  0  0  0.094231  0.091649  0  1.090192  0
H  H18  1  0.09544276  0.77213993  0.98812147  1  0  0.095768  0  1.008328  0  0  0.09459  0  1.08836  0  0  0.098473  0  1.086204  0  0  0.094237  0.091638  0  1.090247  0
H  H19  1  0.40456550  0.27213912  0.01188179  1  0  0.095735  0  1.008363  0  0  0.094568  0  1.088355  0  0  0.098455  0  1.086198  0  0  0.094224  0.09162  0  1.090239  0
H  H20  1  0.65189903  0.32458404  0.43978330  1  0  0.100648  0  0.982643  0  0  0.105345  0  1.056499  0  0  0.108821  0  1.053345  0  0  0.096142  0.102722  0  1.059002  0
H  H21  1  0.15189729  0.17541251  0.43979130  1  0  0.100695  0  0.982596  0  0  0.105346  0  1.056469  0  0  0.108819  0  1.053316  0  0  0.096161  0.102724  0  1.058969  0
H  H22  1  0.65190632  0.32458473  0.06021484  1  0  0.100625  0  0.982618  0  0  0.105304  0  1.056514  0  0  0.10878  0  1.053358  0  0  0.096149  0.102682  0  1.059014  0
H  H23  1  0.84809423  0.82458447  0.93978519  1  0  0.100622  0  0.982664  0  0  0.105308  0  1.056553  0  0  0.108784  0  1.053399  0  0  0.096145  0.102686  0  1.059051  0
H  H24  1  0.34809861  0.67541704  0.56021670  1  0  0.100635  0  0.982643  0  0  0.105318  0  1.056527  0  0  0.108794  0  1.05337  0  0  0.096117  0.102694  0  1.059028  0
H  H25  1  0.84809215  0.82458345  0.56021382  1  0  0.10071  0  0.982618  0  0  0.105345  0  1.05656  0  0  0.108821  0  1.053408  0  0  0.096146  0.102724  0  1.059058  0
H  H26  1  0.34809601  0.67542147  0.93978954  1  0  0.100679  0  0.982698  0  0  0.105306  0  1.056626  0  0  0.108783  0  1.053474  0  0  0.096121  0.102684  0  1.059124  0
H  H27  1  0.15191278  0.17541917  0.06021188  1  0  0.100715  0  0.982691  0  0  0.105366  0  1.056601  0  0  0.108841  0  1.053447  0  0  0.096164  0.102747  0  1.059096  0
H  H28  1  0.77391462  0.59874296  0.63659384  1  0  0.081209  0  0.969349  0  0  0.084091  0  1.047429  0  0  0.087312  0  1.04431  0  0  0.099732  0.081725  0  1.049736  0
H  H29  1  0.27391320  0.90124916  0.63659468  1  0  0.08109  0  0.969517  0  0  0.084015  0  1.047575  0  0  0.087217  0  1.044467  0  0  0.099713  0.081649  0  1.04988  0
H  H30  1  0.77391517  0.59874613  0.86340561  1  0  0.081077  0  0.969456  0  0  0.084008  0  1.0475  0  0  0.087198  0  1.0444  0  0  0.09971  0.081641  0  1.049808  0
H  H31  1  0.72608858  0.09874791  0.13659208  1  0  0.081146  0  0.969478  0  0  0.084036  0  1.047552  0  0  0.087249  0  1.044433  0  0  0.099731  0.081669  0  1.049861  0
H  H32  1  0.22608654  0.40125556  0.36340616  1  0  0.081185  0  0.96935  0  0  0.084068  0  1.04743  0  0  0.087288  0  1.044308  0  0  0.099735  0.081702  0  1.049737  0
H  H33  1  0.72608444  0.09874255  0.36340312  1  0  0.081139  0  0.969341  0  0  0.084053  0  1.047417  0  0  0.087259  0  1.044309  0  0  0.099711  0.081686  0  1.049726  0
H  H34  1  0.22608482  0.40125325  0.13658854  1  0  0.081191  0  0.969372  0  0  0.084113  0  1.047417  0  0  0.087302  0  1.04432  0  0  0.099758  0.081751  0  1.04972  0
H  H35  1  0.27391609  0.90125147  0.86341084  1  0  0.081152  0  0.969362  0  0  0.084054  0  1.047425  0  0  0.087257  0  1.044317  0  0  0.099744  0.081686  0  1.049732  0
C  C36  1  0.97007797  0.36453179  0.58569197  1  0  0.132797  0  3.682786  0  0  0.101669  0  3.932216  0  0  0.108891  0  3.95053  0  0  0.042903  0.096941  0  3.919819  0
C  C37  1  0.47007831  0.13546411  0.58569543  1  0  0.132815  0  3.68263  0  0  0.101674  0  3.932025  0  0  0.108904  0  3.950346  0  0  0.042953  0.096954  0  3.919631  0
C  C38  1  0.97008462  0.36453523  0.91430547  1  0  0.132734  0  3.682827  0  0  0.101646  0  3.932222  0  0  0.108871  0  3.950541  0  0  0.042948  0.096914  0  3.919822  0
C  C39  1  0.52991854  0.86453694  0.08569472  1  0  0.13277  0  3.682729  0  0  0.101638  0  3.932174  0  0  0.108862  0  3.950494  0  0  0.042965  0.09691  0  3.919783  0
C  C40  1  0.02991850  0.63546588  0.41430656  1  0  0.132741  0  3.682829  0  0  0.10163  0  3.932256  0  0  0.108856  0  3.950576  0  0  0.042915  0.096898  0  3.919862  0
C  C41  1  0.52991582  0.86453100  0.41430310  1  0  0.132777  0  3.682708  0  0  0.101711  0  3.932084  0  0  0.108935  0  3.950402  0  0  0.042951  0.096992  0  3.919699  0
C  C42  1  0.02992591  0.63546926  0.08569599  1  0  0.132795  0  3.682626  0  0  0.101708  0  3.93205  0  0  0.108932  0  3.95037  0  0  0.043024  0.09699  0  3.919662  0
C  C43  1  0.47008145  0.13546499  0.91430673  1  0  0.132784  0  3.682774  0  0  0.101676  0  3.932202  0  0  0.1089  0  3.950517  0  0  0.042906  0.096953  0  3.919814  0
C  C44  1  0.87108987  0.31005124  0.51910572  1  0  -0.109912  0  3.742612  0  0  -0.117363  0  3.991062  0  0  -0.125285  0  4.013474  0  0  -0.089689  -0.112068  0  3.976429  0
C  C45  1  0.37108120  0.18994480  0.51910939  1  0  -0.109884  0  3.742811  0  0  -0.11733  0  3.991257  0  0  -0.125253  0  4.013662  0  0  -0.089625  -0.112034  0  3.976618  0
C  C46  1  0.87109332  0.31005419  0.98089279  1  0  -0.109998  0  3.742563  0  0  -0.117424  0  3.99096  0  0  -0.125357  0  4.013383  0  0  -0.089685  -0.112126  0  3.976332  0
C  C47  1  0.62890713  0.81005589  0.01910646  1  0  -0.109971  0  3.742541  0  0  -0.117389  0  3.990974  0  0  -0.125317  0  4.013397  0  0  -0.089667  -0.112094  0  3.976347  0
C  C48  1  0.12890777  0.68994813  0.48089282  1  0  -0.109996  0  3.742626  0  0  -0.117445  0  3.99109  0  0  -0.125373  0  4.013505  0  0  -0.089707  -0.112149  0  3.97646  0
C  C49  1  0.62890941  0.81004946  0.48089061  1  0  -0.11015  0  3.742805  0  0  -0.117627  0  3.991271  0  0  -0.125552  0  4.013691  0  0  -0.089736  -0.112332  0  3.976639  0
C  C50  1  0.12891604  0.68995627  0.01910867  1  0  -0.109983  0  3.742726  0  0  -0.117452  0  3.991192  0  0  -0.125375  0  4.013612  0  0  -0.089684  -0.112156  0  3.976557  0
C  C51  1  0.37109285  0.18995116  0.98089134  1  0  -0.109991  0  3.742757  0  0  -0.117446  0  3.991213  0  0  -0.125371  0  4.013629  0  0  -0.089657  -0.112152  0  3.976582  0
C  C52  1  0.73079893  0.36206370  0.49367572  1  0  -0.070853  0  3.675214  0  0  -0.091996  0  3.915579  0  0  -0.090575  0  3.935067  0  0  -0.066446  -0.093076  0  3.902845  0
C  C53  1  0.23080047  0.13793257  0.49368138  1  0  -0.070889  0  3.675241  0  0  -0.091932  0  3.915605  0  0  -0.090522  0  3.935124  0  0  -0.066454  -0.093015  0  3.902873  0
C  C54  1  0.73080479  0.36206666  0.00632271  1  0  -0.070712  0  3.675228  0  0  -0.091821  0  3.915581  0  0  -0.090399  0  3.935073  0  0  -0.06639  -0.092904  0  3.902853  0
C  C55  1  0.76919718  0.86206641  0.99367601  1  0  -0.070695  0  3.675009  0  0  -0.091829  0  3.915417  0  0  -0.090399  0  3.934885  0  0  -0.066399  -0.092912  0  3.902689  0
C  C56  1  0.26919754  0.63793823  0.50632208  1  0  -0.070713  0  3.67496  0  0  -0.091807  0  3.915319  0  0  -0.090389  0  3.934821  0  0  -0.066345  -0.092888  0  3.902587  0
C  C57  1  0.76919132  0.86205999  0.50632081  1  0  -0.070724  0  3.675224  0  0  -0.09185  0  3.915647  0  0  -0.09041  0  3.935092  0  0  -0.066392  -0.092933  0  3.902918  0
C  C58  1  0.26919871  0.63794636  0.99367947  1  0  -0.070916  0  3.675224  0  0  -0.092032  0  3.915691  0  0  -0.090593  0  3.935136  0  0  -0.066481  -0.093111  0  3.902958  0
C  C59  1  0.23080398  0.13793979  0.00632180  1  0  -0.070864  0  3.67538  0  0  -0.091992  0  3.915771  0  0  -0.090568  0  3.935257  0  0  -0.066449  -0.093078  0  3.903044  0
C  C60  1  0.69246257  0.46665372  0.53773202  1  0  0.110759  0  3.803664  0  0  0.117384  0  4.05604  0  0  0.113763  0  4.080446  0  0  0.088718  0.119681  0  4.039774  0
C  C61  1  0.19245990  0.03333497  0.53773581  1  0  0.110703  0  3.803343  0  0  0.117233  0  4.05591  0  0  0.11361  0  4.080306  0  0  0.088686  0.11953  0  4.039649  0
C  C62  1  0.69246828  0.46665742  0.96226675  1  0  0.11066  0  3.803753  0  0  0.117216  0  4.056235  0  0  0.113596  0  4.080631  0  0  0.088656  0.119511  0  4.03998  0
C  C63  1  0.80753789  0.96666156  0.03773311  1  0  0.110591  0  3.803528  0  0  0.117127  0  4.056049  0  0  0.113507  0  4.080454  0  0  0.088635  0.119424  0  4.039792  0
C  C64  1  0.30753742  0.53334225  0.46226797  1  0  0.110644  0  3.803659  0  0  0.11718  0  4.056174  0  0  0.113557  0  4.080576  0  0  0.088665  0.119479  0  4.039912  0
C  C65  1  0.80753189  0.96665588  0.46226272  1  0  0.110568  0  3.803703  0  0  0.117158  0  4.056167  0  0  0.113539  0  4.080572  0  0  0.088647  0.119453  0  4.039909  0
C  C66  1  0.30754108  0.53334537  0.03773397  1  0  0.11084  0  3.80359  0  0  0.117405  0  4.056048  0  0  0.113787  0  4.080453  0  0  0.088748  0.119704  0  4.039785  0
C  C67  1  0.19247029  0.03334464  0.96226835  1  0  0.110657  0  3.803786  0  0  0.117256  0  4.056195  0  0  0.113637  0  4.080593  0  0  0.088625  0.11955  0  4.039939  0
C  C68  1  0.80008059  0.51671952  0.60221142  1  0  0.07372  0  3.649493  0  0  0.038854  0  3.895707  0  0  0.043729  0  3.915145  0  0  0.051687  0.03561  0  3.882797  0
C  C69  1  0.30007971  0.98327335  0.60221478  1  0  0.073889  0  3.64942  0  0  0.038951  0  3.895675  0  0  0.043849  0  3.915123  0  0  0.051718  0.035709  0  3.88276  0
C  C70  1  0.80008247  0.51672543  0.89778848  1  0  0.073841  0  3.649472  0  0  0.038951  0  3.895687  0  0  0.043861  0  3.915136  0  0  0.051699  0.035722  0  3.882754  0
C  C71  1  0.69991605  0.01672779  0.10221254  1  0  0.073829  0  3.649325  0  0  0.038987  0  3.895528  0  0  0.043874  0  3.914961  0  0  0.051742  0.035758  0  3.882596  0
C  C72  1  0.19992291  0.48327900  0.39778930  1  0  0.073782  0  3.649368  0  0  0.038954  0  3.895593  0  0  0.043836  0  3.915028  0  0  0.051701  0.035716  0  3.882674  0
C  C73  1  0.69992145  0.01671835  0.39778522  1  0  0.073892  0  3.649427  0  0  0.03898  0  3.89569  0  0  0.043867  0  3.915144  0  0  0.05171  0.035751  0  3.882759  0
C  C74  1  0.19992806  0.48328077  0.10221224  1  0  0.073623  0  3.649358  0  0  0.038781  0  3.895536  0  0  0.043683  0  3.914992  0  0  0.051653  0.035531  0  3.882643  0
C  C75  1  0.30007691  0.98327841  0.89778965  1  0  0.073803  0  3.649469  0  0  0.038961  0  3.89562  0  0  0.043855  0  3.915062  0  0  0.051704  0.035737  0  3.882675  0
I  I76  1  0.34992466  0.39662039  0.74999856  1  0  -0.315332  0  1.079964  0  0  -0.274139  0  1.392183  0  0  -0.292139  0  1.378655  0  0  -0.176698  -0.26138  0  1.40173  0
I  I77  1  0.84992494  0.10337853  0.74999846  1  0  -0.315347  0  1.07995  0  0  -0.274149  0  1.392164  0  0  -0.292149  0  1.378635  0  0  -0.176707  -0.261386  0  1.401707  0
I  I78  1  0.15007738  0.89662341  0.24999934  1  0  -0.315345  0  1.080003  0  0  -0.274136  0  1.392205  0  0  -0.292136  0  1.378677  0  0  -0.176708  -0.261377  0  1.40175  0
I  I79  1  0.65007649  0.60337984  0.24999998  1  0  -0.315345  0  1.079945  0  0  -0.27414  0  1.392158  0  0  -0.292142  0  1.37863  0  0  -0.176706  -0.261378  0  1.401703  0
I  I80  1  0.01210570  0.76904677  0.75000042  1  0  -0.346581  0  1.294342  0  0  -0.306525  0  1.675333  0  0  -0.324999  0  1.653664  0  0  -0.141345  -0.293134  0  1.690136  0
I  I81  1  0.51210565  0.73095100  0.75000010  1  0  -0.346584  0  1.294392  0  0  -0.306517  0  1.675369  0  0  -0.324991  0  1.653701  0  0  -0.141348  -0.293128  0  1.690171  0
I  I82  1  0.48789551  0.26905009  0.24999844  1  0  -0.346578  0  1.294368  0  0  -0.306521  0  1.67536  0  0  -0.32499  0  1.653688  0  0  -0.141342  -0.293128  0  1.690164  0
I  I83  1  0.98789663  0.23095260  0.24999957  1  0  -0.346607  0  1.294395  0  0  -0.306543  0  1.67535  0  0  -0.325011  0  1.65368  0  0  -0.141345  -0.29315  0  1.690154  0
N  N84  1  0.93576600  0.46626390  0.62526627  1  0  -0.279486  0  3.251027  0  0  -0.205364  0  3.511872  0  0  -0.224331  0  3.534231  0  0  -0.312415  -0.19238  0  3.496138  0
N  N85  1  0.43576567  0.03372528  0.62527006  1  0  -0.279612  0  3.251043  0  0  -0.205415  0  3.511873  0  0  -0.224377  0  3.534199  0  0  -0.312451  -0.19243  0  3.496139  0
N  N86  1  0.93576777  0.46626542  0.87473297  1  0  -0.279405  0  3.250973  0  0  -0.205316  0  3.511831  0  0  -0.224288  0  3.534188  0  0  -0.3124  -0.192334  0  3.496101  0
N  N87  1  0.56423020  0.96626832  0.12526543  1  0  -0.279491  0  3.251023  0  0  -0.205381  0  3.511887  0  0  -0.224351  0  3.534244  0  0  -0.312484  -0.192399  0  3.496158  0
N  N88  1  0.06423164  0.53373463  0.37473227  1  0  -0.279435  0  3.250828  0  0  -0.205342  0  3.511696  0  0  -0.22431  0  3.534049  0  0  -0.312419  -0.192358  0  3.495965  0
N  N89  1  0.56423314  0.96626558  0.37472994  1  0  -0.279488  0  3.250943  0  0  -0.205395  0  3.511828  0  0  -0.224363  0  3.534181  0  0  -0.31245  -0.192412  0  3.496095  0
N  N90  1  0.06422753  0.53373140  0.12526337  1  0  -0.279422  0  3.250749  0  0  -0.205341  0  3.511601  0  0  -0.224314  0  3.533966  0  0  -0.312471  -0.192353  0  3.495864  0
N  N91  1  0.43577330  0.03372936  0.87473896  1  0  -0.279455  0  3.250882  0  0  -0.205349  0  3.511698  0  0  -0.22433  0  3.534086  0  0  -0.312408  -0.192368  0  3.495963  0
N  N92  1  0.55364555  0.52845404  0.52061032  1  0  -0.136298  0  3.042949  0  0  -0.108595  0  3.321536  0  0  -0.108681  0  3.331068  0  0  -0.13653  -0.108482  0  3.315365  0
N  N93  1  0.05363991  0.97154350  0.52061071  1  0  -0.136299  0  3.043092  0  0  -0.10856  0  3.321703  0  0  -0.108647  0  3.331236  0  0  -0.136569  -0.108448  0  3.315532  0
N  N94  1  0.55364783  0.52845868  0.97939062  1  0  -0.13622  0  3.042706  0  0  -0.108495  0  3.321284  0  0  -0.108583  0  3.330818  0  0  -0.136501  -0.108386  0  3.315119  0
N  N95  1  0.94635312  0.02845806  0.02060972  1  0  -0.136313  0  3.04292  0  0  -0.108569  0  3.321511  0  0  -0.108658  0  3.331046  0  0  -0.136571  -0.108461  0  3.315346  0
N  N96  1  0.44635326  0.47154705  0.47938968  1  0  -0.136278  0  3.04304  0  0  -0.108535  0  3.321655  0  0  -0.108621  0  3.331188  0  0  -0.136526  -0.108428  0  3.315487  0
N  N97  1  0.94635539  0.02844991  0.47939148  1  0  -0.136255  0  3.043067  0  0  -0.108492  0  3.321625  0  0  -0.108581  0  3.33116  0  0  -0.136486  -0.108385  0  3.315457  0
N  N98  1  0.44635568  0.47154923  0.02061303  1  0  -0.136345  0  3.042839  0  0  -0.108605  0  3.32144  0  0  -0.108694  0  3.330975  0  0  -0.136562  -0.108493  0  3.315273  0
N  N99  1  0.05364452  0.97154644  0.97938882  1  0  -0.136263  0  3.042669  0  0  -0.108534  0  3.321241  0  0  -0.108622  0  3.330774  0  0  -0.136493  -0.108427  0  3.315078  0
