# generated using pymatgen
data_LaH27C16O9
_symmetry_space_group_name_H-M   'P 1'
_cell_length_a   8.59175860
_cell_length_b   8.97833600
_cell_length_c   13.09200000
_cell_angle_alpha   100.71012989
_cell_angle_beta   103.64418754
_cell_angle_gamma   97.93459108
_symmetry_Int_Tables_number   1
_chemical_formula_structural   LaH27C16O9
_chemical_formula_sum   'La2 H54 C32 O18'
_cell_volume   946.66053156
_cell_formula_units_Z   2
loop_
 _symmetry_equiv_pos_site_id
 _symmetry_equiv_pos_as_xyz
  1  'x, y, z'
loop_
 _atom_site_type_symbol
 _atom_site_label
 _atom_site_symmetry_multiplicity
 _atom_site_fract_x
 _atom_site_fract_y
 _atom_site_fract_z
 _atom_site_occupancy
 _atom_site_pbe_bader_charge
 _atom_site_pbe_bader_spin_density
 _atom_site_pbe_cm5_charge
 _atom_site_pbe_ddec_charge
 _atom_site_pbe_ddec_spin_density
 _atom_site_pbe_ddec_sum_bond_order
 _atom_site_pbe_magmom
La  La0  1  0.75071560  0.98294866  0.00417427  1  2.269866  0  1.428297  1.92535  0  2.382947  0
La  La1  1  0.24928228  0.01705000  0.99582684  1  2.26978  0  1.428283  1.925345  0  2.382901  0
H  H2  1  0.73719017  0.54864482  0.96327721  1  0.646581  0  0.299141  0.350454  0  0.997955  0
H  H3  1  0.26281130  0.45135383  0.03672216  1  0.646578  0  0.299136  0.350454  0  0.997945  0
H  H4  1  0.15981535  0.66115795  0.19530004  1  0.07073  0  0.103168  0.123627  0  0.988225  0
H  H5  1  0.84018635  0.33884186  0.80470104  1  0.070729  0  0.103173  0.123653  0  0.98821  0
H  H6  1  0.00686220  0.57764806  0.24704208  1  0.025613  0  0.09848  0.110995  0  0.991896  0
H  H7  1  0.99313876  0.42235406  0.75295841  1  0.025699  0  0.098452  0.110957  0  0.991915  0
H  H8  1  0.14771043  0.92422050  0.28931900  1  0.053431  0  0.096028  0.100601  0  0.993653  0
H  H9  1  0.85228911  0.07578046  0.71067883  1  0.053467  0  0.096014  0.100568  0  0.993623  0
H  H10  1  0.97977427  0.85139025  0.33312009  1  0.020793  0  0.084723  0.068054  0  1.023242  0
H  H11  1  0.02022623  0.14860956  0.66687928  1  0.020774  0  0.084726  0.068044  0  1.02327  0
H  H12  1  0.15621742  0.69692299  0.43855113  1  -0.013554  0  0.084891  0.076105  0  0.9958  0
H  H13  1  0.84378474  0.30307913  0.56144879  1  -0.013594  0  0.084891  0.076102  0  0.995828  0
H  H14  1  0.32464957  0.78068806  0.39929209  1  -0.005354  0  0.084057  0.073359  0  0.9934  0
H  H15  1  0.67535259  0.21931406  0.60070707  1  -0.005348  0  0.084044  0.073347  0  0.993434  0
H  H16  1  0.12649507  0.96062639  0.52755968  1  0.005188  0  0.084532  0.070087  0  1.014542  0
H  H17  1  0.87350613  0.03937688  0.47243795  1  0.005181  0  0.084513  0.070045  0  1.01455  0
H  H18  1  0.29781571  0.04406719  0.49117690  1  0.003176  0  0.087108  0.079202  0  0.996587  0
H  H19  1  0.70218908  0.95593609  0.50882281  1  0.003232  0  0.087083  0.079159  0  0.996661  0
H  H20  1  0.30110770  0.80743275  0.63323355  1  0.019319  0  0.093351  0.090085  0  0.982298  0
H  H21  1  0.69889160  0.19256706  0.36676487  1  0.019306  0  0.093337  0.090092  0  0.982335  0
H  H22  1  0.47383502  0.89832797  0.60099803  1  0.030373  0  0.08785  0.076155  0  1.009577  0
H  H23  1  0.52616572  0.10167300  0.39900304  1  0.030385  0  0.087847  0.076167  0  1.009573  0
H  H24  1  0.43047984  0.15677892  0.69296328  1  0.01272  0  0.100944  0.114941  0  0.98394  0
H  H25  1  0.56951970  0.84322204  0.30703914  1  0.01271  0  0.10093  0.114931  0  0.983974  0
H  H26  1  0.26593902  0.06078464  0.73167709  1  0.062389  0  0.104516  0.116577  0  1.020069  0
H  H27  1  0.73405765  0.93921402  0.26832154  1  0.062423  0  0.104524  0.11657  0  1.020075  0
H  H28  1  0.21010638  0.37965170  0.25282543  1  0.045462  0  0.103062  0.118728  0  0.981959  0
H  H29  1  0.78989316  0.62034927  0.74717470  1  0.045471  0  0.103055  0.118712  0  0.981913  0
H  H30  1  0.26641255  0.20573964  0.27658103  1  0.090939  0  0.107603  0.127757  0  1.01945  0
H  H31  1  0.73358746  0.79426363  0.72341946  1  0.09089  0  0.10758  0.127748  0  1.019471  0
H  H32  1  0.07589628  0.19510158  0.39976054  1  0.000149  0  0.091673  0.085975  0  0.990188  0
H  H33  1  0.92410206  0.80489939  0.60023864  1  0.000138  0  0.091671  0.085962  0  0.990197  0
H  H34  1  0.03414539  0.37574196  0.38109858  1  0.030104  0  0.084972  0.070109  0  1.016971  0
H  H35  1  0.96585438  0.62426017  0.61890249  1  0.030117  0  0.084986  0.070119  0  1.016975  0
H  H36  1  0.33276181  0.49351465  0.45827252  1  0.048035  0  0.08611  0.076392  0  1.008412  0
H  H37  1  0.66723966  0.50648401  0.54172762  1  0.048064  0  0.08612  0.0764  0  1.008405  0
H  H38  1  0.37502610  0.31174153  0.47472019  1  0.007274  0  0.083867  0.068757  0  1.013254  0
H  H39  1  0.62497394  0.68825597  0.52527881  1  0.007294  0  0.08387  0.068778  0  1.01323  0
H  H40  1  0.15756247  0.48973538  0.58656792  1  0.013974  0  0.085855  0.075199  0  1.008742  0
H  H41  1  0.84243876  0.51026212  0.41343355  1  0.013944  0  0.085852  0.075179  0  1.008766  0
H  H42  1  0.19437447  0.30507441  0.60086781  1  0.014009  0  0.089075  0.083712  0  0.996866  0
H  H43  1  0.80562796  0.69492309  0.39913233  1  0.014022  0  0.089083  0.083716  0  0.996926  0
H  H44  1  0.45595945  0.60008002  0.66108843  1  0.034672  0  0.092662  0.084001  0  1.000291  0
H  H45  1  0.54404058  0.39991748  0.33891286  1  0.034723  0  0.092658  0.084013  0  1.000244  0
H  H46  1  0.49568091  0.41549757  0.67290494  1  0.030292  0  0.086184  0.069274  0  1.015004  0
H  H47  1  0.50431912  0.58449993  0.32709559  1  0.030301  0  0.086187  0.069295  0  1.015018  0
H  H48  1  0.28427071  0.59337942  0.79204658  1  0.063798  0  0.107539  0.128983  0  0.988848  0
H  H49  1  0.71572956  0.40661924  0.20795337  1  0.06377  0  0.107546  0.128998  0  0.988799  0
H  H50  1  0.32329173  0.40462049  0.80216372  1  0.075098  0  0.102761  0.122532  0  0.991528  0
H  H51  1  0.67670591  0.59537701  0.19783568  1  0.074968  0  0.102771  0.122537  0  0.9915  0
H  H52  1  0.84597977  0.36510389  0.02595531  1  0.647336  0  0.310862  0.412611  0  0.907887  0
H  H53  1  0.15401930  0.63489476  0.97404446  1  0.647327  0  0.310856  0.412602  0  0.907901  0
H  H54  1  0.67158393  0.29048388  0.95372582  1  0.637282  0  0.31743  0.399938  0  0.91576  0
H  H55  1  0.32841514  0.70951477  0.04627471  1  0.637394  0  0.317424  0.399908  0  0.915789  0
C  C56  1  0.92305719  0.69188282  0.12246442  1  1.586982  0  0.237359  0.668813  0  4.116478  0
C  C57  1  0.07694401  0.30812046  0.87753549  1  1.586978  0  0.237373  0.668869  0  4.116426  0
C  C58  1  0.05073248  0.68265577  0.22181081  1  -0.032357  0  -0.162507  -0.305615  0  3.934841  0
C  C59  1  0.94926849  0.31734635  0.77818892  1  -0.032417  0  -0.162485  -0.305605  0  3.934836  0
C  C60  1  0.09273895  0.82418946  0.31467055  1  -0.02107  0  -0.169423  -0.129924  0  3.965573  0
C  C61  1  0.90726321  0.17581266  0.68532937  1  -0.021095  0  -0.169402  -0.129856  0  3.965529  0
C  C62  1  0.20846040  0.80169630  0.41614663  1  0.027441  0  -0.16625  -0.140127  0  3.953177  0
C  C63  1  0.79154200  0.19830697  0.58385271  1  0.027452  0  -0.166217  -0.140135  0  3.953129  0
C  C64  1  0.24311794  0.93894036  0.51194009  1  -0.017741  0  -0.165989  -0.144561  0  3.957468  0
C  C65  1  0.75688303  0.06106176  0.48805888  1  -0.017803  0  -0.165967  -0.144424  0  3.957371  0
C  C66  1  0.35462520  0.91423022  0.61415707  1  -0.009745  0  -0.164475  -0.120698  0  3.950897  0
C  C67  1  0.64537553  0.08577075  0.38584248  1  -0.009705  0  -0.164486  -0.120844  0  3.950956  0
C  C68  1  0.38096926  0.04779449  0.71148919  1  0.004818  0  -0.160572  -0.299972  0  3.916489  0
C  C69  1  0.61902742  0.95220416  0.28850944  1  0.004813  0  -0.160521  -0.299874  0  3.916409  0
C  C70  1  0.50238348  0.02869379  0.80985406  1  1.535959  0  0.221838  0.664371  0  4.103677  0
C  C71  1  0.49761485  0.97130718  0.19014741  1  1.536146  0  0.221884  0.664429  0  4.103704  0
C  C72  1  0.02514767  0.18176850  0.18247669  1  1.518006  0  0.21775  0.664302  0  4.10324  0
C  C73  1  0.97485187  0.81823247  0.81752420  1  1.51801  0  0.217738  0.664281  0  4.103312  0
C  C74  1  0.16703696  0.27138086  0.27467131  1  -0.034506  0  -0.162665  -0.313872  0  3.932166  0
C  C75  1  0.83296258  0.72862010  0.72532881  1  -0.034469  0  -0.162652  -0.31386  0  3.932114  0
C  C76  1  0.12882780  0.30430771  0.38353781  1  -0.009266  0  -0.168307  -0.122105  0  3.970294  0
C  C77  1  0.87117293  0.69569326  0.61646250  1  -0.009273  0  -0.168293  -0.122075  0  3.970255  0
C  C78  1  0.28064172  0.38378776  0.47437881  1  -0.031346  0  -0.168535  -0.154294  0  3.976421  0
C  C79  1  0.71935879  0.61621205  0.52562132  1  -0.031355  0  -0.168542  -0.154298  0  3.976435  0
C  C80  1  0.24874309  0.41449993  0.58534541  1  -0.030797  0  -0.166264  -0.146205  0  3.955665  0
C  C81  1  0.75125815  0.58549757  0.41465454  1  -0.030786  0  -0.166281  -0.146233  0  3.955697  0
C  C82  1  0.40337148  0.48920077  0.67512849  1  -0.032628  0  -0.160715  -0.123462  0  3.9518  0
C  C83  1  0.59662832  0.51079558  0.32487185  1  -0.032683  0  -0.160712  -0.123488  0  3.951731  0
C  C84  1  0.37183576  0.51584846  0.78717161  1  -0.013137  0  -0.162832  -0.316029  0  3.914191  0
C  C85  1  0.62816404  0.48414789  0.21282721  1  -0.012966  0  -0.162857  -0.316021  0  3.914103  0
C  C86  1  0.52809625  0.58848242  0.87224107  1  1.513582  0  0.250657  0.684782  0  4.050134  0
C  C87  1  0.47190213  0.41151277  0.12775967  1  1.513103  0  0.250665  0.684849  0  4.050192  0
O  O88  1  0.86870026  0.81500052  0.11845434  1  -1.216251  0  -0.37839  -0.629128  0  2.29105  0
O  O89  1  0.13129951  0.18500160  0.88154521  1  -1.216217  0  -0.378378  -0.629152  0  2.290949  0
O  O90  1  0.87517954  0.56943367  0.04623041  1  -1.209355  0  -0.312741  -0.564921  0  2.316146  0
O  O91  1  0.12482263  0.43056845  0.95376951  1  -1.209386  0  -0.312766  -0.564944  0  2.316158  0
O  O92  1  0.46816657  0.05143404  0.90195799  1  -1.217247  0  -0.420718  -0.690346  0  2.308439  0
O  O93  1  0.53183104  0.94856923  0.09804290  1  -1.217434  0  -0.420728  -0.690356  0  2.308517  0
O  O94  1  0.63794011  0.99412711  0.80319786  1  -1.190974  0  -0.346491  -0.584103  0  2.185715  0
O  O95  1  0.36205610  0.00586924  0.19680269  1  -1.191036  0  -0.346543  -0.58414  0  2.18567  0
O  O96  1  0.88163939  0.16263084  0.19261727  1  -1.175631  0  -0.349347  -0.575233  0  2.154239  0
O  O97  1  0.11835992  0.83736897  0.80738420  1  -1.175595  0  -0.349316  -0.575194  0  2.154291  0
O  O98  1  0.05367606  0.12460493  0.09148522  1  -1.222521  0  -0.431179  -0.697673  0  2.291524  0
O  O99  1  0.94632182  0.87539372  0.90851512  1  -1.222611  0  -0.431193  -0.697682  0  2.291506  0
O  O100  1  0.56471643  0.73043757  0.91022200  1  -1.188613  0  -0.349272  -0.596436  0  2.287689  0
O  O101  1  0.43528122  0.26955994  0.08978274  1  -1.188201  0  -0.349248  -0.596482  0  2.287744  0
O  O102  1  0.62464850  0.49290036  0.89931199  1  -1.205607  0  -0.322608  -0.512841  0  2.313925  0
O  O103  1  0.37535250  0.50709599  0.10068777  1  -1.205558  0  -0.322618  -0.512875  0  2.313981  0
O  O104  1  0.77340005  0.26392048  0.99015731  1  -1.267624  0  -0.625074  -0.814314  0  2.089808  0
O  O105  1  0.22659926  0.73607933  0.00984263  1  -1.267731  0  -0.625056  -0.814268  0  2.089802  0
