# generated using pymatgen
data_Ho2H18(C3O8)3
_symmetry_space_group_name_H-M   'P 1'
_cell_length_a   8.75788329
_cell_length_b   8.75787128
_cell_length_c   8.75791146
_cell_angle_alpha   66.30005042
_cell_angle_beta   66.29992118
_cell_angle_gamma   66.30024302
_symmetry_Int_Tables_number   1
_chemical_formula_structural   Ho2H18(C3O8)3
_chemical_formula_sum   'Ho2 H18 C9 O24'
_cell_volume   539.56481246
_cell_formula_units_Z   1
loop_
 _symmetry_equiv_pos_site_id
 _symmetry_equiv_pos_as_xyz
  1  'x, y, z'
loop_
 _atom_site_type_symbol
 _atom_site_label
 _atom_site_symmetry_multiplicity
 _atom_site_fract_x
 _atom_site_fract_y
 _atom_site_fract_z
 _atom_site_occupancy
 _atom_site_hle17_bader_spin_density
 _atom_site_hle17_ddec_charge
 _atom_site_hle17_ddec_spin_density
 _atom_site_hle17_ddec_sum_bond_order
 _atom_site_hle17_magmom
 _atom_site_hse06_10hf_bader_spin_density
 _atom_site_hse06_10hf_ddec_charge
 _atom_site_hse06_10hf_ddec_spin_density
 _atom_site_hse06_10hf_ddec_sum_bond_order
 _atom_site_hse06_10hf_magmom
 _atom_site_hse06_bader_spin_density
 _atom_site_hse06_ddec_charge
 _atom_site_hse06_ddec_spin_density
 _atom_site_hse06_ddec_sum_bond_order
 _atom_site_hse06_magmom
 _atom_site_pbe_bader_spin_density
 _atom_site_pbe_cm5_charge
 _atom_site_pbe_ddec_charge
 _atom_site_pbe_ddec_spin_density
 _atom_site_pbe_ddec_sum_bond_order
 _atom_site_pbe_magmom
Ho  Ho0  1  0.73263832  0.73263547  0.73263759  1  0  2.296522  0  1.580556  0  0  2.224256  0  1.893828  0  0  2.266453  0  1.857017  0  0  1.513159  2.102811  0  2.091912  0
Ho  Ho1  1  0.26736589  0.26735919  0.26736337  1  0  2.296507  0  1.580575  0  0  2.224235  0  1.893849  0  0  2.266431  0  1.857035  0  0  1.513126  2.102788  0  2.091937  0
H  H2  1  0.69137668  0.82426921  0.05072649  1  0  0.418342  0  0.878211  0  0  0.385603  0  0.953312  0  0  0.398053  0  0.935382  0  0  0.308662  0.376661  0  0.965986  0
H  H3  1  0.05072619  0.69137597  0.82426458  1  0  0.418388  0  0.878133  0  0  0.385601  0  0.95332  0  0  0.398051  0  0.93539  0  0  0.308649  0.376656  0  0.965998  0
H  H4  1  0.82426624  0.05072543  0.69137519  1  0  0.418414  0  0.878106  0  0  0.385614  0  0.953303  0  0  0.398064  0  0.935373  0  0  0.308647  0.376669  0  0.965982  0
H  H5  1  0.94927466  0.17573433  0.30862632  1  0  0.41842  0  0.878114  0  0  0.385635  0  0.95328  0  0  0.398085  0  0.93535  0  0  0.308663  0.37669  0  0.965958  0
H  H6  1  0.17573350  0.30862389  0.94927514  1  0  0.4184  0  0.878122  0  0  0.385599  0  0.953324  0  0  0.398048  0  0.935396  0  0  0.308651  0.376655  0  0.966001  0
H  H7  1  0.30862102  0.94927465  0.17573534  1  0  0.418359  0  0.878178  0  0  0.385578  0  0.953352  0  0  0.398029  0  0.935421  0  0  0.30865  0.376635  0  0.966028  0
H  H8  1  0.72884025  0.78367163  0.36342776  1  0  0.448645  0  0.845609  0  0  0.416539  0  0.908401  0  0  0.428345  0  0.891141  0  0  0.300782  0.407546  0  0.921467  0
H  H9  1  0.36342237  0.72883336  0.78367169  1  0  0.448612  0  0.845672  0  0  0.416518  0  0.908445  0  0  0.428324  0  0.891186  0  0  0.300771  0.407524  0  0.921512  0
H  H10  1  0.78367204  0.36342584  0.72883211  1  0  0.448611  0  0.845652  0  0  0.416482  0  0.908483  0  0  0.428289  0  0.891224  0  0  0.300743  0.407489  0  0.92155  0
H  H11  1  0.63657599  0.21632885  0.27116674  1  0  0.448567  0  0.845721  0  0  0.416472  0  0.908498  0  0  0.428278  0  0.891239  0  0  0.300732  0.407478  0  0.921565  0
H  H12  1  0.21632868  0.27116449  0.63657420  1  0  0.448627  0  0.845621  0  0  0.416494  0  0.908459  0  0  0.428301  0  0.891201  0  0  0.300738  0.4075  0  0.921527  0
H  H13  1  0.27116345  0.63657671  0.21632637  1  0  0.448622  0  0.845637  0  0  0.416507  0  0.908443  0  0  0.428315  0  0.891183  0  0  0.300768  0.407514  0  0.92151  0
H  H14  1  0.54425792  0.87424519  0.47655019  1  0  0.443481  0  0.843751  0  0  0.415155  0  0.904936  0  0  0.425537  0  0.889403  0  0  0.311446  0.407362  0  0.916329  0
H  H15  1  0.47655152  0.54425489  0.87424186  1  0  0.443467  0  0.843734  0  0  0.415124  0  0.904982  0  0  0.42551  0  0.889443  0  0  0.311402  0.407332  0  0.916374  0
H  H16  1  0.87424492  0.47655566  0.54425503  1  0  0.443493  0  0.843742  0  0  0.41515  0  0.904957  0  0  0.425536  0  0.889417  0  0  0.311429  0.407356  0  0.916351  0
H  H17  1  0.52344374  0.12575609  0.45574707  1  0  0.443464  0  0.843741  0  0  0.415123  0  0.904985  0  0  0.425508  0  0.889446  0  0  0.311397  0.40733  0  0.916378  0
H  H18  1  0.12575391  0.45574299  0.52344731  1  0  0.44347  0  0.84374  0  0  0.415141  0  0.90495  0  0  0.425523  0  0.889418  0  0  0.311419  0.407348  0  0.916343  0
H  H19  1  0.45574229  0.52345387  0.12575540  1  0  0.443451  0  0.843866  0  0  0.415119  0  0.905007  0  0  0.425504  0  0.889472  0  0  0.311431  0.407326  0  0.9164  0
C  C20  1  0.50000125  0.03552347  0.96447481  1  0  0.32863  0  3.68244  0  0  0.309589  0  3.945657  0  0  0.316647  0  3.94763  0  0  0.15861  0.303373  0  3.941116  0
C  C21  1  0.96447383  0.49999941  0.03552476  1  0  0.328664  0  3.682691  0  0  0.309659  0  3.945812  0  0  0.316717  0  3.947793  0  0  0.158616  0.303551  0  3.941078  0
C  C22  1  0.03552725  0.96447431  0.50000023  1  0  0.328627  0  3.682606  0  0  0.309662  0  3.945708  0  0  0.316708  0  3.947689  0  0  0.158604  0.303477  0  3.941126  0
C  C23  1  0.41817755  0.08389219  0.81599553  1  0  0.620722  0  3.812798  0  0  0.563399  0  4.11733  0  0  0.59596  0  4.109805  0  0  0.231723  0.540847  0  4.120055  0
C  C24  1  0.81599549  0.41818260  0.08389201  1  0  0.620352  0  3.81329  0  0  0.563256  0  4.117511  0  0  0.595815  0  4.109999  0  0  0.231745  0.540683  0  4.12022  0
C  C25  1  0.08389570  0.81599378  0.41818290  1  0  0.620554  0  3.813112  0  0  0.563362  0  4.117476  0  0  0.595933  0  4.109948  0  0  0.231787  0.540804  0  4.120198  0
C  C26  1  0.18400550  0.91611090  0.58181732  1  0  0.620546  0  3.813007  0  0  0.563304  0  4.117435  0  0  0.595877  0  4.109906  0  0  0.231782  0.540747  0  4.120156  0
C  C27  1  0.91610438  0.58181848  0.18400294  1  0  0.62057  0  3.812924  0  0  0.563352  0  4.117357  0  0  0.595907  0  4.109847  0  0  0.231757  0.540778  0  4.120069  0
C  C28  1  0.58182130  0.18400422  0.91610538  1  0  0.620512  0  3.813087  0  0  0.563375  0  4.117332  0  0  0.595933  0  4.10982  0  0  0.231734  0.540823  0  4.120057  0
O  O29  1  0.62238764  0.87217639  0.96269179  1  0  -0.702551  0  2.244794  0  0  -0.665284  0  2.48243  0  0  -0.681887  0  2.465314  0  0  -0.436053  -0.642333  0  2.496249  0
O  O30  1  0.96268713  0.62238977  0.87217791  1  0  -0.70259  0  2.244706  0  0  -0.665318  0  2.482386  0  0  -0.681915  0  2.465257  0  0  -0.43607  -0.642393  0  2.496165  0
O  O31  1  0.87218136  0.96268626  0.62238903  1  0  -0.702579  0  2.24473  0  0  -0.665315  0  2.482413  0  0  -0.681909  0  2.465287  0  0  -0.436053  -0.642372  0  2.496222  0
O  O32  1  0.03731564  0.12782029  0.37760901  1  0  -0.70264  0  2.244732  0  0  -0.665367  0  2.482378  0  0  -0.681966  0  2.465257  0  0  -0.436095  -0.642423  0  2.496187  0
O  O33  1  0.12782070  0.37761154  0.03731168  1  0  -0.702526  0  2.244702  0  0  -0.665268  0  2.482397  0  0  -0.681862  0  2.465271  0  0  -0.436042  -0.642343  0  2.496176  0
O  O34  1  0.37761256  0.03730881  0.12782398  1  0  -0.702537  0  2.244685  0  0  -0.66525  0  2.482353  0  0  -0.681849  0  2.465229  0  0  -0.436052  -0.642296  0  2.49617  0
O  O35  1  0.66777471  0.81954170  0.47278167  1  0  -0.93852  0  1.916229  0  0  -0.90112  0  2.113917  0  0  -0.919492  0  2.079189  0  0  -0.668063  -0.875923  0  2.146035  0
O  O36  1  0.47278167  0.66777355  0.81953308  1  0  -0.938465  0  1.916203  0  0  -0.901077  0  2.113899  0  0  -0.919445  0  2.079166  0  0  -0.668004  -0.875877  0  2.146016  0
O  O37  1  0.81953624  0.47278426  0.66777220  1  0  -0.938465  0  1.916227  0  0  -0.901078  0  2.113942  0  0  -0.919427  0  2.07917  0  0  -0.668009  -0.875878  0  2.146062  0
O  O38  1  0.52721846  0.18046500  0.33222740  1  0  -0.938425  0  1.91626  0  0  -0.901035  0  2.113949  0  0  -0.919401  0  2.079207  0  0  -0.66797  -0.875835  0  2.146066  0
O  O39  1  0.18046516  0.33222702  0.52721556  1  0  -0.938455  0  1.916216  0  0  -0.901065  0  2.113946  0  0  -0.919416  0  2.079178  0  0  -0.667977  -0.875866  0  2.146065  0
O  O40  1  0.33222729  0.52721976  0.18045876  1  0  -0.938472  0  1.916345  0  0  -0.90107  0  2.113992  0  0  -0.919421  0  2.07922  0  0  -0.668023  -0.875872  0  2.146108  0
O  O41  1  0.50869805  0.00853711  0.69802224  1  0  -0.662153  0  2.08424  0  0  -0.614762  0  2.328573  0  0  -0.639649  0  2.319097  0  0  -0.352803  -0.587306  0  2.336577  0
O  O42  1  0.69802493  0.50869480  0.00854073  1  0  -0.661989  0  2.084575  0  0  -0.614676  0  2.328782  0  0  -0.639574  0  2.319325  0  0  -0.35283  -0.587226  0  2.336796  0
O  O43  1  0.00853881  0.69802538  0.50869900  1  0  -0.662103  0  2.084468  0  0  -0.614761  0  2.328766  0  0  -0.639635  0  2.319247  0  0  -0.352831  -0.587304  0  2.33677  0
O  O44  1  0.30197730  0.99145853  0.49130468  1  0  -0.662056  0  2.084502  0  0  -0.614708  0  2.32881  0  0  -0.639587  0  2.319306  0  0  -0.352821  -0.587253  0  2.336813  0
O  O45  1  0.99146254  0.49129841  0.30197346  1  0  -0.662157  0  2.084431  0  0  -0.614766  0  2.328685  0  0  -0.639671  0  2.319235  0  0  -0.352815  -0.587316  0  2.336699  0
O  O46  1  0.49130127  0.30197755  0.99146010  1  0  -0.662086  0  2.084412  0  0  -0.61475  0  2.328639  0  0  -0.639626  0  2.319136  0  0  -0.352814  -0.587293  0  2.33664  0
O  O47  1  0.27305706  0.19934221  0.81817755  1  0  -0.557853  0  2.011606  0  0  -0.495717  0  2.214616  0  0  -0.520669  0  2.202824  0  0  -0.279359  -0.479452  0  2.224207  0
O  O48  1  0.81817760  0.27304471  0.19934933  1  0  -0.557635  0  2.011388  0  0  -0.495684  0  2.214382  0  0  -0.520633  0  2.202592  0  0  -0.279366  -0.479419  0  2.22398  0
O  O49  1  0.19934512  0.81818249  0.27304616  1  0  -0.557657  0  2.011441  0  0  -0.4957  0  2.214522  0  0  -0.52066  0  2.202727  0  0  -0.279391  -0.479434  0  2.224115  0
O  O50  1  0.18182195  0.80065414  0.72695480  1  0  -0.557714  0  2.011352  0  0  -0.495704  0  2.21441  0  0  -0.520662  0  2.202615  0  0  -0.279408  -0.479438  0  2.224004  0
O  O51  1  0.80065499  0.72695358  0.18182198  1  0  -0.557623  0  2.011319  0  0  -0.495698  0  2.214427  0  0  -0.520644  0  2.202637  0  0  -0.279388  -0.479435  0  2.224025  0
O  O52  1  0.72694406  0.18182635  0.80065453  1  0  -0.557788  0  2.011598  0  0  -0.495729  0  2.214534  0  0  -0.520682  0  2.202744  0  0  -0.279384  -0.479463  0  2.224125  0
