# generated using pymatgen
data_TbH6(C2O3)3
_symmetry_space_group_name_H-M   'P 1'
_cell_length_a   6.56625332
_cell_length_b   10.22613188
_cell_length_c   13.37237443
_cell_angle_alpha   89.99996231
_cell_angle_beta   89.99994880
_cell_angle_gamma   89.99993727
_symmetry_Int_Tables_number   1
_chemical_formula_structural   TbH6(C2O3)3
_chemical_formula_sum   'Tb4 H24 C24 O36'
_cell_volume   897.91980640
_cell_formula_units_Z   4
loop_
 _symmetry_equiv_pos_site_id
 _symmetry_equiv_pos_as_xyz
  1  'x, y, z'
loop_
 _atom_site_type_symbol
 _atom_site_label
 _atom_site_symmetry_multiplicity
 _atom_site_fract_x
 _atom_site_fract_y
 _atom_site_fract_z
 _atom_site_occupancy
 _atom_site_hle17_bader_spin_density
 _atom_site_hle17_ddec_charge
 _atom_site_hle17_ddec_spin_density
 _atom_site_hle17_ddec_sum_bond_order
 _atom_site_hle17_magmom
 _atom_site_hse06_10hf_bader_spin_density
 _atom_site_hse06_10hf_ddec_charge
 _atom_site_hse06_10hf_ddec_spin_density
 _atom_site_hse06_10hf_ddec_sum_bond_order
 _atom_site_hse06_10hf_magmom
 _atom_site_hse06_bader_spin_density
 _atom_site_hse06_ddec_charge
 _atom_site_hse06_ddec_spin_density
 _atom_site_hse06_ddec_sum_bond_order
 _atom_site_hse06_magmom
 _atom_site_pbe_bader_spin_density
 _atom_site_pbe_cm5_charge
 _atom_site_pbe_ddec_charge
 _atom_site_pbe_ddec_spin_density
 _atom_site_pbe_ddec_sum_bond_order
 _atom_site_pbe_magmom
Tb  Tb0  1  0.13563796  0.50000005  0.69894378  1  0  2.294726  0  1.57173  0  0  2.141219  0  2.039831  0  0  2.260584  0  1.859016  0  0  1.490536  2.106622  0  2.070551  0
Tb  Tb1  1  0.86436438  0.50000094  0.30105541  1  0  2.294756  0  1.571678  0  0  2.141293  0  2.039669  0  0  2.260605  0  1.858959  0  0  1.490565  2.106697  0  2.070385  0
Tb  Tb2  1  0.63563576  0.00000041  0.80105580  1  0  2.294747  0  1.571664  0  0  2.141225  0  2.039744  0  0  2.260591  0  1.858943  0  0  1.490539  2.106626  0  2.07046  0
Tb  Tb3  1  0.36436506  0.99999960  0.19894414  1  0  2.294793  0  1.571598  0  0  2.141375  0  2.039525  0  0  2.260657  0  1.85887  0  0  1.490591  2.10678  0  2.070242  0
H  H4  1  0.21686547  0.27367294  0.84678443  1  0  0.444731  0  0.844886  0  0  0.417122  0  0.901217  0  0  0.427488  0  0.886289  0  0  0.304794  0.41  0  0.91153  0
H  H5  1  0.78313421  0.27367303  0.15321488  1  0  0.444802  0  0.844799  0  0  0.417196  0  0.90112  0  0  0.42756  0  0.886197  0  0  0.304833  0.410073  0  0.911434  0
H  H6  1  0.71686619  0.22632845  0.65321511  1  0  0.444765  0  0.844855  0  0  0.417159  0  0.901176  0  0  0.427524  0  0.886251  0  0  0.304817  0.410035  0  0.911493  0
H  H7  1  0.28313357  0.22632776  0.34678496  1  0  0.444796  0  0.844808  0  0  0.417189  0  0.901132  0  0  0.427553  0  0.886207  0  0  0.304829  0.410065  0  0.911448  0
H  H8  1  0.78313535  0.72632708  0.15321476  1  0  0.44479  0  0.844823  0  0  0.417182  0  0.901149  0  0  0.427546  0  0.886225  0  0  0.304833  0.410058  0  0.911465  0
H  H9  1  0.21686509  0.72632699  0.84678506  1  0  0.444748  0  0.84487  0  0  0.417144  0  0.901188  0  0  0.427509  0  0.886265  0  0  0.304805  0.410021  0  0.911503  0
H  H10  1  0.28313615  0.77367254  0.34678557  1  0  0.444732  0  0.844891  0  0  0.417129  0  0.90121  0  0  0.427494  0  0.886286  0  0  0.304796  0.410006  0  0.911525  0
H  H11  1  0.71686573  0.77367128  0.65321422  1  0  0.444795  0  0.844806  0  0  0.417192  0  0.901122  0  0  0.427556  0  0.886199  0  0  0.304822  0.410069  0  0.911437  0
H  H12  1  0.98164403  0.31111106  0.85029970  1  0  0.454861  0  0.832281  0  0  0.425204  0  0.892123  0  0  0.436773  0  0.875222  0  0  0.305338  0.417121  0  0.904009  0
H  H13  1  0.01835558  0.31111170  0.14970033  1  0  0.454853  0  0.832288  0  0  0.425196  0  0.892134  0  0  0.436764  0  0.875235  0  0  0.305331  0.417112  0  0.904021  0
H  H14  1  0.48164533  0.18888818  0.64970046  1  0  0.454844  0  0.832299  0  0  0.42518  0  0.892156  0  0  0.436751  0  0.875253  0  0  0.30534  0.417096  0  0.904042  0
H  H15  1  0.51835602  0.18888829  0.35030037  1  0  0.45485  0  0.832289  0  0  0.425192  0  0.892135  0  0  0.436759  0  0.875236  0  0  0.305336  0.417108  0  0.904021  0
H  H16  1  0.01835526  0.68888895  0.14970024  1  0  0.454846  0  0.832299  0  0  0.425185  0  0.892148  0  0  0.436755  0  0.875246  0  0  0.305336  0.417102  0  0.904035  0
H  H17  1  0.98164371  0.68888831  0.85030035  1  0  0.454868  0  0.832268  0  0  0.42521  0  0.892111  0  0  0.436779  0  0.875209  0  0  0.305338  0.417126  0  0.903998  0
H  H18  1  0.51835702  0.81111184  0.35029947  1  0  0.454854  0  0.832288  0  0  0.425193  0  0.892138  0  0  0.436762  0  0.875236  0  0  0.305327  0.417107  0  0.904027  0
H  H19  1  0.48164328  0.81111270  0.64970031  1  0  0.454851  0  0.832287  0  0  0.425195  0  0.892128  0  0  0.436763  0  0.87523  0  0  0.305335  0.41711  0  0.904015  0
H  H20  1  0.22614949  0.42428429  0.48314964  1  0  0.447609  0  0.834294  0  0  0.420856  0  0.892375  0  0  0.430583  0  0.878239  0  0  0.315423  0.413906  0  0.902723  0
H  H21  1  0.77385145  0.42428310  0.51685108  1  0  0.447614  0  0.834271  0  0  0.420864  0  0.892356  0  0  0.430591  0  0.87822  0  0  0.315434  0.413914  0  0.902705  0
H  H22  1  0.72614918  0.07571556  0.01685023  1  0  0.44763  0  0.834265  0  0  0.420872  0  0.892354  0  0  0.4306  0  0.878216  0  0  0.315416  0.413923  0  0.902701  0
H  H23  1  0.27385236  0.07571629  0.98314918  1  0  0.447594  0  0.834311  0  0  0.420839  0  0.892399  0  0  0.430566  0  0.878263  0  0  0.315411  0.41389  0  0.902748  0
H  H24  1  0.77385285  0.57571768  0.51685104  1  0  0.447609  0  0.83429  0  0  0.420865  0  0.892355  0  0  0.430591  0  0.87822  0  0  0.315432  0.413915  0  0.902703  0
H  H25  1  0.22614937  0.57571691  0.48314960  1  0  0.447596  0  0.834308  0  0  0.420847  0  0.892386  0  0  0.430574  0  0.878251  0  0  0.31542  0.413898  0  0.902734  0
H  H26  1  0.27385011  0.92428250  0.98314896  1  0  0.447578  0  0.834335  0  0  0.420825  0  0.892422  0  0  0.430552  0  0.878285  0  0  0.315403  0.413875  0  0.90277  0
H  H27  1  0.72614846  0.92428275  0.01685001  1  0  0.447614  0  0.834301  0  0  0.42086  0  0.892374  0  0  0.430589  0  0.878235  0  0  0.315411  0.41391  0  0.902723  0
C  C28  1  0.07712196  0.75446975  0.60109424  1  0  0.656536  0  3.905238  0  0  0.60278  0  4.206199  0  0  0.634845  0  4.204396  0  0  0.214221  0.580511  0  4.210793  0
C  C29  1  0.92287690  0.75446855  0.39890632  1  0  0.656453  0  3.905367  0  0  0.602678  0  4.206341  0  0  0.634744  0  4.204534  0  0  0.214173  0.580411  0  4.210931  0
C  C30  1  0.57711917  0.74553156  0.89890660  1  0  0.656537  0  3.905194  0  0  0.602778  0  4.206128  0  0  0.634844  0  4.204325  0  0  0.214238  0.58051  0  4.210721  0
C  C31  1  0.42287818  0.74553097  0.10109320  1  0  0.656502  0  3.905285  0  0  0.602707  0  4.20628  0  0  0.634772  0  4.20447  0  0  0.214202  0.580443  0  4.210867  0
C  C32  1  0.92287885  0.24553223  0.39890495  1  0  0.656545  0  3.90525  0  0  0.602756  0  4.20628  0  0  0.634821  0  4.204471  0  0  0.214198  0.580489  0  4.210872  0
C  C33  1  0.07712240  0.24553244  0.60109437  1  0  0.656522  0  3.905193  0  0  0.602748  0  4.206189  0  0  0.634813  0  4.204387  0  0  0.214212  0.580481  0  4.210781  0
C  C34  1  0.42287708  0.25446650  0.10109482  1  0  0.656432  0  3.90544  0  0  0.602672  0  4.206367  0  0  0.634736  0  4.204558  0  0  0.214189  0.580406  0  4.210959  0
C  C35  1  0.57712111  0.25446709  0.89890523  1  0  0.656394  0  3.905411  0  0  0.602658  0  4.20636  0  0  0.634722  0  4.204559  0  0  0.214181  0.580389  0  4.210955  0
C  C36  1  0.03927231  0.88163223  0.54878338  1  0  -0.051317  0  3.681306  0  0  -0.050325  0  3.927737  0  0  -0.051567  0  3.941777  0  0  0.00601  -0.049307  0  3.917609  0
C  C37  1  0.96072482  0.88163195  0.45121636  1  0  -0.051328  0  3.681382  0  0  -0.050273  0  3.927775  0  0  -0.051516  0  3.941817  0  0  0.006002  -0.049254  0  3.917643  0
C  C38  1  0.53926965  0.61836812  0.95121523  1  0  -0.051258  0  3.681315  0  0  -0.050246  0  3.927701  0  0  -0.051489  0  3.941743  0  0  0.00603  -0.049227  0  3.917574  0
C  C39  1  0.46072336  0.61836853  0.04878315  1  0  -0.051386  0  3.681384  0  0  -0.050322  0  3.927769  0  0  -0.051561  0  3.941807  0  0  0.006  -0.049304  0  3.917636  0
C  C40  1  0.96072394  0.11836974  0.45121655  1  0  -0.051333  0  3.681288  0  0  -0.050347  0  3.927807  0  0  -0.051588  0  3.941847  0  0  0.005998  -0.049328  0  3.917677  0
C  C41  1  0.03927448  0.11837002  0.54878283  1  0  -0.051283  0  3.681286  0  0  -0.050291  0  3.927781  0  0  -0.051532  0  3.941821  0  0  0.006015  -0.049271  0  3.917651  0
C  C42  1  0.46071899  0.38162896  0.04878321  1  0  -0.051362  0  3.681355  0  0  -0.050246  0  3.927692  0  0  -0.051485  0  3.941732  0  0  0.006004  -0.049233  0  3.917568  0
C  C43  1  0.53927289  0.38162953  0.95121604  1  0  -0.051261  0  3.681312  0  0  -0.050342  0  3.927797  0  0  -0.051585  0  3.941841  0  0  0.005993  -0.049319  0  3.917672  0
C  C44  1  0.07650734  0.00000167  0.59811889  1  0  -0.056121  0  3.655583  0  0  -0.056377  0  3.898709  0  0  -0.057232  0  3.912745  0  0  0.013568  -0.056671  0  3.890082  0
C  C45  1  0.92349128  0.00000146  0.40188055  1  0  -0.056059  0  3.65564  0  0  -0.056359  0  3.898779  0  0  -0.057216  0  3.91281  0  0  0.013568  -0.05665  0  3.890152  0
C  C46  1  0.57651325  0.49999785  0.90188220  1  0  -0.056152  0  3.655625  0  0  -0.056405  0  3.898794  0  0  -0.057261  0  3.912829  0  0  0.013553  -0.056712  0  3.890158  0
C  C47  1  0.42348757  0.49999923  0.09811922  1  0  -0.056026  0  3.655616  0  0  -0.056376  0  3.898767  0  0  -0.057234  0  3.912803  0  0  0.013546  -0.056662  0  3.890142  0
C  C48  1  0.12812877  0.00000161  0.70836108  1  0  0.750801  0  3.845283  0  0  0.703854  0  4.138122  0  0  0.739607  0  4.128263  0  0  0.249069  0.680199  0  4.145799  0
C  C49  1  0.87187138  0.00000152  0.29163761  1  0  0.750647  0  3.845446  0  0  0.703766  0  4.138204  0  0  0.739528  0  4.12832  0  0  0.249108  0.680102  0  4.145902  0
C  C50  1  0.62812878  0.49999788  0.79163999  1  0  0.750989  0  3.845038  0  0  0.70401  0  4.13795  0  0  0.739767  0  4.128087  0  0  0.249142  0.680403  0  4.145539  0
C  C51  1  0.37187509  0.50000018  0.20836144  1  0  0.750708  0  3.845346  0  0  0.703764  0  4.13819  0  0  0.739521  0  4.128326  0  0  0.2491  0.680097  0  4.145891  0
O  O52  1  0.11841507  0.34354202  0.83070202  1  0  -0.929641  0  1.854028  0  0  -0.884226  0  2.046299  0  0  -0.913  0  2.008404  0  0  -0.650859  -0.870253  0  2.068014  0
O  O53  1  0.88158297  0.34354105  0.16929724  1  0  -0.929712  0  1.853955  0  0  -0.884294  0  2.046192  0  0  -0.91306  0  2.008301  0  0  -0.650886  -0.870323  0  2.067909  0
O  O54  1  0.61841740  0.15645846  0.66929756  1  0  -0.929667  0  1.853982  0  0  -0.884249  0  2.046246  0  0  -0.913026  0  2.008348  0  0  -0.650894  -0.870276  0  2.067963  0
O  O55  1  0.38158400  0.15645869  0.33070255  1  0  -0.9297  0  1.853942  0  0  -0.884292  0  2.046189  0  0  -0.913056  0  2.0083  0  0  -0.650886  -0.870319  0  2.067905  0
O  O56  1  0.88158423  0.65645898  0.16929791  1  0  -0.929693  0  1.853969  0  0  -0.884292  0  2.046247  0  0  -0.913062  0  2.008355  0  0  -0.650904  -0.870321  0  2.067964  0
O  O57  1  0.11841480  0.65645799  0.83070194  1  0  -0.929655  0  1.853984  0  0  -0.884245  0  2.046265  0  0  -0.913021  0  2.008366  0  0  -0.650866  -0.870271  0  2.067983  0
O  O58  1  0.38158495  0.84354155  0.33070237  1  0  -0.929661  0  1.854022  0  0  -0.884263  0  2.046283  0  0  -0.91303  0  2.008394  0  0  -0.650866  -0.870291  0  2.068001  0
O  O59  1  0.61841529  0.84354133  0.66929664  1  0  -0.929699  0  1.853935  0  0  -0.884284  0  2.0462  0  0  -0.913063  0  2.0083  0  0  -0.650885  -0.870311  0  2.067918  0
O  O60  1  0.25121848  0.50000008  0.52659515  1  0  -0.901584  0  1.888879  0  0  -0.861134  0  2.081527  0  0  -0.887181  0  2.045892  0  0  -0.632044  -0.848684  0  2.102841  0
O  O61  1  0.74878691  0.50000091  0.47340553  1  0  -0.901604  0  1.88884  0  0  -0.861178  0  2.081509  0  0  -0.887232  0  2.045899  0  0  -0.632074  -0.848729  0  2.102824  0
O  O62  1  0.75122122  0.99999914  0.97340411  1  0  -0.901618  0  1.888828  0  0  -0.861174  0  2.081474  0  0  -0.88723  0  2.045848  0  0  -0.632033  -0.848725  0  2.102788  0
O  O63  1  0.24878027  0.99999972  0.02659482  1  0  -0.901562  0  1.888879  0  0  -0.861125  0  2.081524  0  0  -0.88717  0  2.045909  0  0  -0.632018  -0.848675  0  2.102838  0
O  O64  1  0.92824057  0.67361873  0.61126279  1  0  -0.720568  0  2.049798  0  0  -0.658809  0  2.278536  0  0  -0.690374  0  2.267406  0  0  -0.345438  -0.641523  0  2.285734  0
O  O65  1  0.07175538  0.67361815  0.38873780  1  0  -0.720525  0  2.049813  0  0  -0.658785  0  2.27859  0  0  -0.690346  0  2.267462  0  0  -0.34542  -0.641497  0  2.285779  0
O  O66  1  0.42824274  0.82638232  0.88873640  1  0  -0.72058  0  2.049836  0  0  -0.658822  0  2.278574  0  0  -0.690388  0  2.267444  0  0  -0.345466  -0.641536  0  2.285773  0
O  O67  1  0.57175448  0.82638456  0.11126262  1  0  -0.720578  0  2.049852  0  0  -0.658809  0  2.278588  0  0  -0.690368  0  2.267465  0  0  -0.345446  -0.641512  0  2.285765  0
O  O68  1  0.07175720  0.32638324  0.38873715  1  0  -0.720652  0  2.049892  0  0  -0.658863  0  2.278618  0  0  -0.690424  0  2.267494  0  0  -0.345448  -0.641568  0  2.285802  0
O  O69  1  0.92824239  0.32638186  0.61126362  1  0  -0.720616  0  2.049862  0  0  -0.65882  0  2.278568  0  0  -0.690386  0  2.267442  0  0  -0.345449  -0.641527  0  2.285755  0
O  O70  1  0.57175199  0.17361378  0.11126279  1  0  -0.720599  0  2.049944  0  0  -0.65883  0  2.27864  0  0  -0.690389  0  2.267518  0  0  -0.345447  -0.641533  0  2.285819  0
O  O71  1  0.42824786  0.17361448  0.88873731  1  0  -0.720583  0  2.049941  0  0  -0.658795  0  2.278633  0  0  -0.690363  0  2.267511  0  0  -0.345452  -0.641503  0  2.285821  0
O  O72  1  0.25213196  0.72698420  0.63450188  1  0  -0.642006  0  2.013402  0  0  -0.582638  0  2.238655  0  0  -0.613272  0  2.229813  0  0  -0.314497  -0.565302  0  2.244058  0
O  O73  1  0.74786543  0.72698414  0.36549719  1  0  -0.641972  0  2.013464  0  0  -0.582589  0  2.238715  0  0  -0.613217  0  2.229872  0  0  -0.314469  -0.565256  0  2.244117  0
O  O74  1  0.75213375  0.77301404  0.86549888  1  0  -0.642037  0  2.013359  0  0  -0.582646  0  2.23859  0  0  -0.613278  0  2.229742  0  0  -0.314489  -0.56531  0  2.243992  0
O  O75  1  0.24786508  0.77301551  0.13450166  1  0  -0.642004  0  2.013392  0  0  -0.58262  0  2.238647  0  0  -0.613247  0  2.229807  0  0  -0.31449  -0.565294  0  2.244056  0
O  O76  1  0.74786734  0.27301679  0.36549880  1  0  -0.642002  0  2.013387  0  0  -0.582619  0  2.238645  0  0  -0.613252  0  2.229813  0  0  -0.314493  -0.56529  0  2.244052  0
O  O77  1  0.25213387  0.27301685  0.63450200  1  0  -0.642003  0  2.013372  0  0  -0.582618  0  2.238631  0  0  -0.613253  0  2.229789  0  0  -0.314505  -0.565291  0  2.24404  0
O  O78  1  0.24786402  0.22698500  0.13450405  1  0  -0.641951  0  2.013431  0  0  -0.582605  0  2.238677  0  0  -0.613234  0  2.229843  0  0  -0.314478  -0.565271  0  2.24408  0
O  O79  1  0.75213421  0.22698451  0.86549603  1  0  -0.641938  0  2.013458  0  0  -0.582568  0  2.238695  0  0  -0.613203  0  2.229857  0  0  -0.314471  -0.565237  0  2.244101  0
O  O80  1  0.97646553  0.99999915  0.76743840  1  0  -0.715035  0  1.972463  0  0  -0.665546  0  2.22579  0  0  -0.702049  0  2.207247  0  0  -0.401924  -0.647564  0  2.234112  0
O  O81  1  0.02353749  0.99999971  0.23256128  1  0  -0.714959  0  1.972461  0  0  -0.665497  0  2.225747  0  0  -0.70199  0  2.207205  0  0  -0.401935  -0.647513  0  2.234075  0
O  O82  1  0.47646395  0.49999992  0.73256450  1  0  -0.715074  0  1.972467  0  0  -0.665562  0  2.225819  0  0  -0.702066  0  2.207272  0  0  -0.401906  -0.647595  0  2.234115  0
O  O83  1  0.52353991  0.50000108  0.26743917  1  0  -0.715011  0  1.972498  0  0  -0.665524  0  2.225818  0  0  -0.702021  0  2.207279  0  0  -0.401972  -0.647537  0  2.234146  0
O  O84  1  0.31093162  0.00000447  0.73482530  1  0  -0.69313  0  2.093429  0  0  -0.641904  0  2.351906  0  0  -0.676624  0  2.336489  0  0  -0.389142  -0.624171  0  2.359146  0
O  O85  1  0.68906920  0.99999946  0.26517239  1  0  -0.693078  0  2.093504  0  0  -0.641912  0  2.351958  0  0  -0.676623  0  2.336536  0  0  -0.389214  -0.62418  0  2.359204  0
O  O86  1  0.81093929  0.49999979  0.76517345  1  0  -0.693234  0  2.093303  0  0  -0.642057  0  2.35191  0  0  -0.676781  0  2.336492  0  0  -0.389199  -0.624337  0  2.359121  0
O  O87  1  0.18906762  0.50000023  0.23482649  1  0  -0.693105  0  2.093416  0  0  -0.641876  0  2.351875  0  0  -0.676593  0  2.336462  0  0  -0.389145  -0.624138  0  2.359118  0
