# generated using pymatgen
data_Ag2H22C19(SO2)2
_symmetry_space_group_name_H-M   'P 1'
_cell_length_a   7.74466611
_cell_length_b   9.81069458
_cell_length_c   13.39556065
_cell_angle_alpha   94.01844203
_cell_angle_beta   106.82633446
_cell_angle_gamma   89.96678622
_symmetry_Int_Tables_number   1
_chemical_formula_structural   Ag2H22C19(SO2)2
_chemical_formula_sum   'Ag4 H44 C38 S4 O8'
_cell_volume   971.62442215
_cell_formula_units_Z   2
loop_
 _symmetry_equiv_pos_site_id
 _symmetry_equiv_pos_as_xyz
  1  'x, y, z'
loop_
 _atom_site_type_symbol
 _atom_site_label
 _atom_site_symmetry_multiplicity
 _atom_site_fract_x
 _atom_site_fract_y
 _atom_site_fract_z
 _atom_site_occupancy
 _atom_site_hle17_bader_spin_density
 _atom_site_hle17_ddec_charge
 _atom_site_hle17_ddec_spin_density
 _atom_site_hle17_ddec_sum_bond_order
 _atom_site_hle17_magmom
 _atom_site_hse06_10hf_bader_spin_density
 _atom_site_hse06_10hf_ddec_charge
 _atom_site_hse06_10hf_ddec_spin_density
 _atom_site_hse06_10hf_ddec_sum_bond_order
 _atom_site_hse06_10hf_magmom
 _atom_site_hse06_bader_spin_density
 _atom_site_hse06_ddec_charge
 _atom_site_hse06_ddec_spin_density
 _atom_site_hse06_ddec_sum_bond_order
 _atom_site_hse06_magmom
 _atom_site_pbe_bader_spin_density
 _atom_site_pbe_cm5_charge
 _atom_site_pbe_ddec_charge
 _atom_site_pbe_ddec_spin_density
 _atom_site_pbe_ddec_sum_bond_order
 _atom_site_pbe_magmom
Ag  Ag0  1  0.15733707  0.92784123  0.05575652  1  0  0.495273  0  1.560949  0  0  0.384251  0  2.030297  0  0  0.416857  0  1.972907  0  0  0.395251  0.361328  0  2.07006  0
Ag  Ag1  1  0.10131085  0.57226531  0.94422654  1  0  0.495337  0  1.561464  0  0  0.384529  0  2.03032  0  0  0.417011  0  1.973144  0  0  0.395521  0.361814  0  2.069874  0
Ag  Ag2  1  0.84266501  0.07215515  0.94424509  1  0  0.495285  0  1.560919  0  0  0.384263  0  2.030256  0  0  0.416872  0  1.972866  0  0  0.395247  0.361343  0  2.070017  0
Ag  Ag3  1  0.89869000  0.42773517  0.05577434  1  0  0.495286  0  1.561519  0  0  0.384462  0  2.030376  0  0  0.416941  0  1.973207  0  0  0.395504  0.361749  0  2.069926  0
H  H4  1  0.27283755  0.86856002  0.25683400  1  0  0.090084  0  1.00076  0  0  0.096001  0  1.073994  0  0  0.099828  0  1.070477  0  0  0.091266  0.093136  0  1.076807  0
H  H5  1  0.01693444  0.63148261  0.74312844  1  0  0.090405  0  1.000148  0  0  0.096273  0  1.073465  0  0  0.100091  0  1.069906  0  0  0.091263  0.093422  0  1.076289  0
H  H6  1  0.72716334  0.13144249  0.74316924  1  0  0.090129  0  1.000698  0  0  0.096  0  1.073969  0  0  0.099827  0  1.070453  0  0  0.091284  0.093133  0  1.076781  0
H  H7  1  0.98307044  0.36851685  0.25687157  1  0  0.090456  0  1.000122  0  0  0.096336  0  1.07342  0  0  0.100154  0  1.069861  0  0  0.091294  0.093487  0  1.076244  0
H  H8  1  0.50268591  0.97002453  0.41616679  1  0  0.079779  0  0.97972  0  0  0.089929  0  1.04565  0  0  0.09216  0  1.04557  0  0  0.095473  0.088252  0  1.045996  0
H  H9  1  0.08765334  0.53006728  0.58389185  1  0  0.078687  0  0.980469  0  0  0.088991  0  1.046197  0  0  0.09118  0  1.046218  0  0  0.095213  0.087308  0  1.046564  0
H  H10  1  0.49731616  0.02997184  0.58383556  1  0  0.079747  0  0.979729  0  0  0.089884  0  1.045671  0  0  0.092111  0  1.045602  0  0  0.095458  0.088208  0  1.046015  0
H  H11  1  0.91234754  0.46993323  0.41610531  1  0  0.07869  0  0.980474  0  0  0.088995  0  1.046196  0  0  0.091184  0  1.046218  0  0  0.095217  0.087312  0  1.046563  0
H  H12  1  0.71350529  0.81821378  0.53513055  1  0  0.084026  0  0.964189  0  0  0.095741  0  1.025083  0  0  0.0978  0  1.025226  0  0  0.097025  0.094289  0  1.024999  0
H  H13  1  0.17881918  0.68199974  0.46484736  1  0  0.084036  0  0.96527  0  0  0.095987  0  1.025705  0  0  0.09804  0  1.025933  0  0  0.097222  0.09454  0  1.025616  0
H  H14  1  0.28649819  0.18178465  0.46487142  1  0  0.084053  0  0.964255  0  0  0.095739  0  1.02517  0  0  0.097793  0  1.025332  0  0  0.097019  0.094287  0  1.025086  0
H  H15  1  0.82117513  0.31800689  0.53515051  1  0  0.084121  0  0.965135  0  0  0.096014  0  1.025638  0  0  0.098068  0  1.025867  0  0  0.097231  0.094568  0  1.025546  0
H  H16  1  0.68861678  0.56696032  0.49574008  1  0  0.084868  0  0.961108  0  0  0.097416  0  1.01995  0  0  0.099538  0  1.020236  0  0  0.097444  0.095885  0  1.019959  0
H  H17  1  0.19225377  0.93321062  0.50410837  1  0  0.085205  0  0.960359  0  0  0.09741  0  1.01964  0  0  0.099556  0  1.019863  0  0  0.097315  0.095875  0  1.019627  0
H  H18  1  0.31138270  0.43303915  0.50425977  1  0  0.084883  0  0.961104  0  0  0.097433  0  1.01994  0  0  0.099556  0  1.020225  0  0  0.097449  0.095901  0  1.019951  0
H  H19  1  0.80773647  0.06679601  0.49589105  1  0  0.085221  0  0.960311  0  0  0.09739  0  1.019637  0  0  0.099527  0  1.019858  0  0  0.097323  0.095861  0  1.019621  0
H  H20  1  0.46484199  0.46733761  0.33245129  1  0  0.097117  0  0.961931  0  0  0.10622  0  1.027755  0  0  0.109348  0  1.026069  0  0  0.100836  0.103932  0  1.029061  0
H  H21  1  0.13149013  0.03284099  0.66724366  1  0  0.097221  0  0.961281  0  0  0.106758  0  1.026452  0  0  0.109897  0  1.024771  0  0  0.101176  0.104423  0  1.027868  0
H  H22  1  0.53515606  0.53265880  0.66754665  1  0  0.097147  0  0.961933  0  0  0.106253  0  1.02775  0  0  0.109382  0  1.026053  0  0  0.100858  0.103964  0  1.029056  0
H  H23  1  0.86850276  0.96716459  0.33275914  1  0  0.097146  0  0.961409  0  0  0.106686  0  1.02658  0  0  0.109828  0  1.024896  0  0  0.101171  0.104352  0  1.027995  0
H  H24  1  0.50684006  0.22176599  0.30145164  1  0  0.122202  0  0.957172  0  0  0.142632  0  1.016741  0  0  0.143086  0  1.018732  0  0  0.093041  0.142306  0  1.015495  0
H  H25  1  0.20508746  0.27815702  0.69885485  1  0  0.12142  0  0.958459  0  0  0.14191  0  1.018075  0  0  0.142357  0  1.020064  0  0  0.092622  0.141598  0  1.016791  0
H  H26  1  0.49315673  0.77823348  0.69854701  1  0  0.122164  0  0.957207  0  0  0.142591  0  1.016783  0  0  0.143045  0  1.018774  0  0  0.093005  0.142265  0  1.015535  0
H  H27  1  0.79491478  0.72184449  0.30114557  1  0  0.121405  0  0.95848  0  0  0.141882  0  1.018108  0  0  0.142328  0  1.020098  0  0  0.092624  0.141571  0  1.016826  0
H  H28  1  0.31641104  0.11552370  0.29625138  1  0  0.122115  0  0.960771  0  0  0.142861  0  1.021042  0  0  0.143336  0  1.022057  0  0  0.096526  0.14229  0  1.020766  0
H  H29  1  0.01990881  0.38462666  0.70404134  1  0  0.122167  0  0.960778  0  0  0.142759  0  1.021185  0  0  0.143225  0  1.022189  0  0  0.096563  0.142212  0  1.02088  0
H  H30  1  0.68358710  0.88447577  0.70374750  1  0  0.122171  0  0.960683  0  0  0.142914  0  1.020955  0  0  0.143388  0  1.021969  0  0  0.096513  0.142341  0  1.020682  0
H  H31  1  0.98009348  0.61537588  0.29595691  1  0  0.122207  0  0.960704  0  0  0.142765  0  1.02116  0  0  0.143232  0  1.022162  0  0  0.096564  0.142219  0  1.020857  0
H  H32  1  0.28828701  0.25273917  0.21257980  1  0  0.153926  0  0.95578  0  0  0.17289  0  1.01101  0  0  0.17484  0  1.010891  0  0  0.102064  0.171465  0  1.011168  0
H  H33  1  0.07561523  0.24746605  0.78777656  1  0  0.153492  0  0.955704  0  0  0.172467  0  1.010956  0  0  0.174417  0  1.01086  0  0  0.10202  0.171033  0  1.011103  0
H  H34  1  0.71171245  0.74725927  0.78741924  1  0  0.153897  0  0.955767  0  0  0.172866  0  1.011002  0  0  0.174815  0  1.010885  0  0  0.102046  0.171441  0  1.011158  0
H  H35  1  0.92438702  0.75253546  0.21222163  1  0  0.153442  0  0.955787  0  0  0.172415  0  1.011046  0  0  0.174365  0  1.010952  0  0  0.101998  0.170983  0  1.011193  0
H  H36  1  0.59793156  0.24552767  0.12459245  1  0  0.093252  0  0.944221  0  0  0.107725  0  1.007894  0  0  0.108313  0  1.009316  0  0  0.095733  0.107177  0  1.007135  0
H  H37  1  0.47312159  0.25415423  0.87558044  1  0  0.093243  0  0.943409  0  0  0.107667  0  1.007203  0  0  0.108271  0  1.008639  0  0  0.095591  0.107098  0  1.006497  0
H  H38  1  0.40206789  0.75447077  0.87540659  1  0  0.093248  0  0.944258  0  0  0.10772  0  1.007934  0  0  0.108311  0  1.009357  0  0  0.095724  0.107175  0  1.007174  0
H  H39  1  0.52687658  0.74584627  0.12441700  1  0  0.09323  0  0.943464  0  0  0.107662  0  1.007261  0  0  0.108263  0  1.008696  0  0  0.095579  0.107092  0  1.006558  0
H  H40  1  0.56945425  0.11119298  0.02695127  1  0  0.073165  0  0.977466  0  0  0.08693  0  1.050943  0  0  0.088465  0  1.049195  0  0  0.084416  0.085648  0  1.052568  0
H  H41  1  0.54267483  0.38844504  0.97324129  1  0  0.073271  0  0.976581  0  0  0.086804  0  1.050225  0  0  0.088335  0  1.048494  0  0  0.084258  0.085527  0  1.051863  0
H  H42  1  0.43054654  0.88880545  0.97304949  1  0  0.073192  0  0.977461  0  0  0.08696  0  1.05093  0  0  0.088494  0  1.049194  0  0  0.084421  0.085679  0  1.052554  0
H  H43  1  0.45733278  0.61155544  0.02675850  1  0  0.073216  0  0.976586  0  0  0.086758  0  1.050228  0  0  0.088287  0  1.048495  0  0  0.08422  0.085497  0  1.051853  0
H  H44  1  0.23761024  0.17737714  0.95457800  1  0  0.080609  0  0.96171  0  0  0.092478  0  1.03449  0  0  0.094609  0  1.032794  0  0  0.086182  0.090885  0  1.035756  0
H  H45  1  0.28333547  0.32268059  0.04573461  1  0  0.081379  0  0.961154  0  0  0.092826  0  1.034364  0  0  0.095009  0  1.032607  0  0  0.086174  0.091208  0  1.03565  0
H  H46  1  0.76239059  0.82262232  0.04542208  1  0  0.080633  0  0.961686  0  0  0.092521  0  1.034451  0  0  0.094648  0  1.032753  0  0  0.086199  0.090926  0  1.035718  0
H  H47  1  0.71666668  0.67731685  0.95426184  1  0  0.081426  0  0.961013  0  0  0.092835  0  1.034282  0  0  0.095017  0  1.032525  0  0  0.086153  0.091215  0  1.035569  0
C  C48  1  0.23368755  0.60105910  0.18220531  1  0  0.626768  0  3.926546  0  0  0.575587  0  4.21243  0  0  0.610323  0  4.208463  0  0  0.195456  0.551946  0  4.214031  0
C  C49  1  0.05159429  0.89900656  0.81767650  1  0  0.625936  0  3.927768  0  0  0.573929  0  4.214846  0  0  0.608699  0  4.210851  0  0  0.195154  0.550323  0  4.216375  0
C  C50  1  0.76631330  0.39894137  0.81779632  1  0  0.626899  0  3.9264  0  0  0.575653  0  4.212382  0  0  0.61039  0  4.208416  0  0  0.195493  0.552013  0  4.213977  0
C  C51  1  0.94840514  0.10099186  0.18232552  1  0  0.626055  0  3.927576  0  0  0.574054  0  4.214626  0  0  0.608825  0  4.21063  0  0  0.195223  0.550445  0  4.216162  0
C  C52  1  0.35899714  0.66219948  0.28315000  1  0  -0.071775  0  3.765467  0  0  -0.044132  0  3.992109  0  0  -0.052506  0  4.015609  0  0  -0.021228  -0.038599  0  3.975888  0
C  C53  1  0.07571580  0.83792592  0.71667995  1  0  -0.073034  0  3.768279  0  0  -0.045174  0  3.995127  0  0  -0.053547  0  4.018548  0  0  -0.021676  -0.039646  0  3.978934  0
C  C54  1  0.64100508  0.33780201  0.71685192  1  0  -0.071903  0  3.765538  0  0  -0.044233  0  3.992177  0  0  -0.052608  0  4.015677  0  0  -0.021241  -0.0387  0  3.975948  0
C  C55  1  0.92428100  0.16207457  0.28332024  1  0  -0.073202  0  3.768479  0  0  -0.045331  0  3.995335  0  0  -0.053706  0  4.018757  0  0  -0.021716  -0.039799  0  3.979146  0
C  C56  1  0.36757471  0.80362221  0.30838840  1  0  -0.080453  0  3.73979  0  0  -0.101485  0  3.981947  0  0  -0.101293  0  4.002048  0  0  -0.091101  -0.100961  0  3.967843  0
C  C57  1  0.05974763  0.69647754  0.69153743  1  0  -0.081433  0  3.740684  0  0  -0.102466  0  3.982814  0  0  -0.102247  0  4.002855  0  0  -0.091118  -0.10196  0  3.968775  0
C  C58  1  0.63242747  0.19637825  0.69161495  1  0  -0.080386  0  3.739804  0  0  -0.101385  0  3.981959  0  0  -0.10119  0  4.002055  0  0  -0.091052  -0.100871  0  3.967874  0
C  C59  1  0.94025323  0.30352294  0.30846271  1  0  -0.081434  0  3.740717  0  0  -0.102481  0  3.982842  0  0  -0.102266  0  4.002892  0  0  -0.091107  -0.101976  0  3.968801  0
C  C60  1  0.49390743  0.85962961  0.39875114  1  0  -0.089024  0  3.787866  0  0  -0.099853  0  4.035887  0  0  -0.10341  0  4.057877  0  0  -0.098808  -0.097436  0  4.021089  0
C  C61  1  0.09576184  0.64048046  0.60120515  1  0  -0.087199  0  3.787601  0  0  -0.098103  0  4.035805  0  0  -0.101635  0  4.057769  0  0  -0.09857  -0.095693  0  4.021048  0
C  C62  1  0.50609468  0.14036880  0.60125283  1  0  -0.089018  0  3.787792  0  0  -0.099829  0  4.035788  0  0  -0.103387  0  4.057776  0  0  -0.098862  -0.097413  0  4.020983  0
C  C63  1  0.90423497  0.35952003  0.39879430  1  0  -0.087204  0  3.787667  0  0  -0.098102  0  4.035857  0  0  -0.101635  0  4.057821  0  0  -0.098604  -0.095692  0  4.021104  0
C  C64  1  0.61152584  0.77493722  0.46558968  1  0  -0.066462  0  3.76284  0  0  -0.08011  0  4.007545  0  0  -0.080179  0  4.028332  0  0  -0.090788  -0.080131  0  3.993547  0
C  C65  1  0.14605819  0.72523483  0.53429534  1  0  -0.066927  0  3.764522  0  0  -0.080774  0  4.009232  0  0  -0.080897  0  4.030035  0  0  -0.090957  -0.080787  0  3.995222  0
C  C66  1  0.38847492  0.22506019  0.53441102  1  0  -0.066534  0  3.762805  0  0  -0.080154  0  4.007502  0  0  -0.080226  0  4.028287  0  0  -0.090781  -0.080174  0  3.993501  0
C  C67  1  0.85393327  0.27476669  0.46570251  1  0  -0.067042  0  3.764504  0  0  -0.080841  0  4.009208  0  0  -0.080967  0  4.030009  0  0  -0.09096  -0.080853  0  3.995197  0
C  C68  1  0.59916382  0.63338354  0.44276723  1  0  -0.08091  0  3.781516  0  0  -0.091029  0  4.028904  0  0  -0.094654  0  4.051146  0  0  -0.094803  -0.08881  0  4.014037  0
C  C69  1  0.15591142  0.86676090  0.55705218  1  0  -0.080763  0  3.780701  0  0  -0.090619  0  4.028097  0  0  -0.094267  0  4.050416  0  0  -0.093982  -0.088357  0  4.013193  0
C  C70  1  0.40083566  0.36661592  0.55723336  1  0  -0.080904  0  3.781549  0  0  -0.091025  0  4.028935  0  0  -0.09465  0  4.051174  0  0  -0.094801  -0.088805  0  4.014063  0
C  C71  1  0.84408008  0.13324266  0.44294729  1  0  -0.080648  0  3.780586  0  0  -0.090473  0  4.027986  0  0  -0.094105  0  4.050291  0  0  -0.093926  -0.088218  0  4.01309  0
C  C72  1  0.47367720  0.57718663  0.35214062  1  0  -0.080385  0  3.750574  0  0  -0.106425  0  3.999614  0  0  -0.105607  0  4.019233  0  0  -0.086855  -0.106449  0  3.986309  0
C  C73  1  0.12085146  0.92297091  0.64760606  1  0  -0.079845  0  3.750214  0  0  -0.105992  0  3.998885  0  0  -0.105189  0  4.018527  0  0  -0.087444  -0.106054  0  3.985638  0
C  C74  1  0.52632361  0.42281182  0.64785790  1  0  -0.080376  0  3.750643  0  0  -0.106417  0  3.999678  0  0  -0.105596  0  4.019295  0  0  -0.086863  -0.106439  0  3.986367  0
C  C75  1  0.87914136  0.07703163  0.35239358  1  0  -0.079759  0  3.750269  0  0  -0.105908  0  3.998929  0  0  -0.105105  0  4.01856  0  0  -0.087461  -0.105973  0  3.985688  0
C  C76  1  0.38093969  0.17475378  0.25018175  1  0  -0.326009  0  3.594911  0  0  -0.398903  0  3.837843  0  0  -0.39959  0  3.846475  0  0  -0.231471  -0.398316  0  3.83232  0
C  C77  1  0.13060595  0.32536419  0.75014468  1  0  -0.325087  0  3.597411  0  0  -0.398221  0  3.841279  0  0  -0.398861  0  3.849852  0  0  -0.231208  -0.397639  0  3.835741  0
C  C78  1  0.61905713  0.82524671  0.74981696  1  0  -0.325991  0  3.594862  0  0  -0.398871  0  3.837762  0  0  -0.39956  0  3.846396  0  0  -0.231398  -0.398283  0  3.832234  0
C  C79  1  0.86939771  0.67463937  0.24985461  1  0  -0.325016  0  3.597333  0  0  -0.398114  0  3.841207  0  0  -0.398751  0  3.849782  0  0  -0.231175  -0.397535  0  3.835677  0
C  C80  1  0.49672026  0.17401770  0.07238716  1  0  -0.13281  0  3.641049  0  0  -0.160373  0  3.887009  0  0  -0.161021  0  3.90187  0  0  -0.151891  -0.160083  0  3.877173  0
C  C81  1  0.42435380  0.32575883  0.92785752  1  0  -0.132579  0  3.640299  0  0  -0.160108  0  3.886465  0  0  -0.160738  0  3.901314  0  0  -0.151601  -0.159879  0  3.876712  0
C  C82  1  0.50327926  0.82598280  0.92761125  1  0  -0.13286  0  3.641031  0  0  -0.160437  0  3.887039  0  0  -0.161102  0  3.901919  0  0  -0.151884  -0.160149  0  3.877199  0
C  C83  1  0.57565375  0.67423960  0.07214364  1  0  -0.132596  0  3.640529  0  0  -0.160143  0  3.886737  0  0  -0.16076  0  3.901563  0  0  -0.151577  -0.15991  0  3.876943  0
C  C84  1  0.34429165  0.24997750  0.00014676  1  0  -0.120814  0  3.705601  0  0  -0.161442  0  3.957449  0  0  -0.163781  0  3.973266  0  0  -0.178076  -0.15943  0  3.946228  0
C  C85  1  0.65571187  0.75002095  0.99985148  1  0  -0.120847  0  3.705423  0  0  -0.161474  0  3.957287  0  0  -0.163801  0  3.973083  0  0  -0.178091  -0.159476  0  3.946102  0
S  S86  1  0.43515451  0.05630571  0.15491813  1  0  0.039094  0  2.704396  0  0  0.079191  0  3.124102  0  0  0.069844  0  3.119764  0  0  -0.013151  0.085672  0  3.127082  0
S  S87  1  0.28027752  0.44366789  0.84535563  1  0  0.038836  0  2.705992  0  0  0.078882  0  3.125752  0  0  0.069587  0  3.121389  0  0  -0.013334  0.085328  0  3.128733  0
S  S88  1  0.56484502  0.94369479  0.84508029  1  0  0.039121  0  2.704422  0  0  0.079223  0  3.124129  0  0  0.06988  0  3.119799  0  0  -0.013115  0.085707  0  3.127107  0
S  S89  1  0.71972208  0.55633466  0.15464142  1  0  0.038871  0  2.706159  0  0  0.078926  0  3.125907  0  0  0.069626  0  3.121541  0  0  -0.013328  0.085371  0  3.128892  0
O  O90  1  0.17543378  0.68003909  0.10753543  1  0  -0.630724  0  2.130288  0  0  -0.549058  0  2.41342  0  0  -0.581827  0  2.40107  0  0  -0.33709  -0.526234  0  2.42135  0
O  O91  1  0.06884912  0.82004835  0.89241099  1  0  -0.630383  0  2.130197  0  0  -0.548285  0  2.413559  0  0  -0.581136  0  2.401378  0  0  -0.336767  -0.525396  0  2.421342  0
O  O92  1  0.82456434  0.31996037  0.89246493  1  0  -0.630763  0  2.130303  0  0  -0.549047  0  2.413408  0  0  -0.581816  0  2.401061  0  0  -0.337075  -0.526222  0  2.421335  0
O  O93  1  0.93115298  0.17994905  0.10759142  1  0  -0.63042  0  2.130111  0  0  -0.548319  0  2.413446  0  0  -0.581171  0  2.401267  0  0  -0.336796  -0.525432  0  2.421233  0
O  O94  1  0.19466588  0.47459013  0.17587404  1  0  -0.62357  0  2.037057  0  0  -0.55755  0  2.289908  0  0  -0.586137  0  2.279937  0  0  -0.324606  -0.5374  0  2.295968  0
O  O95  1  0.01832257  0.02541864  0.82396572  1  0  -0.622743  0  2.037518  0  0  -0.556947  0  2.291629  0  0  -0.585504  0  2.281529  0  0  -0.324291  -0.536664  0  2.297512  0
O  O96  1  0.80533766  0.52540933  0.82412500  1  0  -0.623646  0  2.036992  0  0  -0.557619  0  2.289891  0  0  -0.586206  0  2.279919  0  0  -0.324662  -0.537468  0  2.295948  0
O  O97  1  0.98167682  0.97457776  0.17603469  1  0  -0.622776  0  2.03743  0  0  -0.556993  0  2.291564  0  0  -0.585543  0  2.281447  0  0  -0.324333  -0.536711  0  2.297458  0
