# generated using pymatgen
data_TmH8C6O7
_symmetry_space_group_name_H-M   'P 1'
_cell_length_a   7.56884907
_cell_length_b   10.62684721
_cell_length_c   12.58969522
_cell_angle_alpha   72.15805522
_cell_angle_beta   72.51344065
_cell_angle_gamma   69.14963703
_symmetry_Int_Tables_number   1
_chemical_formula_structural   TmH8C6O7
_chemical_formula_sum   'Tm4 H32 C24 O28'
_cell_volume   879.69639565
_cell_formula_units_Z   4
loop_
 _symmetry_equiv_pos_site_id
 _symmetry_equiv_pos_as_xyz
  1  'x, y, z'
loop_
 _atom_site_type_symbol
 _atom_site_label
 _atom_site_symmetry_multiplicity
 _atom_site_fract_x
 _atom_site_fract_y
 _atom_site_fract_z
 _atom_site_occupancy
 _atom_site_hle17_bader_spin_density
 _atom_site_hle17_ddec_charge
 _atom_site_hle17_ddec_spin_density
 _atom_site_hle17_ddec_sum_bond_order
 _atom_site_hle17_magmom
 _atom_site_hse06_10hf_bader_spin_density
 _atom_site_hse06_10hf_ddec_charge
 _atom_site_hse06_10hf_ddec_spin_density
 _atom_site_hse06_10hf_ddec_sum_bond_order
 _atom_site_hse06_10hf_magmom
 _atom_site_hse06_bader_spin_density
 _atom_site_hse06_ddec_charge
 _atom_site_hse06_ddec_spin_density
 _atom_site_hse06_ddec_sum_bond_order
 _atom_site_hse06_magmom
 _atom_site_pbe_bader_spin_density
 _atom_site_pbe_cm5_charge
 _atom_site_pbe_ddec_charge
 _atom_site_pbe_ddec_spin_density
 _atom_site_pbe_ddec_sum_bond_order
 _atom_site_pbe_magmom
Tm  Tm0  1  0.55459513  0.68929251  0.77033891  1  0  2.281469  0  1.583437  0  0  2.13175  0  2.055824  0  0  2.275946  0  1.843562  0  0  1.547529  2.093483  0  2.085407  0
Tm  Tm1  1  0.01421037  0.81068185  0.72968955  1  0  2.281773  0  1.583801  0  0  2.131688  0  2.056739  0  0  2.276194  0  1.84392  0  0  1.548022  2.093818  0  2.085736  0
Tm  Tm2  1  0.44540565  0.31070703  0.22966160  1  0  2.281427  0  1.583464  0  0  2.131709  0  2.055858  0  0  2.275906  0  1.843591  0  0  1.547515  2.09344  0  2.085446  0
Tm  Tm3  1  0.98578999  0.18931872  0.27031077  1  0  2.281812  0  1.583736  0  0  2.131774  0  2.056562  0  0  2.276222  0  1.843844  0  0  1.548049  2.093872  0  2.085612  0
H  H4  1  0.34496676  0.63810121  0.46736017  1  0  0.125228  0  0.92084  0  0  0.140479  0  0.974508  0  0  0.14342  0  0.972624  0  0  0.111761  0.138494  0  0.975496  0
H  H5  1  0.45033758  0.86193293  0.03252824  1  0  0.124619  0  0.919644  0  0  0.140501  0  0.973211  0  0  0.143397  0  0.971439  0  0  0.111926  0.138613  0  0.973982  0
H  H6  1  0.65503929  0.36190350  0.53263618  1  0  0.125234  0  0.920907  0  0  0.140481  0  0.974555  0  0  0.143428  0  0.972669  0  0  0.111795  0.138499  0  0.975542  0
H  H7  1  0.54966055  0.13806558  0.96747276  1  0  0.124657  0  0.919602  0  0  0.140526  0  0.973175  0  0  0.143424  0  0.971402  0  0  0.111937  0.13864  0  0.973943  0
H  H8  1  0.30029378  0.50268696  0.58150269  1  0  0.11234  0  0.901467  0  0  0.130459  0  0.953389  0  0  0.13233  0  0.952777  0  0  0.111663  0.129092  0  0.95376  0
H  H9  1  0.38462683  0.99740203  0.91836284  1  0  0.114201  0  0.901686  0  0  0.132459  0  0.953759  0  0  0.134463  0  0.953037  0  0  0.11259  0.130978  0  0.954242  0
H  H10  1  0.69970661  0.49731775  0.41849240  1  0  0.112367  0  0.901509  0  0  0.130481  0  0.953407  0  0  0.132359  0  0.952795  0  0  0.111696  0.12911  0  0.953782  0
H  H11  1  0.61536904  0.00259648  0.08163765  1  0  0.114217  0  0.901704  0  0  0.132465  0  0.953769  0  0  0.134468  0  0.95305  0  0  0.112587  0.130984  0  0.954253  0
H  H12  1  0.98699830  0.86404447  0.04074760  1  0  0.123431  0  0.921041  0  0  0.137869  0  0.977676  0  0  0.140749  0  0.975632  0  0  0.110384  0.135941  0  0.978822  0
H  H13  1  0.89177318  0.63597180  0.45923193  1  0  0.123802  0  0.918457  0  0  0.137827  0  0.976156  0  0  0.140685  0  0.974051  0  0  0.110456  0.13591  0  0.977292  0
H  H14  1  0.01300369  0.13595405  0.95925232  1  0  0.123454  0  0.921066  0  0  0.137904  0  0.977682  0  0  0.140783  0  0.975639  0  0  0.110386  0.135975  0  0.978827  0
H  H15  1  0.10823230  0.36402568  0.54076788  1  0  0.123819  0  0.918445  0  0  0.137864  0  0.976138  0  0  0.140726  0  0.97403  0  0  0.11047  0.135947  0  0.977272  0
H  H16  1  0.13284115  0.74205408  0.13751671  1  0  0.118573  0  0.91222  0  0  0.133188  0  0.965641  0  0  0.136031  0  0.963551  0  0  0.110476  0.131266  0  0.966829  0
H  H17  1  0.01241399  0.75795656  0.36245722  1  0  0.118311  0  0.912518  0  0  0.133959  0  0.965113  0  0  0.136742  0  0.96301  0  0  0.110378  0.132068  0  0.966292  0
H  H18  1  0.86716156  0.25794547  0.86248326  1  0  0.118599  0  0.912125  0  0  0.133217  0  0.965542  0  0  0.136058  0  0.963454  0  0  0.110482  0.131297  0  0.966731  0
H  H19  1  0.98758674  0.24204506  0.63754212  1  0  0.118311  0  0.912545  0  0  0.13395  0  0.965166  0  0  0.136732  0  0.963064  0  0  0.110362  0.132059  0  0.966345  0
H  H20  1  0.80735105  0.70161027  0.15096204  1  0  0.104813  0  0.912533  0  0  0.124236  0  0.963504  0  0  0.126345  0  0.962518  0  0  0.106316  0.122786  0  0.964003  0
H  H21  1  0.66000025  0.79837355  0.34889622  1  0  0.106009  0  0.911884  0  0  0.12505  0  0.962901  0  0  0.127084  0  0.962039  0  0  0.106923  0.123611  0  0.963368  0
H  H22  1  0.19264931  0.29839031  0.84903828  1  0  0.104793  0  0.91254  0  0  0.124229  0  0.963505  0  0  0.126338  0  0.962516  0  0  0.10631  0.122779  0  0.964004  0
H  H23  1  0.34000019  0.20162600  0.65110325  1  0  0.106007  0  0.911886  0  0  0.125061  0  0.962903  0  0  0.127094  0  0.962043  0  0  0.106924  0.123623  0  0.963368  0
H  H24  1  0.90237731  0.66350090  0.01535675  1  0  0.112518  0  0.941104  0  0  0.125781  0  1.00278  0  0  0.128215  0  1.002496  0  0  0.110269  0.12385  0  1.00338  0
H  H25  1  0.58128758  0.83653676  0.48447883  1  0  0.114229  0  0.940197  0  0  0.127155  0  1.002034  0  0  0.129559  0  1.001781  0  0  0.110755  0.125248  0  1.002582  0
H  H26  1  0.09762271  0.33649967  0.98464253  1  0  0.11251  0  0.941108  0  0  0.125781  0  1.002784  0  0  0.128223  0  1.002485  0  0  0.110277  0.12385  0  1.003382  0
H  H27  1  0.41871370  0.16346072  0.51552102  1  0  0.114221  0  0.940192  0  0  0.127168  0  1.002021  0  0  0.129571  0  1.001769  0  0  0.11077  0.125261  0  1.002569  0
H  H28  1  0.30608193  0.50661828  0.85146279  1  0  0.433019  0  0.86481  0  0  0.40379  0  0.925712  0  0  0.415034  0  0.9095  0  0  0.298189  0.396022  0  0.937029  0
H  H29  1  0.66416008  0.99328651  0.64856244  1  0  0.433331  0  0.864409  0  0  0.404245  0  0.925107  0  0  0.415496  0  0.908884  0  0  0.298145  0.396497  0  0.936391  0
H  H30  1  0.69392078  0.49338127  0.14853718  1  0  0.433011  0  0.864818  0  0  0.403774  0  0.925736  0  0  0.415019  0  0.909521  0  0  0.29817  0.396005  0  0.937053  0
H  H31  1  0.33583994  0.00671407  0.35143684  1  0  0.433343  0  0.86439  0  0  0.40424  0  0.925119  0  0  0.415491  0  0.908894  0  0  0.298137  0.396489  0  0.936405  0
H  H32  1  0.49250751  0.42428354  0.91187601  1  0  0.452029  0  0.840875  0  0  0.420728  0  0.904295  0  0  0.432602  0  0.887037  0  0  0.30151  0.412647  0  0.916123  0
H  H33  1  0.82865917  0.07564732  0.58818975  1  0  0.451356  0  0.841694  0  0  0.420321  0  0.90465  0  0  0.432176  0  0.887432  0  0  0.301176  0.41223  0  0.916517  0
H  H34  1  0.50749486  0.57571601  0.08812292  1  0  0.451992  0  0.840924  0  0  0.420693  0  0.904341  0  0  0.432567  0  0.887083  0  0  0.301495  0.412607  0  0.916174  0
H  H35  1  0.17134043  0.92435430  0.41180934  1  0  0.45139  0  0.841648  0  0  0.420361  0  0.904595  0  0  0.432214  0  0.88738  0  0  0.301195  0.412269  0  0.916463  0
C  C36  1  0.41498423  0.55082712  0.52938333  1  0  -0.236933  0  3.681596  0  0  -0.276457  0  3.931863  0  0  -0.280436  0  3.936721  0  0  -0.158866  -0.273023  0  3.926714  0
C  C37  1  0.49523059  0.94920251  0.97056394  1  0  -0.236213  0  3.678883  0  0  -0.277331  0  3.932147  0  0  -0.281419  0  3.937336  0  0  -0.159411  -0.273875  0  3.926816  0
C  C38  1  0.58501763  0.44917759  0.47061305  1  0  -0.237024  0  3.681726  0  0  -0.276429  0  3.931922  0  0  -0.280438  0  3.936808  0  0  -0.158892  -0.27299  0  3.926773  0
C  C39  1  0.50476519  0.05079704  0.02943741  1  0  -0.236378  0  3.678859  0  0  -0.277448  0  3.932079  0  0  -0.281538  0  3.93727  0  0  -0.15946  -0.273995  0  3.926753  0
C  C40  1  0.47066289  0.60725301  0.60614226  1  0  0.736248  0  3.812179  0  0  0.693068  0  4.107967  0  0  0.726678  0  4.107971  0  0  0.208977  0.669962  0  4.113882  0
C  C41  1  0.68412425  0.89278270  0.89387944  1  0  0.733274  0  3.816838  0  0  0.690886  0  4.11209  0  0  0.72441  0  4.112277  0  0  0.208571  0.667808  0  4.117978  0
C  C42  1  0.52933705  0.39274860  0.39385787  1  0  0.736293  0  3.812141  0  0  0.69299  0  4.108085  0  0  0.726602  0  4.108095  0  0  0.208904  0.669886  0  4.113997  0
C  C43  1  0.31587196  0.10721581  0.10612210  1  0  0.733357  0  3.816718  0  0  0.690992  0  4.111935  0  0  0.724517  0  4.112117  0  0  0.208617  0.667914  0  4.117824  0
C  C44  1  0.24147491  0.73157073  0.96267358  1  0  0.754305  0  3.760141  0  0  0.70876  0  4.055863  0  0  0.743287  0  4.054282  0  0  0.225306  0.68515  0  4.062441  0
C  C45  1  0.93564515  0.76852131  0.53728115  1  0  0.751715  0  3.764601  0  0  0.709496  0  4.055972  0  0  0.743949  0  4.054348  0  0  0.225338  0.685924  0  4.062661  0
C  C46  1  0.75852549  0.26842778  0.03732793  1  0  0.754366  0  3.760143  0  0  0.70875  0  4.055988  0  0  0.743276  0  4.054407  0  0  0.225261  0.685138  0  4.06257  0
C  C47  1  0.06435684  0.23147721  0.46271876  1  0  0.751681  0  3.7646  0  0  0.709454  0  4.056018  0  0  0.743913  0  4.054383  0  0  0.225329  0.685878  0  4.062708  0
C  C48  1  0.07435663  0.75612905  0.06354609  1  0  -0.237492  0  3.636927  0  0  -0.27794  0  3.888619  0  0  -0.281815  0  3.892524  0  0  -0.15721  -0.274691  0  3.884309  0
C  C49  1  0.89400166  0.74390504  0.43640652  1  0  -0.235419  0  3.636666  0  0  -0.278125  0  3.888854  0  0  -0.281725  0  3.892433  0  0  -0.156909  -0.275001  0  3.884611  0
C  C50  1  0.92564457  0.24386946  0.93645461  1  0  -0.237657  0  3.636853  0  0  -0.278099  0  3.8886  0  0  -0.281979  0  3.892506  0  0  -0.157234  -0.27485  0  3.88429  0
C  C51  1  0.10599798  0.25609450  0.56359375  1  0  -0.235402  0  3.636657  0  0  -0.278151  0  3.88894  0  0  -0.281751  0  3.892513  0  0  -0.1569  -0.275025  0  3.8847  0
C  C52  1  0.03511719  0.51268779  0.14697962  1  0  0.759848  0  3.783357  0  0  0.716449  0  4.081277  0  0  0.751743  0  4.074924  0  0  0.23788  0.69307  0  4.087681  0
C  C53  1  0.69491137  0.98733861  0.35291877  1  0  0.76242  0  3.779107  0  0  0.719001  0  4.07655  0  0  0.754306  0  4.070155  0  0  0.238546  0.695614  0  4.082993  0
C  C54  1  0.96488090  0.48731279  0.85302020  1  0  0.759857  0  3.783382  0  0  0.71647  0  4.081284  0  0  0.751758  0  4.074932  0  0  0.2379  0.693088  0  4.087688  0
C  C55  1  0.30508861  0.01266093  0.64708254  1  0  0.762463  0  3.779229  0  0  0.719023  0  4.076715  0  0  0.75433  0  4.070323  0  0  0.238591  0.695632  0  4.083155  0
C  C56  1  0.94413611  0.66248856  0.09213812  1  0  -0.23551  0  3.632623  0  0  -0.276744  0  3.88452  0  0  -0.28126  0  3.889645  0  0  -0.154294  -0.273076  0  3.87923  0
C  C57  1  0.69878214  0.83752015  0.40772930  1  0  -0.239485  0  3.63235  0  0  -0.27951  0  3.883971  0  0  -0.284079  0  3.889095  0  0  -0.154696  -0.275777  0  3.878579  0
C  C58  1  0.05586547  0.33751098  0.90786160  1  0  -0.23541  0  3.632544  0  0  -0.27668  0  3.884468  0  0  -0.28119  0  3.889577  0  0  -0.154291  -0.273007  0  3.879172  0
C  C59  1  0.30121792  0.16247836  0.59227115  1  0  -0.239517  0  3.632422  0  0  -0.279561  0  3.88411  0  0  -0.28413  0  3.889236  0  0  -0.154727  -0.275823  0  3.878715  0
O  O60  1  0.21204516  0.76599267  0.86080528  1  0  -0.831494  0  2.160897  0  0  -0.772716  0  2.422071  0  0  -0.821944  0  2.412458  0  0  -0.43037  -0.753185  0  2.426834  0
O  O61  1  0.83876054  0.73406144  0.63914927  1  0  -0.831529  0  2.1615  0  0  -0.77363  0  2.420872  0  0  -0.822824  0  2.411196  0  0  -0.430187  -0.754084  0  2.425688  0
O  O62  1  0.78795171  0.23400894  0.13919514  1  0  -0.831476  0  2.160974  0  0  -0.77267  0  2.422158  0  0  -0.821883  0  2.412536  0  0  -0.43034  -0.753132  0  2.426922  0
O  O63  1  0.16123948  0.26593914  0.36085000  1  0  -0.831523  0  2.161493  0  0  -0.773605  0  2.420836  0  0  -0.822799  0  2.411165  0  0  -0.430199  -0.754052  0  2.425648  0
O  O64  1  0.20425255  0.48130459  0.16207426  1  0  -0.701201  0  2.068062  0  0  -0.646078  0  2.323548  0  0  -0.685044  0  2.3087  0  0  -0.398692  -0.628063  0  2.329836  0
O  O65  1  0.84779149  0.01865796  0.33778538  1  0  -0.703315  0  2.068267  0  0  -0.647976  0  2.32388  0  0  -0.686927  0  2.308856  0  0  -0.399598  -0.630142  0  2.330288  0
O  O66  1  0.79574785  0.51869392  0.83792724  1  0  -0.701227  0  2.068132  0  0  -0.646077  0  2.323579  0  0  -0.685039  0  2.308732  0  0  -0.398699  -0.62806  0  2.329868  0
O  O67  1  0.15220585  0.98134055  0.66221642  1  0  -0.703289  0  2.068119  0  0  -0.647965  0  2.323778  0  0  -0.686925  0  2.308751  0  0  -0.399611  -0.630142  0  2.330192  0
O  O68  1  0.44612578  0.49042520  0.84369053  1  0  -0.924918  0  1.891036  0  0  -0.876304  0  2.08036  0  0  -0.906265  0  2.041306  0  0  -0.651455  -0.862192  0  2.102223  0
O  O69  1  0.78023093  0.00946997  0.65636320  1  0  -0.924112  0  1.891309  0  0  -0.875749  0  2.080418  0  0  -0.905685  0  2.041201  0  0  -0.650897  -0.86168  0  2.10233  0
O  O70  1  0.55387348  0.50957641  0.15630751  1  0  -0.924861  0  1.891052  0  0  -0.876245  0  2.080375  0  0  -0.906208  0  2.041322  0  0  -0.651427  -0.862131  0  2.102243  0
O  O71  1  0.21977023  0.99053061  0.34363633  1  0  -0.924147  0  1.891243  0  0  -0.875781  0  2.080337  0  0  -0.905715  0  2.041137  0  0  -0.65091  -0.861706  0  2.102254  0
O  O72  1  0.34011786  0.69696812  0.66052992  1  0  -0.854553  0  2.187707  0  0  -0.801593  0  2.461034  0  0  -0.850844  0  2.45079  0  0  -0.460105  -0.782243  0  2.466216  0
O  O73  1  0.69774693  0.80299211  0.83950773  1  0  -0.854994  0  2.190635  0  0  -0.801884  0  2.463043  0  0  -0.851137  0  2.452932  0  0  -0.460857  -0.782576  0  2.468288  0
O  O74  1  0.65988056  0.30303246  0.33947094  1  0  -0.854554  0  2.187617  0  0  -0.801569  0  2.460994  0  0  -0.850811  0  2.450754  0  0  -0.460099  -0.782221  0  2.466195  0
O  O75  1  0.30224885  0.19700744  0.16049362  1  0  -0.855039  0  2.190668  0  0  -0.80193  0  2.463033  0  0  -0.851167  0  2.452897  0  0  -0.46088  -0.782616  0  2.468275  0
O  O76  1  0.93463647  0.42814772  0.17412384  1  0  -0.74629  0  2.043684  0  0  -0.692243  0  2.292896  0  0  -0.730535  0  2.27969  0  0  -0.368102  -0.673585  0  2.299062  0
O  O77  1  0.53697601  0.07193262  0.32593095  1  0  -0.745831  0  2.039348  0  0  -0.692132  0  2.288708  0  0  -0.730407  0  2.275468  0  0  -0.36776  -0.6734  0  2.294823  0
O  O78  1  0.06536162  0.57185286  0.82587598  1  0  -0.746306  0  2.043691  0  0  -0.692259  0  2.292898  0  0  -0.730558  0  2.279691  0  0  -0.368114  -0.673607  0  2.299064  0
O  O79  1  0.46301969  0.92806796  0.67407125  1  0  -0.745846  0  2.039507  0  0  -0.692126  0  2.288863  0  0  -0.730397  0  2.275619  0  0  -0.367788  -0.673393  0  2.294975  0
O  O80  1  0.41587189  0.67992088  0.97428282  1  0  -0.688842  0  2.052131  0  0  -0.633415  0  2.289356  0  0  -0.667873  0  2.27883  0  0  -0.342455  -0.615534  0  2.29513  0
O  O81  1  0.06993815  0.82021289  0.52571603  1  0  -0.688381  0  2.054215  0  0  -0.634262  0  2.290345  0  0  -0.668778  0  2.279813  0  0  -0.34379  -0.616469  0  2.296353  0
O  O82  1  0.58412969  0.32007867  0.02571691  1  0  -0.688851  0  2.052073  0  0  -0.633403  0  2.289336  0  0  -0.667864  0  2.278811  0  0  -0.342426  -0.615522  0  2.295113  0
O  O83  1  0.93006263  0.17978666  0.47428448  1  0  -0.688373  0  2.054229  0  0  -0.634237  0  2.290351  0  0  -0.668749  0  2.279816  0  0  -0.343769  -0.616436  0  2.29636  0
O  O84  1  0.64217844  0.56942564  0.61925478  1  0  -0.656691  0  1.957178  0  0  -0.613134  0  2.194039  0  0  -0.646523  0  2.184808  0  0  -0.359037  -0.596266  0  2.198828  0
O  O85  1  0.83088136  0.93062656  0.88082789  1  0  -0.65562  0  1.959483  0  0  -0.61194  0  2.195992  0  0  -0.645326  0  2.186823  0  0  -0.358395  -0.595228  0  2.200845  0
O  O86  1  0.35782020  0.43057804  0.38074681  1  0  -0.656698  0  1.957098  0  0  -0.613103  0  2.194  0  0  -0.646491  0  2.184768  0  0  -0.358983  -0.596234  0  2.198789  0
O  O87  1  0.16911560  0.06937092  0.11917489  1  0  -0.655641  0  1.959476  0  0  -0.612001  0  2.195995  0  0  -0.645381  0  2.186823  0  0  -0.358408  -0.595285  0  2.200848  0
