# generated using pymatgen
data_CuH6C14N2(O2F3)2
_symmetry_space_group_name_H-M   'P 1'
_cell_length_a   5.36582160
_cell_length_b   5.49941182
_cell_length_c   12.68008001
_cell_angle_alpha   99.06080202
_cell_angle_beta   91.79568292
_cell_angle_gamma   88.76754760
_symmetry_Int_Tables_number   1
_chemical_formula_structural   CuH6C14N2(O2F3)2
_chemical_formula_sum   'Cu1 H6 C14 N2 O4 F6'
_cell_volume   369.27217906
_cell_formula_units_Z   1
loop_
 _symmetry_equiv_pos_site_id
 _symmetry_equiv_pos_as_xyz
  1  'x, y, z'
loop_
 _atom_site_type_symbol
 _atom_site_label
 _atom_site_symmetry_multiplicity
 _atom_site_fract_x
 _atom_site_fract_y
 _atom_site_fract_z
 _atom_site_occupancy
 _atom_site_pbe_cm5_charge
 _atom_site_pbe_ddec_charge
 _atom_site_pbe_ddec_spin_density
 _atom_site_pbe_ddec_sum_bond_order
 _atom_site_pbe_magmom
Cu  Cu0  1  0.73060348  0.23082187  0.08199407  1  0.757218  0.742327  -0.718302  2.26911  -0.553
H  H1  1  0.51916650  0.73580382  0.97488897  1  0.126009  0.107582  -0.000754  0.999556  -0.002
H  H2  1  0.20957481  0.53657250  0.38620438  1  0.115814  0.132881  -0.000785  0.993792  -0.001
H  H3  1  0.25155940  0.92369574  0.77802423  1  0.115087  0.131765  -0.000788  0.993036  -0.001
H  H4  1  0.94176226  0.72597193  0.18954132  1  0.125749  0.107571  -0.000756  1.001306  -0.002
H  H5  1  0.63233897  0.44753189  0.81189445  1  0.112568  0.13768  -0.0005  1.017102  0.0
H  H6  1  0.82777538  0.01403777  0.35244615  1  0.112703  0.137444  -0.0005  1.015651  0.0
C  C7  1  0.13937973  0.26157503  0.95738079  1  0.199628  0.530728  0.001464  4.260459  0.002
C  C8  1  0.32195324  0.19947310  0.20658389  1  0.199879  0.530347  0.001479  4.258246  0.002
C  C9  1  0.67808723  0.77114511  0.92841194  1  0.067197  0.132324  0.001626  3.870636  0.001
C  C10  1  0.37277424  0.58642245  0.34595155  1  -0.064075  -0.119628  -0.002088  3.894202  -0.002
C  C11  1  0.08828727  0.87424474  0.81832869  1  -0.063693  -0.117034  -0.002094  3.890855  -0.002
C  C12  1  0.78272004  0.69035620  0.23589361  1  0.067169  0.131411  0.001631  3.87492  0.001
C  C13  1  0.74374072  0.61031752  0.83679517  1  -0.069176  -0.117372  -0.003848  3.889499  -0.005
C  C14  1  0.71688735  0.85092539  0.32751762  1  -0.069355  -0.117611  -0.003836  3.890712  -0.005
C  C15  1  0.01117003  0.02584388  0.90996402  1  0.114435  0.110192  0.00159  3.931794  0.001
C  C16  1  0.95084836  0.66320274  0.78144239  1  -0.002289  -0.038041  0.003557  3.957159  0.002
C  C17  1  0.45007240  0.43514498  0.25422322  1  0.115458  0.111083  0.001602  3.933749  0.001
C  C18  1  0.43443592  0.96685680  0.48276465  1  0.304039  0.677829  8.2e-05  4.004693  0.0
C  C19  1  0.51007429  0.79754747  0.38292206  1  -0.002562  -0.036661  0.003569  3.958924  0.002
C  C20  1  0.02691861  0.49351418  0.68179296  1  0.303704  0.678648  8e-05  4.004402  0.0
N  N21  1  0.80935324  0.97371796  0.96280550  1  -0.345214  -0.230935  -0.053539  3.620847  -0.069
N  N22  1  0.65192758  0.48758334  0.20145193  1  -0.345626  -0.230443  -0.053422  3.623634  -0.068
O  O23  1  0.33831052  0.31738079  0.92030474  1  -0.304396  -0.531112  -0.01539  2.193756  -0.021
O  O24  1  0.12315139  0.14315182  0.24359773  1  -0.30447  -0.530425  -0.015362  2.191421  -0.021
O  O25  1  0.43720949  0.06875995  0.12811493  1  -0.327696  -0.529389  -0.072649  2.325998  -0.103
O  O26  1  0.02390551  0.39295737  0.03564128  1  -0.327287  -0.52908  -0.072429  2.325268  -0.103
F  F27  1  0.54821170  0.18826427  0.49296947  1  -0.096955  -0.206958  -5.2e-05  1.354106  0.0
F  F28  1  0.18335245  0.01199326  0.48354428  1  -0.099743  -0.213143  3.2e-05  1.346864  0.0
F  F29  1  0.49422818  0.86664448  0.57263122  1  -0.108757  -0.215555  0.000202  1.302727  0.0
F  F30  1  0.96716478  0.59287663  0.59171852  1  -0.109071  -0.216125  0.000204  1.302769  0.0
F  F31  1  0.27809164  0.44899372  0.68122293  1  -0.099465  -0.213459  2.9e-05  1.347897  0.0
F  F32  1  0.91358330  0.27190601  0.67176950  1  -0.096826  -0.206838  -5.1e-05  1.352867  0.0
