# generated using pymatgen
data_Zn2H20C31N3O10
_symmetry_space_group_name_H-M   'P 1'
_cell_length_a   10.77067421
_cell_length_b   15.37608966
_cell_length_c   16.13578122
_cell_angle_alpha   89.99963735
_cell_angle_beta   90.06207738
_cell_angle_gamma   90.00019684
_symmetry_Int_Tables_number   1
_chemical_formula_structural   Zn2H20C31N3O10
_chemical_formula_sum   'Zn8 H80 C124 N12 O40'
_cell_volume   2672.25891080
_cell_formula_units_Z   4
loop_
 _symmetry_equiv_pos_site_id
 _symmetry_equiv_pos_as_xyz
  1  'x, y, z'
loop_
 _atom_site_type_symbol
 _atom_site_label
 _atom_site_symmetry_multiplicity
 _atom_site_fract_x
 _atom_site_fract_y
 _atom_site_fract_z
 _atom_site_occupancy
 _atom_site_pbe_bader_charge
 _atom_site_pbe_bader_spin_density
 _atom_site_pbe_cm5_charge
 _atom_site_pbe_ddec_charge
 _atom_site_pbe_ddec_spin_density
 _atom_site_pbe_ddec_sum_bond_order
 _atom_site_pbe_magmom
Zn  Zn0  1  0.71425764  0.60016441  0.03208372  1  1.289617  0  0.696386  0.860417  0  2.287204  0
Zn  Zn1  1  0.78574592  0.10016921  0.46791184  1  1.289684  0  0.69638  0.860389  0  2.287236  0
Zn  Zn2  1  0.28575297  0.39983741  0.96791382  1  1.289346  0  0.696343  0.860417  0  2.287242  0
Zn  Zn3  1  0.21425077  0.89983456  0.53208555  1  1.289321  0  0.69638  0.860496  0  2.287202  0
Zn  Zn4  1  0.89475099  0.34869594  0.13319717  1  1.324062  0  0.684778  0.895039  0  2.266307  0
Zn  Zn5  1  0.60525087  0.84869644  0.36680182  1  1.32404  0  0.68482  0.895132  0  2.266215  0
Zn  Zn6  1  0.10524938  0.65130133  0.86680149  1  1.324131  0  0.684851  0.895143  0  2.266257  0
Zn  Zn7  1  0.39475216  0.15130407  0.63320246  1  1.324051  0  0.684794  0.895119  0  2.266232  0
H  H8  1  0.74703826  0.34184960  0.27325268  1  0.628487  0  0.280841  0.33653  0  1.02595  0
H  H9  1  0.75295893  0.84185660  0.22674630  1  0.628515  0  0.280842  0.336543  0  1.025952  0
H  H10  1  0.25296940  0.65814637  0.72675226  1  0.628452  0  0.280847  0.336493  0  1.025998  0
H  H11  1  0.24703584  0.15815172  0.77325417  1  0.628338  0  0.280847  0.336507  0  1.025998  0
H  H12  1  0.78079582  0.25117585  0.23880399  1  0.661394  0  0.295583  0.391417  0  0.950181  0
H  H13  1  0.71920377  0.75118059  0.26119309  1  0.661423  0  0.295611  0.3914  0  0.950188  0
H  H14  1  0.21921277  0.74881816  0.76120097  1  0.661586  0  0.295577  0.391289  0  0.950294  0
H  H15  1  0.28079659  0.24882513  0.73880619  1  0.661383  0  0.295574  0.391385  0  0.950238  0
H  H16  1  0.60824122  0.35403644  0.88607351  1  0.10282  0  0.101992  0.106068  0  1.046847  0
H  H17  1  0.89175956  0.85404844  0.61392569  1  0.102547  0  0.102034  0.106169  0  1.046838  0
H  H18  1  0.39175722  0.64595627  0.11392886  1  0.102699  0  0.102001  0.106106  0  1.046793  0
H  H19  1  0.10824184  0.14595338  0.38606865  1  0.102651  0  0.101983  0.10608  0  1.04681  0
H  H20  1  0.63985162  0.23003909  0.78746048  1  0.103108  0  0.10884  0.131161  0  1.009735  0
H  H21  1  0.86015695  0.73005165  0.71253831  1  0.103154  0  0.108831  0.131177  0  1.009672  0
H  H22  1  0.36015707  0.76995427  0.21254013  1  0.103039  0  0.108816  0.131148  0  1.009625  0
H  H23  1  0.13984913  0.26995081  0.28745484  1  0.103245  0  0.108837  0.131147  0  1.009682  0
H  H24  1  0.02760439  0.22538870  0.85277935  1  0.124824  0  0.113971  0.138257  0  0.990993  0
H  H25  1  0.47240293  0.72538441  0.64723103  1  0.124824  0  0.113971  0.138319  0  0.990918  0
H  H26  1  0.97240432  0.77461962  0.14722003  1  0.124902  0  0.113991  0.138298  0  0.99088  0
H  H27  1  0.52760189  0.27462131  0.35277636  1  0.124931  0  0.11396  0.138274  0  0.990848  0
H  H28  1  0.97552799  0.04816661  0.66722276  1  0.131251  0  0.114307  0.141845  0  1.000158  0
H  H29  1  0.52447948  0.54816715  0.83278642  1  0.131042  0  0.114288  0.141786  0  1.00014  0
H  H30  1  0.02447224  0.95182935  0.33278210  1  0.1311  0  0.114276  0.141801  0  1.000145  0
H  H31  1  0.47552555  0.45183402  0.16721167  1  0.130987  0  0.114292  0.141799  0  1.000131  0
H  H32  1  0.84754826  0.08302234  0.91821601  1  0.082264  0  0.105423  0.120766  0  1.024315  0
H  H33  1  0.65244458  0.58302876  0.58179032  1  0.082101  0  0.105404  0.120741  0  1.024426  0
H  H34  1  0.15245197  0.91697232  0.08178885  1  0.082172  0  0.105421  0.120765  0  1.024352  0
H  H35  1  0.34755313  0.41697566  0.41820274  1  0.082291  0  0.105428  0.120764  0  1.024432  0
H  H36  1  0.93706687  0.93977136  0.95564109  1  0.092713  0  0.103505  0.107037  0  1.004442  0
H  H37  1  0.56292036  0.43977909  0.54435930  1  0.092713  0  0.103544  0.107117  0  1.004299  0
H  H38  1  0.06293620  0.06022721  0.04436194  1  0.092832  0  0.10352  0.107078  0  1.004357  0
H  H39  1  0.43706899  0.56022468  0.45563429  1  0.092839  0  0.103559  0.107162  0  1.004263  0
H  H40  1  0.14606469  0.42790421  0.18134540  1  0.119944  0  0.122783  0.102658  0  0.990833  0
H  H41  1  0.35392806  0.92790759  0.31866086  1  0.119809  0  0.122763  0.102753  0  0.990843  0
H  H42  1  0.85393652  0.57209241  0.81865761  1  0.119948  0  0.122769  0.102655  0  0.990889  0
H  H43  1  0.64606577  0.07209422  0.68133960  1  0.119895  0  0.122747  0.102661  0  0.990814  0
H  H44  1  0.21987866  0.55133202  0.26527771  1  0.074057  0  0.10549  0.111017  0  1.042256  0
H  H45  1  0.28011614  0.05133056  0.23472404  1  0.07396  0  0.105446  0.110949  0  1.042364  0
H  H46  1  0.78012263  0.44866850  0.73472159  1  0.074075  0  0.105488  0.111015  0  1.042258  0
H  H47  1  0.71988049  0.94866996  0.76527582  1  0.074007  0  0.105489  0.111021  0  1.042368  0
H  H48  1  0.83399110  0.62242939  0.30324748  1  0.086392  0  0.113334  0.125127  0  1.025745  0
H  H49  1  0.66600594  0.12242985  0.19675345  1  0.086354  0  0.113335  0.12516  0  1.025733  0
H  H50  1  0.16600836  0.37756852  0.69675056  1  0.086229  0  0.113342  0.125136  0  1.02573  0
H  H51  1  0.33399433  0.87756806  0.80324955  1  0.086236  0  0.113362  0.125157  0  1.025679  0
H  H52  1  0.77808716  0.49612181  0.21698818  1  0.07478  0  0.122156  0.092735  0  0.999272  0
H  H53  1  0.72190794  0.99612251  0.28301170  1  0.074873  0  0.122183  0.092766  0  0.99924  0
H  H54  1  0.22191682  0.50387415  0.78301548  1  0.074756  0  0.122152  0.092738  0  0.999335  0
H  H55  1  0.27808678  0.00387670  0.71699062  1  0.074836  0  0.122157  0.092715  0  0.999317  0
H  H56  1  0.27011285  0.64204669  0.34353785  1  0.10094  0  0.104682  0.107877  0  1.055535  0
H  H57  1  0.22988129  0.14204693  0.15647078  1  0.100748  0  0.104678  0.10796  0  1.055578  0
H  H58  1  0.72988271  0.35795448  0.65646820  1  0.10078  0  0.104681  0.107919  0  1.055574  0
H  H59  1  0.77012087  0.85795489  0.84353100  1  0.100735  0  0.104676  0.107885  0  1.055575  0
H  H60  1  0.33000345  0.76177066  0.43490540  1  0.13526  0  0.117882  0.093719  0  1.031691  0
H  H61  1  0.16998769  0.26176746  0.06509689  1  0.135158  0  0.117906  0.093751  0  1.031835  0
H  H62  1  0.66998475  0.23823246  0.56509809  1  0.135129  0  0.117929  0.093788  0  1.031879  0
H  H63  1  0.83001547  0.73823176  0.93490180  1  0.13511  0  0.117928  0.093779  0  1.031872  0
H  H64  1  0.96362631  0.84000058  0.46466858  1  0.122626  0  0.122936  0.097761  0  0.992524  0
H  H65  1  0.53636548  0.33999855  0.03532230  1  0.12248  0  0.122921  0.097756  0  0.99246  0
H  H66  1  0.03636124  0.16000058  0.53532251  1  0.122378  0  0.122896  0.097695  0  0.992445  0
H  H67  1  0.46363946  0.66000326  0.96467951  1  0.12239  0  0.12289  0.097734  0  0.992442  0
H  H68  1  0.88688710  0.72420412  0.37345342  1  0.118929  0  0.114238  0.135308  0  1.020626  0
H  H69  1  0.61310966  0.22420167  0.12654007  1  0.119047  0  0.114229  0.135313  0  1.020565  0
H  H70  1  0.11310690  0.27579704  0.62653959  1  0.119095  0  0.114231  0.135315  0  1.020535  0
H  H71  1  0.38689526  0.77579624  0.87346299  1  0.119124  0  0.114244  0.135325  0  1.020551  0
H  H72  1  0.07266676  0.70819231  0.64375671  1  0.138216  0  0.114091  0.086907  0  1.019332  0
H  H73  1  0.42733144  0.20819560  0.85624314  1  0.138194  0  0.1141  0.086883  0  1.019323  0
H  H74  1  0.92732889  0.29180300  0.35624562  1  0.138172  0  0.114094  0.086893  0  1.0193  0
H  H75  1  0.57266051  0.79180817  0.14375854  1  0.138195  0  0.114119  0.086942  0  1.019222  0
H  H76  1  0.91916701  0.63193042  0.55596556  1  0.106287  0  0.105751  0.110941  0  1.025031  0
H  H77  1  0.58082891  0.13193879  0.94403803  1  0.10591  0  0.105738  0.110865  0  1.025038  0
H  H78  1  0.08082014  0.36806489  0.44404288  1  0.106015  0  0.105718  0.110791  0  1.025052  0
H  H79  1  0.41917055  0.86806823  0.05596000  1  0.105942  0  0.105702  0.110799  0  1.025098  0
H  H80  1  0.19993274  0.43379283  0.51550023  1  0.124305  0  0.107048  0.118416  0  1.029662  0
H  H81  1  0.30006091  0.93379367  0.98450068  1  0.124272  0  0.107031  0.118434  0  1.029649  0
H  H82  1  0.80006029  0.56620769  0.48449464  1  0.124204  0  0.107026  0.118456  0  1.029667  0
H  H83  1  0.69993936  0.06621009  0.01550232  1  0.124184  0  0.106991  0.118377  0  1.029705  0
H  H84  1  0.33855635  0.51930209  0.60290438  1  0.119036  0  0.106038  0.072929  0  1.05314  0
H  H85  1  0.16144665  0.01930121  0.89708985  1  0.11903  0  0.106061  0.072887  0  1.05316  0
H  H86  1  0.66144603  0.48069452  0.39708749  1  0.119024  0  0.106059  0.072905  0  1.053119  0
H  H87  1  0.83855451  0.98069866  0.10291503  1  0.118997  0  0.106057  0.072892  0  1.0531  0
C  C88  1  0.76686232  0.42759596  0.98766274  1  1.5659  0  0.224627  0.605636  0  4.155593  0
C  C89  1  0.73312954  0.92759784  0.51233529  1  1.566076  0  0.224636  0.605696  0  4.155374  0
C  C90  1  0.23313999  0.57240520  0.01233223  1  1.566551  0  0.224698  0.605856  0  4.155608  0
C  C91  1  0.26687275  0.07239812  0.48766092  1  1.566191  0  0.22483  0.605864  0  4.155197  0
C  C92  1  0.79699036  0.35449763  0.92923140  1  -0.007269  0  -0.012127  -0.063435  0  3.949334  0
C  C93  1  0.70301128  0.85450035  0.57077090  1  -0.007528  0  -0.012162  -0.063408  0  3.949435  0
C  C94  1  0.20301665  0.64550874  0.07076114  1  -0.007897  0  -0.012204  -0.063586  0  3.949735  0
C  C95  1  0.29698997  0.14549887  0.42923026  1  -0.007565  0  -0.012134  -0.063458  0  3.949381  0
C  C96  1  0.69891053  0.32317502  0.88049137  1  -0.112761  0  -0.087811  -0.088977  0  3.980052  0
C  C97  1  0.80109470  0.82318155  0.61950992  1  -0.112467  0  -0.08785  -0.08918  0  3.97996  0
C  C98  1  0.30109363  0.67682940  0.11950424  1  -0.112629  0  -0.087711  -0.088932  0  3.980174  0
C  C99  1  0.19891035  0.17681962  0.38048755  1  -0.112378  0  -0.087772  -0.088992  0  3.979855  0
C  C100  1  0.71577750  0.25380388  0.82608416  1  0.023192  0  -0.095817  -0.185709  0  3.973595  0
C  C101  1  0.78422835  0.75380870  0.67391632  1  0.023112  0  -0.095793  -0.185556  0  3.973362  0
C  C102  1  0.28422654  0.74619534  0.17391641  1  0.024147  0  -0.095815  -0.185613  0  3.973325  0
C  C103  1  0.21577954  0.24619181  0.32607871  1  0.022949  0  -0.095824  -0.185645  0  3.973432  0
C  C104  1  0.83361225  0.21695787  0.81926563  1  0.364587  0  0.080495  0.246419  0  4.064388  0
C  C105  1  0.66639706  0.71695977  0.68073883  1  0.364618  0  0.080451  0.24615  0  4.064571  0
C  C106  1  0.16639554  0.78304654  0.18073374  1  0.363644  0  0.080381  0.246201  0  4.064709  0
C  C107  1  0.33361070  0.28304530  0.31926177  1  0.364638  0  0.080384  0.246192  0  4.064386  0
C  C108  1  0.93437790  0.25089041  0.86274276  1  0.039146  0  -0.089767  -0.204165  0  3.940936  0
C  C109  1  0.56562777  0.75088844  0.63726517  1  0.039207  0  -0.089664  -0.204028  0  3.940754  0
C  C110  1  0.06562994  0.74912052  0.13725412  1  0.039092  0  -0.08977  -0.204192  0  3.940874  0
C  C111  1  0.43437711  0.24911403  0.36273974  1  0.03904  0  -0.089654  -0.203984  0  3.94053  0
C  C112  1  0.91667170  0.31920080  0.91886211  1  0.013922  0  -0.009603  -0.03289  0  3.954356  0
C  C113  1  0.58333528  0.81919926  0.58114294  1  0.014389  0  -0.009775  -0.033094  0  3.954496  0
C  C114  1  0.08333798  0.68081012  0.08113541  1  0.014454  0  -0.009637  -0.032875  0  3.9543  0
C  C115  1  0.41666498  0.18080386  0.41886068  1  0.014265  0  -0.009706  -0.033011  0  3.954485  0
C  C116  1  0.97086476  0.64524834  0.03762604  1  1.562888  0  0.217722  0.590119  0  4.168222  0
C  C117  1  0.52913804  0.14524995  0.46237110  1  1.562804  0  0.217705  0.590148  0  4.168386  0
C  C118  1  0.02914210  0.35476454  0.96237332  1  1.56335  0  0.217736  0.590278  0  4.16801  0
C  C119  1  0.47086316  0.85475707  0.53763192  1  1.56289  0  0.217739  0.590228  0  4.16819  0
C  C120  1  0.09332481  0.89750170  0.68683837  1  1.540175  0  0.208611  0.566399  0  4.220846  0
C  C121  1  0.40667772  0.39750458  0.81317340  1  1.539529  0  0.20877  0.566585  0  4.220398  0
C  C122  1  0.90666524  0.10248906  0.31316515  1  1.540146  0  0.20861  0.566449  0  4.220528  0
C  C123  1  0.59332267  0.60249464  0.18682465  1  1.552037  0  0.20876  0.56665  0  4.220229  0
C  C124  1  0.01858526  0.94414069  0.75175381  1  -0.043117  0  -0.015823  -0.051409  0  3.961536  0
C  C125  1  0.48141288  0.44414808  0.74825638  1  -0.043909  0  -0.015633  -0.051317  0  3.961415  0
C  C126  1  0.98141122  0.05584942  0.24825287  1  -0.043877  0  -0.015733  -0.05138  0  3.961666  0
C  C127  1  0.51858475  0.55585634  0.25174040  1  -0.056382  0  -0.015719  -0.05146  0  3.96134  0
C  C128  1  0.96632313  0.02447636  0.73045063  1  0.040534  0  -0.088436  -0.190355  0  3.921603  0
C  C129  1  0.53368793  0.52447929  0.76955935  1  0.041235  0  -0.088521  -0.190426  0  3.921734  0
C  C130  1  0.03368358  0.97551765  0.26955554  1  0.04119  0  -0.088444  -0.190313  0  3.921761  0
C  C131  1  0.46631804  0.47552187  0.23043813  1  0.041022  0  -0.088399  -0.190239  0  3.921617  0
C  C132  1  0.90448343  0.07386966  0.78970358  1  0.425004  0  0.084961  0.255389  0  4.057877  0
C  C133  1  0.59552797  0.57386924  0.71030177  1  0.42513  0  0.08503  0.255493  0  4.057591  0
C  C134  1  0.09552429  0.92612760  0.21029888  1  0.424919  0  0.085017  0.255447  0  4.057792  0
C  C135  1  0.40447715  0.42613128  0.28969261  1  0.425074  0  0.084966  0.255441  0  4.057698  0
C  C136  1  0.89403039  0.04382403  0.87133877  1  -0.073973  0  -0.100362  -0.205928  0  3.998389  0
C  C137  1  0.60596415  0.54382872  0.62866659  1  -0.074408  0  -0.100437  -0.206012  0  3.998528  0
C  C138  1  0.10597266  0.95617324  0.12866489  1  -0.074324  0  -0.100398  -0.205971  0  3.99835  0
C  C139  1  0.39402616  0.45617570  0.37132515  1  -0.074373  0  -0.100439  -0.206032  0  3.99854  0
C  C140  1  0.94547007  0.96342909  0.89213989  1  -0.02379  0  -0.091974  -0.104664  0  4.020356  0
C  C141  1  0.55452737  0.46343183  0.60786543  1  -0.023244  0  -0.091992  -0.10478  0  4.02006  0
C  C142  1  0.05453111  0.03656817  0.10786437  1  -0.023514  0  -0.092015  -0.104744  0  4.020084  0
C  C143  1  0.44546750  0.53656934  0.39213008  1  -0.023307  0  -0.091979  -0.104714  0  4.020082  0
C  C144  1  0.00787927  0.91231307  0.83348730  1  -0.049428  0  -0.013928  -0.052222  0  3.936963  0
C  C145  1  0.49211963  0.41231778  0.66652372  1  -0.049207  0  -0.01397  -0.052201  0  3.936457  0
C  C146  1  0.99211994  0.08768030  0.16652189  1  -0.049006  0  -0.013926  -0.052191  0  3.936541  0
C  C147  1  0.50787985  0.58768274  0.33347370  1  -0.049184  0  -0.014053  -0.052418  0  3.936653  0
C  C148  1  0.06306895  0.82693112  0.86158260  1  1.600769  0  0.197792  0.575858  0  4.246024  0
C  C149  1  0.43691204  0.32694239  0.63842254  1  1.600913  0  0.197824  0.576077  0  4.245615  0
C  C150  1  0.93692666  0.17306159  0.13842160  1  1.600532  0  0.197837  0.576066  0  4.245543  0
C  C151  1  0.56307817  0.67306203  0.36157415  1  1.600493  0  0.197945  0.57624  0  4.245576  0
C  C152  1  0.08033138  0.47179945  0.21093359  1  0.446143  0  0.050926  0.103851  0  3.919735  0
C  C153  1  0.41966347  0.97180060  0.28907119  1  0.446151  0  0.050891  0.103683  0  3.920092  0
C  C154  1  0.91966988  0.52819976  0.78906695  1  0.446082  0  0.050948  0.103813  0  3.91977  0
C  C155  1  0.58033124  0.02820122  0.71093175  1  0.445598  0  0.050921  0.103819  0  3.919736  0
C  C156  1  0.12043074  0.54172610  0.25822992  1  0.018136  0  -0.079535  -0.16285  0  3.923473  0
C  C157  1  0.37956396  0.04172743  0.24177436  1  0.018234  0  -0.079391  -0.162683  0  3.923741  0
C  C158  1  0.87956865  0.45827312  0.74177121  1  0.018006  0  -0.079538  -0.16285  0  3.923532  0
C  C159  1  0.62043358  0.95827373  0.75822675  1  0.018089  0  -0.079516  -0.162876  0  3.923664  0
C  C160  1  0.03325941  0.59775507  0.29512056  1  -0.05285  0  0.014547  0.100308  0  3.94916  0
C  C161  1  0.46673466  0.09775621  0.20488214  1  -0.052868  0  0.014561  0.100322  0  3.9492  0
C  C162  1  0.96673535  0.40224285  0.70487990  1  -0.052745  0  0.014551  0.100363  0  3.949142  0
C  C163  1  0.53326843  0.90224170  0.79511966  1  -0.052761  0  0.014572  0.100384  0  3.949285  0
C  C164  1  0.90764265  0.58154986  0.27868547  1  0.08262  0  -0.071569  -0.1426  0  3.896009  0
C  C165  1  0.59235328  0.08155128  0.22131507  1  0.08262  0  -0.071577  -0.142657  0  3.896027  0
C  C166  1  0.09235589  0.41844741  0.72131255  1  0.082685  0  -0.071587  -0.142641  0  3.895994  0
C  C167  1  0.40764883  0.91844664  0.77868857  1  0.082916  0  -0.07164  -0.142698  0  3.896012  0
C  C168  1  0.87496881  0.51044933  0.23062096  1  0.509953  0  0.052042  0.107928  0  3.938714  0
C  C169  1  0.62502583  0.01045311  0.26938063  1  0.509848  0  0.05197  0.107898  0  3.938795  0
C  C170  1  0.12503432  0.48954599  0.76937898  1  0.510332  0  0.052015  0.107892  0  3.93878  0
C  C171  1  0.37496792  0.98954676  0.73062354  1  0.509677  0  0.052043  0.107939  0  3.93857  0
C  C172  1  0.07180232  0.66995730  0.34992395  1  -0.077765  0  0.017676  0.107184  0  3.94816  0
C  C173  1  0.42818933  0.16995676  0.15007767  1  -0.077761  0  0.017556  0.107063  0  3.947897  0
C  C174  1  0.92818873  0.33004127  0.65007648  1  -0.077688  0  0.01759  0.107077  0  3.947913  0
C  C175  1  0.57181382  0.83004051  0.84992164  1  -0.077698  0  0.017589  0.107079  0  3.94789  0
C  C176  1  0.19740502  0.68291387  0.36911168  1  0.040632  0  -0.077086  -0.154798  0  3.928655  0
C  C177  1  0.30258575  0.18291315  0.13089047  1  0.039713  0  -0.077048  -0.154861  0  3.928705  0
C  C178  1  0.80258509  0.31708535  0.63088935  1  0.039702  0  -0.077075  -0.154832  0  3.928688  0
C  C179  1  0.69741650  0.81708347  0.86910760  1  0.039722  0  -0.077102  -0.154818  0  3.928619  0
C  C180  1  0.23251413  0.74994118  0.42128960  1  0.461216  0  0.04924  0.103769  0  3.926884  0
C  C181  1  0.26747977  0.24994072  0.07871094  1  0.462191  0  0.049217  0.103648  0  3.927186  0
C  C182  1  0.76747783  0.25005804  0.57871146  1  0.462178  0  0.049216  0.103639  0  3.927178  0
C  C183  1  0.73252243  0.75005719  0.92128899  1  0.46221  0  0.049236  0.103654  0  3.927079  0
C  C184  1  0.02843180  0.79393841  0.43709446  1  0.477477  0  0.053978  0.10139  0  3.929387  0
C  C185  1  0.47156613  0.29393466  0.06290152  1  0.477748  0  0.053913  0.101315  0  3.929286  0
C  C186  1  0.97156208  0.20606211  0.56290414  1  0.477756  0  0.054004  0.101467  0  3.929347  0
C  C187  1  0.52843799  0.70606261  0.93709595  1  0.477761  0  0.053932  0.101301  0  3.929391  0
C  C188  1  0.98614786  0.72800816  0.38548187  1  0.000135  0  -0.070723  -0.150115  0  3.880573  0
C  C189  1  0.51384692  0.22800490  0.11451778  1  0.00019  0  -0.070692  -0.150108  0  3.880389  0
C  C190  1  0.01384512  0.27199300  0.61451548  1  0.000273  0  -0.07077  -0.150216  0  3.880514  0
C  C191  1  0.48615711  0.77199302  0.88548341  1  0.000258  0  -0.070661  -0.150077  0  3.880447  0
C  C192  1  0.09687053  0.64746439  0.61270092  1  0.423259  0  0.040894  0.089465  0  3.972447  0
C  C193  1  0.40312929  0.14746481  0.88729622  1  0.423225  0  0.04085  0.089447  0  3.972386  0
C  C194  1  0.90312330  0.35253223  0.38729954  1  0.422702  0  0.040888  0.089465  0  3.972393  0
C  C195  1  0.59686924  0.85253635  0.11270181  1  0.423199  0  0.040863  0.089407  0  3.972289  0
C  C196  1  0.01137746  0.60401192  0.56326283  1  -0.068657  0  -0.084243  -0.173583  0  3.948959  0
C  C197  1  0.48862027  0.10401482  0.93673579  1  -0.068194  0  -0.084181  -0.17345  0  3.948802  0
C  C198  1  0.98861363  0.39598405  0.43673574  1  -0.068186  0  -0.084209  -0.173363  0  3.948773  0
C  C199  1  0.51138106  0.89598634  0.06326165  1  -0.068265  0  -0.084183  -0.173418  0  3.948902  0
C  C200  1  0.04465534  0.52507264  0.52535594  1  0.019291  0  0.008886  0.098798  0  3.970651  0
C  C201  1  0.45534208  0.02507326  0.97464006  1  0.063274  0  0.008835  0.098777  0  3.970704  0
C  C202  1  0.95533769  0.47492788  0.47463893  1  0.063335  0  0.008796  0.098678  0  3.970803  0
C  C203  1  0.54466023  0.97492791  0.02535491  1  0.019272  0  0.008825  0.098752  0  3.970752  0
C  C204  1  0.16620821  0.49562442  0.53922663  1  -0.077249  0  -0.08307  -0.170853  0  3.93173  0
C  C205  1  0.33379052  0.99562291  0.96076776  1  -0.077237  0  -0.083015  -0.170906  0  3.93182  0
C  C206  1  0.83378479  0.50437610  0.46076948  1  -0.077205  0  -0.082952  -0.170851  0  3.931938  0
C  C207  1  0.66621179  0.00437826  0.03922721  1  -0.077432  0  -0.08298  -0.170789  0  3.931886  0
C  C208  1  0.24559893  0.54353120  0.58963997  1  0.456774  0  0.040596  0.089633  0  3.990584  0
C  C209  1  0.25439943  0.04353241  0.91035902  1  0.456569  0  0.040569  0.089708  0  3.990354  0
C  C210  1  0.75440058  0.45646867  0.41035559  1  0.456539  0  0.040547  0.089697  0  3.990497  0
C  C211  1  0.74559807  0.95647136  0.08964333  1  0.457093  0  0.040569  0.089682  0  3.990595  0
N  N212  1  0.95887320  0.45514158  0.19869933  1  -1.2282  0  -0.328303  -0.240782  0  3.553996  0
N  N213  1  0.54112349  0.95514497  0.30130392  1  -1.228  0  -0.3283  -0.240801  0  3.554064  0
N  N214  1  0.04112899  0.54485243  0.80130122  1  -1.228358  0  -0.328273  -0.240695  0  3.553861  0
N  N215  1  0.45887117  0.04485554  0.69870088  1  -1.227515  0  -0.328259  -0.240735  0  3.553763  0
N  N216  1  0.64957318  0.69522379  0.95550963  1  -1.256751  0  -0.330915  -0.249767  0  3.59119  0
N  N217  1  0.85042684  0.19522506  0.54448991  1  -1.256733  0  -0.330906  -0.249801  0  3.591246  0
N  N218  1  0.35042995  0.30477283  0.04449031  1  -1.256598  0  -0.330884  -0.249775  0  3.591288  0
N  N219  1  0.14956702  0.80477480  0.45550931  1  -1.256568  0  -0.331003  -0.250022  0  3.591413  0
N  N220  1  0.21257451  0.61798560  0.62693352  1  -1.228156  0  -0.315661  -0.260894  0  3.396251  0
N  N221  1  0.28742430  0.11798713  0.87306130  1  -1.228059  0  -0.315684  -0.260916  0  3.3961  0
N  N222  1  0.78742223  0.38201362  0.37306138  1  -1.227644  0  -0.315695  -0.260953  0  3.39619  0
N  N223  1  0.71257513  0.88201664  0.12693798  1  -1.228126  0  -0.315623  -0.260862  0  3.396144  0
O  O224  1  0.76808494  0.41539112  0.06554454  1  -1.159843  0  -0.310466  -0.549155  0  2.354941  0
O  O225  1  0.73192745  0.91538498  0.43445416  1  -1.159904  0  -0.310445  -0.549177  0  2.354869  0
O  O226  1  0.23191644  0.58460355  0.93445042  1  -1.160136  0  -0.310547  -0.549317  0  2.35504  0
O  O227  1  0.26809993  0.08460513  0.56554108  1  -1.159847  0  -0.310583  -0.549231  0  2.354779  0
O  O228  1  0.75231588  0.30914966  0.21941788  1  -1.274392  0  -0.578473  -0.744565  0  2.137337  0
O  O229  1  0.74768211  0.80915369  0.28058006  1  -1.274401  0  -0.57851  -0.744542  0  2.137455  0
O  O230  1  0.24769084  0.69084370  0.78058767  1  -1.274556  0  -0.57845  -0.74435  0  2.137727  0
O  O231  1  0.25231640  0.19085203  0.71941920  1  -1.274188  0  -0.578464  -0.744535  0  2.137444  0
O  O232  1  0.73306160  0.49911877  0.95455343  1  -1.147778  0  -0.304224  -0.516332  0  2.291806  0
O  O233  1  0.76691288  0.99912376  0.54544832  1  -1.14798  0  -0.304234  -0.51634  0  2.29163  0
O  O234  1  0.26694899  0.50088565  0.04544535  1  -1.147918  0  -0.304203  -0.516407  0  2.291811  0
O  O235  1  0.23305868  0.00087871  0.45455189  1  -1.148073  0  -0.304303  -0.516481  0  2.291715  0
O  O236  1  0.02430553  0.37822676  0.03732035  1  -1.176699  0  -0.30783  -0.554956  0  2.342545  0
O  O237  1  0.47569355  0.87821452  0.46268319  1  -1.176511  0  -0.307825  -0.55488  0  2.342537  0
O  O238  1  0.97570044  0.62179002  0.96267714  1  -1.176559  0  -0.307827  -0.554885  0  2.342616  0
O  O239  1  0.52430768  0.12178990  0.53731859  1  -1.17642  0  -0.307802  -0.554875  0  2.342514  0
O  O240  1  0.87148468  0.64225641  0.08135083  1  -1.153688  0  -0.311883  -0.528757  0  2.345392  0
O  O241  1  0.62852174  0.14225986  0.41865008  1  -1.15387  0  -0.311872  -0.528797  0  2.345609  0
O  O242  1  0.12852399  0.35775646  0.91865040  1  -1.153717  0  -0.311888  -0.528803  0  2.345361  0
O  O243  1  0.37147489  0.85774716  0.58134978  1  -1.15379  0  -0.311867  -0.528866  0  2.345452  0
O  O244  1  0.84986780  0.14998332  0.76250023  1  -1.094686  0  -0.153981  -0.218992  0  2.577032  0
O  O245  1  0.65014859  0.64998284  0.73750533  1  -1.094911  0  -0.153938  -0.218855  0  2.576881  0
O  O246  1  0.15014640  0.85001655  0.23750292  1  -1.094883  0  -0.153926  -0.218888  0  2.577157  0
O  O247  1  0.34985643  0.35001897  0.26249339  1  -1.094816  0  -0.153925  -0.21889  0  2.576873  0
O  O248  1  0.08369783  0.92872899  0.61248503  1  -1.162152  0  -0.331017  -0.559198  0  2.341238  0
O  O249  1  0.41630577  0.42872945  0.88752655  1  -1.162625  0  -0.331027  -0.559272  0  2.341269  0
O  O250  1  0.91628019  0.07125657  0.38751649  1  -1.162568  0  -0.331031  -0.559256  0  2.341049  0
O  O251  1  0.58371032  0.57126001  0.11247538  1  -1.162805  0  -0.331073  -0.559329  0  2.34102  0
O  O252  1  0.16185678  0.83487722  0.70597539  1  -1.182699  0  -0.301719  -0.541703  0  2.268648  0
O  O253  1  0.33815480  0.33487550  0.79403375  1  -1.181708  0  -0.301854  -0.54175  0  2.26845  0
O  O254  1  0.83814727  0.16512200  0.29402517  1  -1.182533  0  -0.30167  -0.541667  0  2.268621  0
O  O255  1  0.66184929  0.66512632  0.20596496  1  -1.181699  0  -0.301817  -0.541781  0  2.268375  0
O  O256  1  0.15579104  0.82723545  0.90859375  1  -1.183923  0  -0.328091  -0.556588  0  2.092856  0
O  O257  1  0.34417479  0.32725396  0.59142486  1  -1.18389  0  -0.328153  -0.556658  0  2.09247  0
O  O258  1  0.84419322  0.17274556  0.09141962  1  -1.183711  0  -0.328184  -0.556761  0  2.092569  0
O  O259  1  0.65580876  0.67274851  0.40857858  1  -1.183706  0  -0.328187  -0.556743  0  2.092582  0
O  O260  1  0.00540148  0.75771068  0.83701186  1  -1.159403  0  -0.330552  -0.56976  0  2.305067  0
O  O261  1  0.49458322  0.25771737  0.66297886  1  -1.159306  0  -0.330508  -0.569865  0  2.305281  0
O  O262  1  0.99459636  0.24228789  0.16297562  1  -1.159207  0  -0.330475  -0.56974  0  2.30511  0
O  O263  1  0.50541439  0.74228965  0.33701853  1  -1.15917  0  -0.330548  -0.569873  0  2.305208  0
