# generated using pymatgen
data_CdH19C17N9O4
_symmetry_space_group_name_H-M   'P 1'
_cell_length_a   11.07418211
_cell_length_b   12.49371132
_cell_length_c   18.18159832
_cell_angle_alpha   90.00013148
_cell_angle_beta   89.99980285
_cell_angle_gamma   102.02036206
_symmetry_Int_Tables_number   1
_chemical_formula_structural   CdH19C17N9O4
_chemical_formula_sum   'Cd4 H76 C68 N36 O16'
_cell_volume   2460.40582060
_cell_formula_units_Z   4
loop_
 _symmetry_equiv_pos_site_id
 _symmetry_equiv_pos_as_xyz
  1  'x, y, z'
loop_
 _atom_site_type_symbol
 _atom_site_label
 _atom_site_symmetry_multiplicity
 _atom_site_fract_x
 _atom_site_fract_y
 _atom_site_fract_z
 _atom_site_occupancy
 _atom_site_pbe_bader_charge
 _atom_site_pbe_bader_spin_density
 _atom_site_pbe_cm5_charge
 _atom_site_pbe_ddec_charge
 _atom_site_pbe_ddec_spin_density
 _atom_site_pbe_ddec_sum_bond_order
 _atom_site_pbe_magmom
Cd  Cd0  1  0.15043032  0.61888562  0.20626769  1  1.254057  0  0.763083  0.831924  0  2.244744  0
Cd  Cd1  1  0.34955819  0.38111845  0.70626678  1  1.254031  0  0.76302  0.831761  0  2.244742  0
Cd  Cd2  1  0.84956766  0.38110640  0.79373327  1  1.253926  0  0.763062  0.831872  0  2.24478  0
Cd  Cd3  1  0.65043180  0.61889582  0.29373637  1  1.253864  0  0.76308  0.831864  0  2.244715  0
H  H4  1  0.61937889  0.94277860  0.21154753  1  0.079202  0  0.116485  0.092877  0  0.999191  0
H  H5  1  0.88061260  0.05722599  0.71155483  1  0.078873  0  0.116476  0.092871  0  0.99923  0
H  H6  1  0.38060951  0.05721845  0.78844738  1  0.078179  0  0.116477  0.092863  0  0.999179  0
H  H7  1  0.11939208  0.94278565  0.28844833  1  0.078382  0  0.116497  0.092904  0  0.999166  0
H  H8  1  0.62934752  0.96721011  0.30749290  1  0.065192  0  0.113722  0.093729  0  0.971756  0
H  H9  1  0.87064745  0.03278892  0.80749908  1  0.065017  0  0.113696  0.093711  0  0.971733  0
H  H10  1  0.37064687  0.03278195  0.69250201  1  0.06512  0  0.113713  0.09372  0  0.971696  0
H  H11  1  0.12934740  0.96721955  0.19250243  1  0.065138  0  0.113751  0.093806  0  0.971618  0
H  H12  1  0.52094391  0.12412789  0.29114943  1  0.038744  0  0.095708  0.093644  0  0.996539  0
H  H13  1  0.97905355  0.87587353  0.79114960  1  0.038805  0  0.095705  0.093628  0  0.996432  0
H  H14  1  0.47905959  0.87586817  0.70885043  1  0.038709  0  0.09577  0.093748  0  0.996482  0
H  H15  1  0.02093718  0.12412924  0.20885300  1  0.038729  0  0.095718  0.093676  0  0.996521  0
H  H16  1  0.50842311  0.09724849  0.19571336  1  0.035092  0  0.097149  0.091492  0  0.96949  0
H  H17  1  0.99158618  0.90275832  0.69571466  1  0.03502  0  0.097158  0.091418  0  0.969528  0
H  H18  1  0.49158813  0.90275322  0.80428265  1  0.035241  0  0.097179  0.091505  0  0.969577  0
H  H19  1  0.00841896  0.09724428  0.30428795  1  0.034989  0  0.097166  0.091504  0  0.969565  0
H  H20  1  0.75406147  0.16155387  0.28051813  1  0.019285  0  0.094367  0.088761  0  0.972788  0
H  H21  1  0.74594134  0.83844336  0.78051379  1  0.019407  0  0.094384  0.088812  0  0.972797  0
H  H22  1  0.24594991  0.83843389  0.71948722  1  0.019504  0  0.094394  0.088862  0  0.972742  0
H  H23  1  0.25405643  0.16156590  0.21948607  1  0.019401  0  0.094387  0.088822  0  0.972816  0
H  H24  1  0.74056675  0.13054644  0.18560733  1  0.059018  0  0.095257  0.089581  0  0.995756  0
H  H25  1  0.75943277  0.86945718  0.68560575  1  0.059715  0  0.095208  0.089516  0  0.995843  0
H  H26  1  0.25944347  0.86945118  0.81439418  1  0.059845  0  0.095252  0.08962  0  0.995851  0
H  H27  1  0.24056441  0.13055701  0.31439521  1  0.059835  0  0.095258  0.089621  0  0.995773  0
H  H28  1  0.62976460  0.28918689  0.16847981  1  0.081059  0  0.120127  0.10786  0  0.952028  0
H  H29  1  0.87023800  0.71081420  0.66847280  1  0.080975  0  0.120203  0.107944  0  0.951964  0
H  H30  1  0.37024411  0.71080829  0.83152830  1  0.080859  0  0.120174  0.107944  0  0.951974  0
H  H31  1  0.12977278  0.28919654  0.33152871  1  0.080905  0  0.120139  0.108009  0  0.95199  0
H  H32  1  0.66358808  0.32583491  0.26170649  1  0.093749  0  0.120583  0.108753  0  0.96907  0
H  H33  1  0.83641867  0.67417045  0.76170278  1  0.09359  0  0.120555  0.108742  0  0.969151  0
H  H34  1  0.33642362  0.67415778  0.73830162  1  0.093744  0  0.120569  0.108817  0  0.969073  0
H  H35  1  0.16357922  0.32584291  0.23830038  1  0.093891  0  0.120571  0.108766  0  0.96903  0
H  H36  1  0.20798381  0.80874022  0.35337421  1  0.156702  0  0.139294  0.110587  0  0.975699  0
H  H37  1  0.29201898  0.19124842  0.85337147  1  0.156769  0  0.13928  0.110559  0  0.975705  0
H  H38  1  0.79201139  0.19125512  0.64661960  1  0.156565  0  0.139244  0.11055  0  0.975747  0
H  H39  1  0.70798232  0.80874603  0.14662839  1  0.156789  0  0.139259  0.110517  0  0.975814  0
H  H40  1  0.43757434  0.79426666  0.17181182  1  0.235057  0  0.143514  0.137195  0  1.016652  0
H  H41  1  0.06241669  0.20572499  0.67181563  1  0.2351  0  0.143536  0.137178  0  1.016606  0
H  H42  1  0.56242893  0.20572120  0.82818804  1  0.235047  0  0.143533  0.137179  0  1.016645  0
H  H43  1  0.93758391  0.79427028  0.32818533  1  0.235156  0  0.143531  0.137189  0  1.016575  0
H  H44  1  0.04219032  0.39927048  0.08513086  1  0.150972  0  0.132835  0.103595  0  0.994664  0
H  H45  1  0.45781186  0.60074219  0.58513834  1  0.151274  0  0.132902  0.103634  0  0.994651  0
H  H46  1  0.95781584  0.60073622  0.91487615  1  0.15079  0  0.132821  0.103541  0  0.994674  0
H  H47  1  0.54219143  0.39927111  0.41487197  1  0.150913  0  0.132846  0.103594  0  0.994624  0
H  H48  1  0.86134069  0.46450100  0.27902335  1  0.232186  0  0.138667  0.125315  0  1.043681  0
H  H49  1  0.63865980  0.53549051  0.77902589  1  0.232075  0  0.13875  0.125479  0  1.043449  0
H  H50  1  0.13864277  0.53548708  0.72097871  1  0.232162  0  0.138725  0.125393  0  1.043602  0
H  H51  1  0.36135422  0.46450789  0.22097672  1  0.232204  0  0.138729  0.125491  0  1.043476  0
H  H52  1  0.96584547  0.00537538  0.91866025  1  0.051294  0  0.087514  0.076405  0  1.058654  0
H  H53  1  0.53415745  0.99462544  0.41865321  1  0.051519  0  0.087463  0.076355  0  1.058718  0
H  H54  1  0.03416847  0.99462630  0.08134346  1  0.051508  0  0.087465  0.07638  0  1.05868  0
H  H55  1  0.46583930  0.00537973  0.58133675  1  0.051743  0  0.087476  0.076405  0  1.058625  0
H  H56  1  0.87024947  0.92865316  0.98737343  1  0.050714  0  0.093623  0.094964  0  0.974961  0
H  H57  1  0.62975899  0.07134611  0.48736579  1  0.050676  0  0.093597  0.094969  0  0.97495  0
H  H58  1  0.12976647  0.07134932  0.01263248  1  0.050597  0  0.093565  0.094935  0  0.974902  0
H  H59  1  0.37024017  0.92866149  0.51262362  1  0.050673  0  0.093615  0.094998  0  0.974874  0
H  H60  1  0.98877928  0.81802749  0.90781641  1  0.072352  0  0.111001  0.086412  0  1.007257  0
H  H61  1  0.51121849  0.18197419  0.40780754  1  0.072198  0  0.111012  0.086534  0  1.007282  0
H  H62  1  0.01122763  0.18196771  0.09218455  1  0.072234  0  0.111022  0.08647  0  1.007306  0
H  H63  1  0.48877689  0.81804002  0.59218021  1  0.072377  0  0.110992  0.086416  0  1.007293  0
H  H64  1  0.12798352  0.89302443  0.94542132  1  0.062762  0  0.115907  0.095845  0  0.973393  0
H  H65  1  0.37201777  0.10697838  0.44541598  1  0.062866  0  0.115908  0.095802  0  0.973401  0
H  H66  1  0.87202650  0.10697238  0.05458349  1  0.062901  0  0.115896  0.095775  0  0.97338  0
H  H67  1  0.62797938  0.89302842  0.55457453  1  0.062855  0  0.115886  0.095798  0  0.973376  0
H  H68  1  0.85481670  0.61333911  0.12197073  1  0.179514  0  0.131608  0.111203  0  1.023046  0
H  H69  1  0.64519499  0.38665028  0.62196861  1  0.179425  0  0.131551  0.11113  0  1.023137  0
H  H70  1  0.14519750  0.38665272  0.87802693  1  0.179268  0  0.13156  0.111162  0  1.023117  0
H  H71  1  0.35480148  0.61333930  0.37803180  1  0.179295  0  0.1316  0.111203  0  1.023125  0
H  H72  1  0.19828732  0.81086471  0.06549139  1  0.168359  0  0.143499  0.130018  0  0.991816  0
H  H73  1  0.30171635  0.18914625  0.56547708  1  0.168395  0  0.14347  0.129969  0  0.99184  0
H  H74  1  0.80171688  0.18913052  0.93451177  1  0.168508  0  0.143506  0.130035  0  0.991818  0
H  H75  1  0.69827843  0.81086551  0.43450903  1  0.168536  0  0.14348  0.129966  0  0.992054  0
H  H76  1  0.29991802  0.53263812  0.95466976  1  0.086616  0  0.101058  0.107843  0  1.014768  0
H  H77  1  0.20008061  0.46736146  0.45465547  1  0.086289  0  0.101028  0.107768  0  1.014707  0
H  H78  1  0.70007657  0.46735477  0.04534165  1  0.086228  0  0.101031  0.107829  0  1.014751  0
H  H79  1  0.79991753  0.53264205  0.54533064  1  0.086588  0  0.101059  0.107872  0  1.014677  0
C  C80  1  0.57448838  0.97479136  0.25799181  1  0.320628  0  -0.044668  -0.086323  0  3.90711  0
C  C81  1  0.92550676  0.02521084  0.75799732  1  0.321292  0  -0.044553  -0.086253  0  3.907507  0
C  C82  1  0.42550653  0.02520644  0.74200310  1  0.321644  0  -0.044617  -0.086206  0  3.906893  0
C  C83  1  0.07449190  0.97479841  0.24200584  1  0.321452  0  -0.044713  -0.086421  0  3.906963  0
C  C84  1  0.56695788  0.09371794  0.24429594  1  -0.01608  0  -0.158104  -0.158958  0  3.94402  0
C  C85  1  0.93304416  0.90628989  0.74429461  1  -0.016031  0  -0.158094  -0.158779  0  3.943928  0
C  C86  1  0.43304915  0.90628136  0.75570447  1  -0.016142  0  -0.158173  -0.159031  0  3.943891  0
C  C87  1  0.06695532  0.09372263  0.25570690  1  -0.016005  0  -0.158115  -0.158957  0  3.943999  0
C  C88  1  0.69560821  0.16405192  0.23170896  1  -0.032067  0  -0.158673  -0.162049  0  3.951963  0
C  C89  1  0.80439328  0.83595342  0.73170394  1  -0.032854  0  -0.158696  -0.162147  0  3.951973  0
C  C90  1  0.30439489  0.83594250  0.76829860  1  -0.033115  0  -0.158716  -0.162201  0  3.951995  0
C  C91  1  0.19560509  0.16405829  0.26829372  1  -0.032951  0  -0.158725  -0.162174  0  3.951986  0
C  C92  1  0.69284970  0.28312433  0.21425680  1  0.305386  0  -0.041334  -0.083242  0  3.871754  0
C  C93  1  0.80715487  0.71687849  0.71425433  1  0.305629  0  -0.041346  -0.083294  0  3.871786  0
C  C94  1  0.30715761  0.71687251  0.78575021  1  0.305395  0  -0.041352  -0.083498  0  3.871761  0
C  C95  1  0.19284650  0.28313073  0.28574773  1  0.305266  0  -0.04129  -0.08343  0  3.871626  0
C  C96  1  0.28420510  0.82988290  0.31490229  1  0.951653  0  0.142376  0.127477  0  4.040476  0
C  C97  1  0.21579075  0.17012050  0.81490242  1  0.951914  0  0.142326  0.127321  0  4.040518  0
C  C98  1  0.71579202  0.17011652  0.68509372  1  0.952035  0  0.142359  0.127391  0  4.040294  0
C  C99  1  0.78421189  0.82988295  0.18509579  1  0.95156  0  0.142362  0.127407  0  4.040244  0
C  C100  1  0.39940934  0.82052985  0.22215729  1  0.974141  0  0.16533  0.092768  0  3.867975  0
C  C101  1  0.10058801  0.17947744  0.72216152  1  0.973743  0  0.16514  0.092648  0  3.867623  0
C  C102  1  0.60058557  0.17946796  0.77783872  1  0.974364  0  0.165263  0.092776  0  3.868144  0
C  C103  1  0.89941815  0.82052926  0.27783889  1  0.974171  0  0.165355  0.092869  0  3.868179  0
C  C104  1  0.97421653  0.39395722  0.12882131  1  0.95123  0  0.136368  0.123003  0  4.018659  0
C  C105  1  0.52578320  0.60604956  0.62882915  1  0.950723  0  0.136363  0.123039  0  4.018394  0
C  C106  1  0.02577850  0.60604468  0.87118130  1  0.950974  0  0.136367  0.123062  0  4.018504  0
C  C107  1  0.47421747  0.39396049  0.37118171  1  0.951097  0  0.136336  0.122949  0  4.018332  0
C  C108  1  0.88682593  0.42868091  0.22802393  1  0.961317  0  0.164938  0.09842  0  3.853854  0
C  C109  1  0.61317956  0.57131863  0.72802658  1  0.961068  0  0.164771  0.098197  0  3.853527  0
C  C110  1  0.11317316  0.57131192  0.77197978  1  0.96084  0  0.164943  0.098392  0  3.85347  0
C  C111  1  0.38682895  0.42867573  0.27197658  1  0.961272  0  0.164872  0.098158  0  3.853665  0
C  C112  1  0.96662185  0.96108703  0.97076261  1  -0.0518  0  -0.17045  -0.178874  0  3.96455  0
C  C113  1  0.53338480  0.03891551  0.47075402  1  -0.031344  0  -0.170453  -0.178873  0  3.964625  0
C  C114  1  0.03339278  0.03891383  0.02924055  1  -0.031151  0  -0.170402  -0.178937  0  3.964508  0
C  C115  1  0.46661436  0.96109209  0.52923209  1  -0.051853  0  -0.170433  -0.179037  0  3.9647  0
C  C116  1  0.02877254  0.86528889  0.95591278  1  0.314753  0  -0.045752  -0.08804  0  3.911647  0
C  C117  1  0.47123299  0.13471307  0.45590563  1  0.314887  0  -0.045782  -0.08817  0  3.911752  0
C  C118  1  0.97123588  0.13470876  0.04409148  1  0.315052  0  -0.045792  -0.087943  0  3.911431  0
C  C119  1  0.52876547  0.86529536  0.54408433  1  0.314365  0  -0.045729  -0.087915  0  3.911512  0
C  C120  1  0.92621755  0.67248689  0.09408152  1  0.953276  0  0.138691  0.13785  0  3.985834  0
C  C121  1  0.57378891  0.32750988  0.59407835  1  0.953451  0  0.138707  0.137835  0  3.985814  0
C  C122  1  0.07379095  0.32750747  0.90591944  1  0.953525  0  0.138686  0.137751  0  3.985973  0
C  C123  1  0.42620440  0.67248876  0.40591711  1  0.953287  0  0.138645  0.137734  0  3.986014  0
C  C124  1  0.10035190  0.77494319  0.06774759  1  1.018272  0  0.158186  0.077483  0  3.908498  0
C  C125  1  0.39965176  0.22506778  0.56773698  1  1.017953  0  0.158275  0.077571  0  3.908203  0
C  C126  1  0.89965516  0.22506350  0.93225722  1  1.018237  0  0.158228  0.077473  0  3.908669  0
C  C127  1  0.60034220  0.77494070  0.43225133  1  1.018179  0  0.158146  0.07751  0  3.908986  0
C  C128  1  0.54123852  0.53340729  0.07120428  1  0.001496  0  -0.018056  -0.054371  0  3.959873  0
C  C129  1  0.95875574  0.46658712  0.57120053  1  0.001711  0  -0.018122  -0.054478  0  3.959812  0
C  C130  1  0.45875652  0.46657656  0.92879723  1  0.001084  0  -0.018076  -0.054308  0  3.959583  0
C  C131  1  0.04123557  0.53341073  0.42879273  1  0.001589  0  -0.017998  -0.054272  0  3.959617  0
C  C132  1  0.42689173  0.55171334  0.04609386  1  -0.039394  0  -0.009873  -0.027186  0  3.938072  0
C  C133  1  0.07310817  0.44828203  0.54608704  1  -0.039593  0  -0.00992  -0.027267  0  3.937956  0
C  C134  1  0.57311090  0.44826467  0.95390875  1  -0.038544  0  -0.009987  -0.027227  0  3.937515  0
C  C135  1  0.92688796  0.55172069  0.45390677  1  -0.039339  0  -0.009996  -0.027134  0  3.937766  0
C  C136  1  0.38782738  0.51854941  0.97513871  1  0.004926  0  -0.087167  -0.122921  0  3.956956  0
C  C137  1  0.11216570  0.48144289  0.47513507  1  0.005245  0  -0.08711  -0.122753  0  3.956775  0
C  C138  1  0.61216645  0.48142953  0.02486500  1  0.004367  0  -0.087027  -0.122815  0  3.956947  0
C  C139  1  0.88782994  0.51856147  0.52485764  1  0.004602  0  -0.08703  -0.122842  0  3.956976  0
C  C140  1  0.58989849  0.56890152  0.14623341  1  1.516724  0  0.187299  0.556033  0  4.225131  0
C  C141  1  0.91010814  0.43110440  0.64623026  1  1.516319  0  0.187281  0.5561  0  4.225015  0
C  C142  1  0.41011320  0.43109116  0.85376920  1  1.516092  0  0.187197  0.555714  0  4.22465  0
C  C143  1  0.08987506  0.56889354  0.35376465  1  1.515882  0  0.187254  0.555843  0  4.224963  0
C  C144  1  0.34166678  0.60217726  0.09328291  1  1.598659  0  0.197805  0.597421  0  4.233629  0
C  C145  1  0.15833207  0.39781495  0.59327583  1  1.598244  0  0.197814  0.597314  0  4.233767  0
C  C146  1  0.65834469  0.39780722  0.90672190  1  1.59866  0  0.197903  0.597611  0  4.233261  0
C  C147  1  0.84164701  0.60217729  0.40672073  1  1.598308  0  0.197922  0.597494  0  4.23308  0
N  N148  1  0.45425896  0.90253448  0.26653623  1  -0.839489  0  -0.139197  0.157386  0  3.753097  0
N  N149  1  0.04572532  0.09746485  0.76654485  1  -0.83915  0  -0.139228  0.157288  0  3.753007  0
N  N150  1  0.54573628  0.09746824  0.73345703  1  -0.83942  0  -0.139304  0.157218  0  3.753447  0
N  N151  1  0.95426300  0.90253549  0.23346161  1  -0.839446  0  -0.139204  0.157351  0  3.753301  0
N  N152  1  0.38166000  0.91037518  0.32619884  1  -0.693359  0  -0.227348  -0.273287  0  3.113734  0
N  N153  1  0.11833489  0.08962826  0.82620399  1  -0.693262  0  -0.2273  -0.273148  0  3.113512  0
N  N154  1  0.61833413  0.08962673  0.67379607  1  -0.693334  0  -0.22723  -0.273113  0  3.113699  0
N  N155  1  0.88166656  0.91037767  0.17379972  1  -0.693344  0  -0.227332  -0.273226  0  3.113527  0
N  N156  1  0.29050589  0.77349778  0.25124226  1  -1.209542  0  -0.34488  -0.315897  0  3.473003  0
N  N157  1  0.20948617  0.22649978  0.75124580  1  -1.210166  0  -0.344725  -0.315643  0  3.473261  0
N  N158  1  0.70948682  0.22649840  0.74875485  1  -1.209876  0  -0.344752  -0.315781  0  3.473048  0
N  N159  1  0.79051935  0.77349708  0.24875516  1  -1.209486  0  -0.344833  -0.315837  0  3.473118  0
N  N160  1  0.81467846  0.34385389  0.19331852  1  -0.81908  0  -0.134605  0.172661  0  3.742213  0
N  N161  1  0.68532791  0.65614475  0.69332115  1  -0.818762  0  -0.134616  0.172662  0  3.742241  0
N  N162  1  0.18532072  0.65613566  0.80668629  1  -0.81825  0  -0.134729  0.172688  0  3.742392  0
N  N163  1  0.31468525  0.34386104  0.30668366  1  -0.818911  0  -0.1348  0.172634  0  3.742736  0
N  N164  1  0.86858006  0.32017436  0.12967607  1  -0.697108  0  -0.23312  -0.291429  0  3.127771  0
N  N165  1  0.63142536  0.67982990  0.62968216  1  -0.696374  0  -0.233154  -0.291426  0  3.127798  0
N  N166  1  0.13142337  0.67982499  0.87032654  1  -0.696911  0  -0.233041  -0.29137  0  3.127759  0
N  N167  1  0.36857122  0.32018184  0.37032815  1  -0.696904  0  -0.232972  -0.291262  0  3.127989  0
N  N168  1  0.98947558  0.46200284  0.18833647  1  -1.21006  0  -0.348228  -0.32455  0  3.46872  0
N  N169  1  0.51052593  0.53800159  0.68834368  1  -1.210552  0  -0.348174  -0.324516  0  3.468465  0
N  N170  1  0.01051565  0.53799829  0.81166724  1  -1.210017  0  -0.348285  -0.324629  0  3.468542  0
N  N171  1  0.48948621  0.46200011  0.31166113  1  -1.21012  0  -0.348229  -0.324529  0  3.468338  0
N  N172  1  0.01593285  0.78979638  0.01783459  1  -0.82974  0  -0.135684  0.171929  0  3.737513  0
N  N173  1  0.48407533  0.21020621  0.51782928  1  -0.829317  0  -0.135618  0.172035  0  3.737366  0
N  N174  1  0.98407257  0.21020376  0.98216362  1  -0.829931  0  -0.135588  0.172066  0  3.737356  0
N  N175  1  0.51592531  0.78979645  0.48216178  1  -0.829626  0  -0.135535  0.172134  0  3.737278  0
N  N176  1  0.90390437  0.72491107  0.03360505  1  -0.680273  0  -0.233981  -0.282926  0  3.08289  0
N  N177  1  0.59610257  0.27507900  0.53360505  1  -0.680671  0  -0.233979  -0.282924  0  3.082766  0
N  N178  1  0.09610131  0.27507922  0.96638986  1  -0.680529  0  -0.234001  -0.282964  0  3.082917  0
N  N179  1  0.40389754  0.72491792  0.46639316  1  -0.680492  0  -0.234065  -0.283019  0  3.082699  0
N  N180  1  0.04618033  0.70125706  0.11725369  1  -1.230358  0  -0.35141  -0.330431  0  3.478948  0
N  N181  1  0.45381927  0.29875325  0.61724473  1  -1.229997  0  -0.351468  -0.330426  0  3.478699  0
N  N182  1  0.95382313  0.29874967  0.88275112  1  -1.230085  0  -0.351468  -0.330411  0  3.478951  0
N  N183  1  0.54616998  0.70125447  0.38274523  1  -1.230081  0  -0.351334  -0.330386  0  3.479239  0
O  O184  1  0.27504044  0.53549470  0.13909023  1  -1.167817  0  -0.346758  -0.573366  0  2.247459  0
O  O185  1  0.22495791  0.46450747  0.63908202  1  -1.167612  0  -0.346873  -0.573287  0  2.247417  0
O  O186  1  0.72497486  0.46449795  0.86091843  1  -1.167725  0  -0.346833  -0.573436  0  2.247107  0
O  O187  1  0.77501891  0.53549383  0.36092279  1  -1.167937  0  -0.346869  -0.573375  0  2.247432  0
O  O188  1  0.33476887  0.69991909  0.08305067  1  -1.187904  0  -0.345962  -0.592189  0  2.140201  0
O  O189  1  0.16523383  0.30007387  0.58304342  1  -1.187616  0  -0.345831  -0.592062  0  2.140191  0
O  O190  1  0.66526043  0.30007175  0.91695854  1  -1.187962  0  -0.345906  -0.592196  0  2.140218  0
O  O191  1  0.83473378  0.69992671  0.41696249  1  -1.187687  0  -0.345925  -0.592215  0  2.139626  0
O  O192  1  0.54053280  0.63751696  0.18168970  1  -1.173358  0  -0.334403  -0.566806  0  2.207949  0
O  O193  1  0.95946890  0.36249894  0.68169513  1  -1.173025  0  -0.334422  -0.566829  0  2.208192  0
O  O194  1  0.45947582  0.36248150  0.81830411  1  -1.173446  0  -0.334338  -0.566664  0  2.207751  0
O  O195  1  0.04052149  0.63751697  0.31830967  1  -1.172972  0  -0.334364  -0.566696  0  2.207824  0
O  O196  1  0.67800486  0.52930077  0.17244221  1  -1.177032  0  -0.336326  -0.577655  0  2.205299  0
O  O197  1  0.82198544  0.47070540  0.67243105  1  -1.177129  0  -0.336236  -0.577662  0  2.204859  0
O  O198  1  0.32199034  0.47069457  0.82755930  1  -1.17677  0  -0.336266  -0.577497  0  2.204815  0
O  O199  1  0.17798472  0.52928366  0.32755065  1  -1.176805  0  -0.336355  -0.577674  0  2.20502  0
