# generated using pymatgen
data_Cd7H48C64(N8O13)2
_symmetry_space_group_name_H-M   'P 1'
_cell_length_a   7.47601742
_cell_length_b   11.86099091
_cell_length_c   20.97809115
_cell_angle_alpha   95.79416036
_cell_angle_beta   92.49682161
_cell_angle_gamma   102.02578683
_symmetry_Int_Tables_number   1
_chemical_formula_structural   Cd7H48C64(N8O13)2
_chemical_formula_sum   'Cd7 H48 C64 N16 O26'
_cell_volume   1806.07767397
_cell_formula_units_Z   1
loop_
 _symmetry_equiv_pos_site_id
 _symmetry_equiv_pos_as_xyz
  1  'x, y, z'
loop_
 _atom_site_type_symbol
 _atom_site_label
 _atom_site_symmetry_multiplicity
 _atom_site_fract_x
 _atom_site_fract_y
 _atom_site_fract_z
 _atom_site_occupancy
 _atom_site_pbe_bader_charge
 _atom_site_pbe_bader_spin_density
 _atom_site_pbe_cm5_charge
 _atom_site_pbe_ddec_charge
 _atom_site_pbe_ddec_spin_density
 _atom_site_pbe_ddec_sum_bond_order
 _atom_site_pbe_magmom
Cd  Cd0  1  0.00000304  0.00000189  0.99999925  1  1.308227  0  0.730027  1.041318  0  2.163229  0
Cd  Cd1  1  0.34648383  0.15321306  0.90483886  1  1.305932  0  0.765324  1.001975  0  2.162852  0
Cd  Cd2  1  0.65351898  0.84678886  0.09515855  1  1.305933  0  0.765314  1.002029  0  2.162713  0
Cd  Cd3  1  0.25248343  0.98473189  0.52068663  1  1.328943  0  0.794587  0.970243  0  2.164754  0
Cd  Cd4  1  0.74751301  0.01526305  0.47931311  1  1.32899  0  0.794591  0.970198  0  2.16474  0
Cd  Cd5  1  0.60254231  0.83315466  0.90962909  1  1.336929  0  0.769111  1.027367  0  2.22299  0
Cd  Cd6  1  0.39746002  0.16684980  0.09037275  1  1.336889  0  0.769158  1.027444  0  2.223  0
H  H7  1  0.92757642  0.21062484  0.86588104  1  0.153874  0  0.139218  0.114049  0  1.006262  0
H  H8  1  0.07243442  0.78937705  0.13411839  1  0.154526  0  0.139236  0.114095  0  1.006183  0
H  H9  1  0.42833281  0.45547368  0.87589808  1  0.117823  0  0.120174  0.119529  0  0.995754  0
H  H10  1  0.57167204  0.54453427  0.12410259  1  0.117898  0  0.120151  0.119504  0  0.995774  0
H  H11  1  0.14938642  0.56050879  0.83992920  1  0.131554  0  0.122585  0.127105  0  1.014259  0
H  H12  1  0.85061609  0.43949223  0.16007006  1  0.131613  0  0.122586  0.127085  0  1.014295  0
H  H13  1  0.76414621  0.47072989  0.84539195  1  0.065847  0  0.112352  0.099026  0  1.017295  0
H  H14  1  0.23585318  0.52926589  0.15460932  1  0.065709  0  0.112343  0.099045  0  1.017283  0
H  H15  1  0.70863573  0.31821228  0.84018315  1  0.150324  0  0.121709  0.123771  0  1.012613  0
H  H16  1  0.29137364  0.68178526  0.15981695  1  0.150333  0  0.121752  0.123834  0  1.012519  0
H  H17  1  0.02266740  0.32876610  0.73780754  1  0.102614  0  0.115166  0.097357  0  0.998841  0
H  H18  1  0.97732945  0.67123407  0.26219109  1  0.102578  0  0.11517  0.097342  0  0.99883  0
H  H19  1  0.82964668  0.21356456  0.73670956  1  0.073528  0  0.121199  0.113685  0  0.981986  0
H  H20  1  0.17035583  0.78643645  0.26329065  1  0.073738  0  0.12122  0.113742  0  0.981963  0
H  H21  1  0.09169858  0.42157994  0.62795600  1  0.105067  0  0.121172  0.123409  0  1.004596  0
H  H22  1  0.90829531  0.57841934  0.37204348  1  0.104991  0  0.121173  0.1234  0  1.004584  0
H  H23  1  0.03649465  0.29656444  0.50651723  1  0.132399  0  0.12528  0.125522  0  0.983423  0
H  H24  1  0.96349776  0.70343051  0.49348197  1  0.132346  0  0.125245  0.125486  0  0.983364  0
H  H25  1  0.69546138  0.10979081  0.63140540  1  0.163241  0  0.128938  0.089634  0  1.067083  0
H  H26  1  0.30452760  0.89020584  0.36859624  1  0.163266  0  0.128993  0.08975  0  1.066959  0
H  H27  1  0.97258068  0.54047421  0.74106744  1  0.078627  0  0.11511  0.099349  0  0.982511  0
H  H28  1  0.02741902  0.45952249  0.25893102  1  0.079085  0  0.115094  0.099313  0  0.982591  0
H  H29  1  0.82423031  0.49847424  0.67138752  1  0.079225  0  0.117223  0.102904  0  0.998388  0
H  H30  1  0.17576089  0.50152502  0.32861335  1  0.079364  0  0.117234  0.102932  0  0.998314  0
H  H31  1  0.52314369  0.57853238  0.66517142  1  0.125548  0  0.124109  0.128621  0  1.022842  0
H  H32  1  0.47686068  0.42147813  0.33483225  1  0.125543  0  0.124104  0.128588  0  1.022867  0
H  H33  1  0.85237705  0.65455097  0.84089941  1  0.142913  0  0.135463  0.109853  0  1.014932  0
H  H34  1  0.14762966  0.34543872  0.15910351  1  0.143036  0  0.135526  0.109939  0  1.015002  0
H  H35  1  0.38198994  0.72461232  0.74983804  1  0.097268  0  0.123083  0.120559  0  0.984008  0
H  H36  1  0.61802333  0.27540076  0.25016879  1  0.097488  0  0.123076  0.120553  0  0.983976  0
H  H37  1  0.34266421  0.11953089  0.68315408  1  0.134903  0  0.136559  0.110514  0  1.006162  0
H  H38  1  0.65733966  0.88046229  0.31684757  1  0.135022  0  0.136563  0.110551  0  1.006188  0
H  H39  1  0.42637481  0.27366471  0.51118942  1  0.147113  0  0.119004  0.12772  0  1.038166  0
H  H40  1  0.57361208  0.72633367  0.48881229  1  0.14705  0  0.118942  0.127618  0  1.038322  0
H  H41  1  0.59002623  0.43312013  0.61175067  1  0.090017  0  0.119269  0.116814  0  1.031569  0
H  H42  1  0.40995128  0.56687823  0.38825185  1  0.138069  0  0.119331  0.116967  0  1.031476  0
H  H43  1  0.51510570  0.26230890  0.76196579  1  0.127009  0  0.11722  0.116411  0  1.024547  0
H  H44  1  0.48489085  0.73769034  0.23803659  1  0.127073  0  0.117249  0.116424  0  1.024543  0
H  H45  1  0.48232632  0.40349884  0.75163693  1  0.070716  0  0.102488  0.081874  0  1.029271  0
H  H46  1  0.51767082  0.59650216  0.24836367  1  0.07075  0  0.102489  0.081816  0  1.029282  0
H  H47  1  0.08165771  0.95127848  0.72852152  1  0.109477  0  0.105197  0.116241  0  1.018697  0
H  H48  1  0.91834170  0.04871735  0.27147689  1  0.109463  0  0.105182  0.116227  0  1.018703  0
H  H49  1  0.41709711  0.93526080  0.69992290  1  0.087883  0  0.106477  0.122162  0  1.009082  0
H  H50  1  0.58290435  0.06474108  0.30007735  1  0.087872  0  0.10649  0.122179  0  1.009077  0
H  H51  1  0.68557866  0.52981936  0.98021306  1  0.096526  0  0.10573  0.114037  0  1.004614  0
H  H52  1  0.31441371  0.47018338  0.01978757  1  0.096388  0  0.105716  0.114037  0  1.004676  0
H  H53  1  0.35067023  0.98266438  0.98226130  1  0.601957  0  0.285921  0.377307  0  0.945173  0
H  H54  1  0.64934161  0.01734445  0.01773905  1  0.601937  0  0.285899  0.377229  0  0.945303  0
C  C55  1  0.02980541  0.28843922  0.86162432  1  0.993846  0  0.144066  0.104681  0  3.912224  0
C  C56  1  0.97020780  0.71156180  0.13837558  1  0.992988  0  0.144003  0.104503  0  3.912456  0
C  C57  1  0.28353633  0.41791171  0.86584340  1  0.442049  0  -0.00071  -0.019922  0  4.008104  0
C  C58  1  0.71646719  0.58209626  0.13415582  1  0.44166  0  -0.000677  -0.019878  0  4.008173  0
C  C59  1  0.14573681  0.47090128  0.84712773  1  0.227662  0  -0.005511  -0.129267  0  3.938539  0
C  C60  1  0.85426256  0.52910234  0.15287211  1  0.228208  0  -0.005485  -0.129191  0  3.938544  0
C  C61  1  0.79857188  0.39171694  0.82210173  1  0.250873  0  -0.049797  -0.138585  0  3.781287  0
C  C62  1  0.20142841  0.60828149  0.17789685  1  0.250942  0  -0.049825  -0.13867  0  3.781335  0
C  C63  1  0.76452227  0.38327933  0.74706119  1  0.046324  0  -0.00399  0.093184  0  3.704853  0
C  C64  1  0.23547295  0.61671995  0.25293832  1  0.046487  0  -0.003965  0.093266  0  3.704756  0
C  C65  1  0.87970962  0.29771570  0.71888582  1  0.316484  0  -0.048027  -0.124314  0  3.835358  0
C  C66  1  0.12028858  0.70228446  0.28111332  1  0.316644  0  -0.048068  -0.124391  0  3.835362  0
C  C67  1  0.99822132  0.34081453  0.60991758  1  0.275286  0  -0.013341  -0.14236  0  3.958959  0
C  C68  1  0.00177512  0.65918041  0.39008216  1  0.275272  0  -0.013358  -0.142375  0  3.958887  0
C  C69  1  0.97052454  0.27794046  0.55032361  1  0.433121  0  0.00728  -0.00322  0  4.002741  0
C  C70  1  0.02946846  0.72205622  0.44967618  1  0.43316  0  0.007325  -0.003063  0  4.002637  0
C  C71  1  0.79391948  0.17738982  0.61317633  1  0.98776  0  0.141127  0.102898  0  3.929384  0
C  C72  1  0.20607590  0.82260597  0.38682392  1  0.987828  0  0.14106  0.10282  0  3.929158  0
C  C73  1  0.82878232  0.50507314  0.72393046  1  0.269089  0  -0.048708  -0.129741  0  3.838554  0
C  C74  1  0.17121662  0.49492527  0.27606953  1  0.268475  0  -0.048735  -0.1298  0  3.838587  0
C  C75  1  0.56579726  0.61077925  0.71477946  1  0.297004  0  -0.001943  -0.115487  0  3.925723  0
C  C76  1  0.43420640  0.38922519  0.28522335  1  0.296055  0  -0.002018  -0.115519  0  3.925918  0
C  C77  1  0.74123168  0.65140789  0.80541346  1  0.958976  0  0.132917  0.083126  0  3.933636  0
C  C78  1  0.25877010  0.34858702  0.19458826  1  0.958325  0  0.13285  0.083024  0  3.933553  0
C  C79  1  0.49809531  0.68479063  0.75721135  1  0.434813  0  0.000632  -0.021887  0  4.026523  0
C  C80  1  0.50192112  0.31521988  0.24279299  1  0.435299  0  0.000688  -0.021832  0  4.026562  0
C  C81  1  0.38496400  0.18196088  0.64943457  1  0.966758  0  0.135461  0.080826  0  3.91803  0
C  C82  1  0.61503376  0.81803403  0.35056710  1  0.966764  0  0.135481  0.080851  0  3.91809  0
C  C83  1  0.42763041  0.26589003  0.56228937  1  0.470965  0  0.004074  -0.008439  0  3.986576  0
C  C84  1  0.57236183  0.73410836  0.43771243  1  0.470986  0  0.004041  -0.008364  0  3.986748  0
C  C85  1  0.51184242  0.34576181  0.61214887  1  0.249211  0  -0.013247  -0.13681  0  3.960409  0
C  C86  1  0.48814208  0.65423742  0.38785428  1  0.201013  0  -0.013235  -0.137058  0  3.960367  0
C  C87  1  0.55433583  0.33575597  0.73390080  1  0.26979  0  -0.055873  -0.13643  0  3.8137  0
C  C88  1  0.44565880  0.66424155  0.26610002  1  0.269748  0  -0.055906  -0.136401  0  3.81351  0
C  C89  1  0.54482839  0.86026086  0.59170514  1  1.643235  0  0.205786  0.604263  0  4.222813  0
C  C90  1  0.45517340  0.13973408  0.40829468  1  1.643083  0  0.20576  0.604082  0  4.222945  0
C  C91  1  0.65703862  0.90565232  0.65398318  1  -0.022886  0  -0.000459  -0.009784  0  3.923442  0
C  C92  1  0.34295824  0.09434783  0.34601688  1  -0.023082  0  -0.000483  -0.009738  0  3.923459  0
C  C93  1  0.84836374  0.91625008  0.66103807  1  0.035714  0  -0.023682  -0.076213  0  3.966008  0
C  C94  1  0.15163596  0.08374660  0.33896135  1  0.03611  0  -0.023718  -0.076409  0  3.966099  0
C  C95  1  0.93470554  0.94560044  0.72246988  1  -0.080865  0  -0.082326  -0.095022  0  3.963958  0
C  C96  1  0.06529312  0.05439712  0.27752863  1  -0.080944  0  -0.082246  -0.094848  0  3.963789  0
C  C97  1  0.84109910  0.97153179  0.77629873  1  0.015028  0  -0.02903  -0.091109  0  3.999824  0
C  C98  1  0.15890759  0.02846577  0.22369990  1  0.014668  0  -0.029061  -0.09126  0  3.999788  0
C  C99  1  0.65378471  0.97363982  0.76792717  1  -0.163237  0  -0.011659  -0.038018  0  3.965681  0
C  C100  1  0.34621808  0.02636207  0.23207214  1  -0.162789  0  -0.011631  -0.037964  0  3.965574  0
C  C101  1  0.56368691  0.93805728  0.70705363  1  0.021633  0  -0.093001  -0.164765  0  3.958611  0
C  C102  1  0.43631366  0.06194198  0.29294739  1  0.021817  0  -0.093024  -0.164797  0  3.958511  0
C  C103  1  0.54925937  0.02130100  0.82043919  1  1.589354  0  0.212312  0.598379  0  4.18433  0
C  C104  1  0.45074611  0.97870090  0.17955921  1  1.589  0  0.212271  0.598454  0  4.184105  0
C  C105  1  0.95179549  0.99894557  0.83925265  1  1.575418  0  0.207519  0.59677  0  4.209549  0
C  C106  1  0.04820777  0.00105373  0.16074603  1  1.575483  0  0.207565  0.596922  0  4.209377  0
C  C107  1  0.96886424  0.91279003  0.60555018  1  1.546695  0  0.194514  0.571462  0  4.224171  0
C  C108  1  0.03113086  0.08720492  0.39444858  1  1.546452  0  0.194581  0.571654  0  4.22398  0
C  C109  1  0.68161784  0.31284456  0.00351955  1  1.616013  0  0.214006  0.618839  0  4.20202  0
C  C110  1  0.31837530  0.68715651  0.99647622  1  1.615665  0  0.214125  0.619046  0  4.201933  0
C  C111  1  0.84939698  0.40649129  0.00056817  1  -0.079394  0  -0.012091  -0.044109  0  3.964943  0
C  C112  1  0.15059779  0.59351060  0.99943102  1  -0.079484  0  -0.0121  -0.044242  0  3.965  0
C  C113  1  0.02817050  0.39081758  0.01193081  1  -0.001312  0  -0.017437  -0.053752  0  3.970181  0
C  C114  1  0.97182427  0.60918431  0.98806789  1  -0.00123  0  -0.017523  -0.053747  0  3.970064  0
C  C115  1  0.82361802  0.51550304  0.98831016  1  -0.002913  0  -0.085237  -0.122032  0  3.970015  0
C  C116  1  0.17638000  0.48450056  0.01169061  1  -0.002734  0  -0.085226  -0.121966  0  3.969883  0
C  C117  1  0.06996932  0.27551879  0.02170051  1  1.591665  0  0.206708  0.589678  0  4.232572  0
C  C118  1  0.93003732  0.72448656  0.97829955  1  1.591671  0  0.206848  0.589839  0  4.23222  0
N  N119  1  0.20950572  0.30398666  0.87443205  1  -1.204255  0  -0.350188  -0.308349  0  3.48905  0
N  N120  1  0.79050554  0.69602043  0.12556819  1  -1.204199  0  -0.35021  -0.308386  0  3.489289  0
N  N121  1  0.98443633  0.38718059  0.84465794  1  -1.225389  0  -0.24802  0.041804  0  3.764274  0
N  N122  1  0.01556827  0.61281871  0.15534028  1  -1.225497  0  -0.247975  0.041917  0  3.764556  0
N  N123  1  0.72067668  0.58915606  0.74617042  1  -1.221885  0  -0.248062  0.03735  0  3.763382  0
N  N124  1  0.27932715  0.41084492  0.25383171  1  -1.221859  0  -0.248006  0.037369  0  3.763404  0
N  N125  1  0.60826800  0.70934800  0.81348047  1  -1.199291  0  -0.347008  -0.302194  0  3.498796  0
N  N126  1  0.39174624  0.29065209  0.18652415  1  -1.198579  0  -0.346997  -0.302162  0  3.498729  0
N  N127  1  0.34843746  0.16427546  0.58613624  1  -1.199958  0  -0.34459  -0.286326  0  3.477284  0
N  N128  1  0.65155821  0.83572118  0.41386550  1  -1.199932  0  -0.344582  -0.286408  0  3.477394  0
N  N129  1  0.48616713  0.29154867  0.66765904  1  -1.213004  0  -0.250617  0.034895  0  3.771008  0
N  N130  1  0.51382556  0.70844710  0.33234308  1  -1.213144  0  -0.250635  0.035044  0  3.770586  0
N  N131  1  0.84302439  0.17650317  0.55325336  1  -1.206305  0  -0.346363  -0.281381  0  3.509997  0
N  N132  1  0.15696326  0.82349350  0.44674682  1  -1.206162  0  -0.346359  -0.281497  0  3.509994  0
N  N133  1  0.88379974  0.27586050  0.64951232  1  -1.269022  0  -0.253466  0.033375  0  3.788598  0
N  N134  1  0.11618925  0.72413620  0.35048550  1  -1.269487  0  -0.253463  0.033341  0  3.788443  0
O  O135  1  0.89997627  0.90697757  0.54828230  1  -1.188614  0  -0.332532  -0.586911  0  2.309818  0
O  O136  1  0.10002745  0.09301911  0.45171719  1  -1.188645  0  -0.332607  -0.58704  0  2.309831  0
O  O137  1  0.14005133  0.92348594  0.61878748  1  -1.146007  0  -0.332116  -0.559439  0  2.208381  0
O  O138  1  0.85994837  0.07651074  0.38121194  1  -1.146046  0  -0.332085  -0.559448  0  2.208269  0
O  O139  1  0.47718865  0.75433246  0.58303256  1  -1.163  0  -0.328046  -0.535231  0  2.043638  0
O  O140  1  0.52281045  0.24566245  0.41696913  1  -1.162889  0  -0.328062  -0.535198  0  2.043602  0
O  O141  1  0.52423261  0.93787775  0.55441769  1  -1.190731  0  -0.351087  -0.613348  0  2.381142  0
O  O142  1  0.47576131  0.06211372  0.44558179  1  -1.190677  0  -0.351045  -0.613189  0  2.381107  0
O  O143  1  0.11911586  0.04540254  0.83653798  1  -1.171614  0  -0.327374  -0.558646  0  2.340388  0
O  O144  1  0.88089691  0.95460114  0.16345730  1  -1.171625  0  -0.327371  -0.55862  0  2.340538  0
O  O145  1  0.87362558  0.97356662  0.89060888  1  -1.175412  0  -0.328568  -0.589447  0  2.380371  0
O  O146  1  0.12639300  0.02643443  0.10938871  1  -1.17556  0  -0.328657  -0.589648  0  2.380168  0
O  O147  1  0.54503908  0.12845422  0.82191450  1  -1.16579  0  -0.317301  -0.547955  0  2.221887  0
O  O148  1  0.45496342  0.87154678  0.17808618  1  -1.165754  0  -0.317278  -0.548026  0  2.221842  0
O  O149  1  0.46450028  0.95647675  0.85899736  1  -1.162937  0  -0.325329  -0.559438  0  2.292626  0
O  O150  1  0.53550491  0.04352429  0.14100098  1  -1.162668  0  -0.32531  -0.559465  0  2.292525  0
O  O151  1  0.57220918  0.29496483  0.95368587  1  -1.176429  0  -0.334209  -0.577619  0  2.305179  0
O  O152  1  0.42779037  0.70503537  0.04631042  1  -1.176297  0  -0.334357  -0.57783  0  2.304891  0
O  O153  1  0.66112098  0.26695426  0.05560641  1  -1.163594  0  -0.332028  -0.56518  0  2.242756  0
O  O154  1  0.33887617  0.73304677  0.94439228  1  -1.163379  0  -0.332008  -0.565172  0  2.242983  0
O  O155  1  0.21212872  0.28052373  0.05815158  1  -1.186637  0  -0.333614  -0.584709  0  2.363857  0
O  O156  1  0.78787124  0.71948163  0.94184789  1  -1.186684  0  -0.33366  -0.584782  0  2.363775  0
O  O157  1  0.96649863  0.18536176  0.99189682  1  -1.157338  0  -0.322279  -0.558495  0  2.297209  0
O  O158  1  0.03350522  0.81463928  0.00810150  1  -1.157487  0  -0.32231  -0.558538  0  2.297263  0
O  O159  1  0.31089479  0.05571474  0.99077877  1  -1.198192  0  -0.592222  -0.873263  0  2.144281  0
O  O160  1  0.68912002  0.94429497  0.00922072  1  -1.198164  0  -0.592169  -0.873222  0  2.144543  0
