# generated using pymatgen
data_Zn2H7C6N9O4
_symmetry_space_group_name_H-M   'P 1'
_cell_length_a   12.83306271
_cell_length_b   13.90370622
_cell_length_c   16.95789175
_cell_angle_alpha   90.00000113
_cell_angle_beta   89.99995682
_cell_angle_gamma   90.00002549
_symmetry_Int_Tables_number   1
_chemical_formula_structural   Zn2H7C6N9O4
_chemical_formula_sum   'Zn16 H56 C48 N72 O32'
_cell_volume   3025.74801952
_cell_formula_units_Z   8
loop_
 _symmetry_equiv_pos_site_id
 _symmetry_equiv_pos_as_xyz
  1  'x, y, z'
loop_
 _atom_site_type_symbol
 _atom_site_label
 _atom_site_symmetry_multiplicity
 _atom_site_fract_x
 _atom_site_fract_y
 _atom_site_fract_z
 _atom_site_occupancy
 _atom_site_pbe_bader_charge
 _atom_site_pbe_bader_spin_density
 _atom_site_pbe_cm5_charge
 _atom_site_pbe_ddec_charge
 _atom_site_pbe_ddec_spin_density
 _atom_site_pbe_ddec_sum_bond_order
 _atom_site_pbe_magmom
Zn  Zn0  1  0.01822720  0.40832854  0.06965488  1  1.253841  0  0.710914  0.733316  0  2.42966  0
Zn  Zn1  1  0.56842713  0.52374177  0.09653543  1  1.253557  0  0.716668  0.737123  0  2.400699  0
Zn  Zn2  1  0.98177161  0.09167145  0.56965603  1  1.253823  0  0.71092  0.733309  0  2.429649  0
Zn  Zn3  1  0.43157190  0.97625850  0.59653453  1  1.253429  0  0.71666  0.737116  0  2.400788  0
Zn  Zn4  1  0.51822696  0.59167113  0.43034463  1  1.253796  0  0.710925  0.73335  0  2.42959  0
Zn  Zn5  1  0.06842785  0.47625792  0.40346523  1  1.253429  0  0.716678  0.737156  0  2.400714  0
Zn  Zn6  1  0.48177173  0.90832842  0.93034429  1  1.253858  0  0.710901  0.733279  0  2.42966  0
Zn  Zn7  1  0.93157219  0.02374135  0.90346464  1  1.253557  0  0.716681  0.737142  0  2.400713  0
Zn  Zn8  1  0.98177155  0.59167123  0.93034415  1  1.253829  0  0.710909  0.733292  0  2.4296  0
Zn  Zn9  1  0.43157162  0.47625800  0.90346478  1  1.253442  0  0.71666  0.737136  0  2.400704  0
Zn  Zn10  1  0.01822948  0.90832904  0.43034300  1  1.253816  0  0.710877  0.733252  0  2.429703  0
Zn  Zn11  1  0.56842919  0.02374199  0.40346568  1  1.253436  0  0.716675  0.737138  0  2.400747  0
Zn  Zn12  1  0.48177101  0.40832864  0.56965617  1  1.253832  0  0.710891  0.733267  0  2.429606  0
Zn  Zn13  1  0.93157090  0.52374257  0.59653439  1  1.25344  0  0.716679  0.737173  0  2.400718  0
Zn  Zn14  1  0.51822858  0.09167135  0.06965592  1  1.253877  0  0.710885  0.733252  0  2.429667  0
Zn  Zn15  1  0.06842812  0.97625914  0.09653498  1  1.25345  0  0.716678  0.737142  0  2.4007  0
H  H16  1  0.04539911  0.19681084  0.15590793  1  0.200006  0  0.134627  0.112312  0  1.023694  0
H  H17  1  0.83245366  0.33937443  0.15169315  1  0.463487  0  0.305954  0.320479  0  0.947693  0
H  H18  1  0.71400259  0.38800748  0.17673580  1  0.508587  0  0.296238  0.318576  0  0.997377  0
H  H19  1  0.96358878  0.22883775  0.85693821  1  0.490809  0  0.301938  0.320138  0  0.973784  0
H  H20  1  0.95264050  0.33851786  0.90494831  1  0.509073  0  0.29729  0.320147  0  0.983398  0
H  H21  1  0.79464008  0.72227881  0.97609458  1  0.47076  0  0.303709  0.305279  0  0.96704  0
H  H22  1  0.69419999  0.71605742  0.04241546  1  0.467913  0  0.297994  0.300468  0  0.99078  0
H  H23  1  0.95459728  0.30319059  0.65590850  1  0.200001  0  0.134643  0.11231  0  1.023645  0
H  H24  1  0.16754662  0.16062556  0.65169358  1  0.463492  0  0.305938  0.320448  0  0.947705  0
H  H25  1  0.28599689  0.11199251  0.67673675  1  0.50858  0  0.29623  0.318557  0  0.997401  0
H  H26  1  0.03640975  0.27116152  0.35693882  1  0.490858  0  0.301941  0.320134  0  0.973707  0
H  H27  1  0.04735798  0.16148070  0.40494950  1  0.509049  0  0.297271  0.320109  0  0.983485  0
H  H28  1  0.20536013  0.77772218  0.47609392  1  0.470763  0  0.303719  0.305277  0  0.967034  0
H  H29  1  0.30579987  0.78394356  0.54241522  1  0.467927  0  0.297967  0.300404  0  0.990771  0
H  H30  1  0.54539828  0.80318956  0.34409097  1  0.199997  0  0.134633  0.112301  0  1.023693  0
H  H31  1  0.33245375  0.66062393  0.34830618  1  0.463484  0  0.305957  0.320482  0  0.947652  0
H  H32  1  0.21400268  0.61199011  0.32326242  1  0.508561  0  0.296223  0.31858  0  0.997339  0
H  H33  1  0.46358912  0.77116211  0.64306153  1  0.490813  0  0.301937  0.32013  0  0.973801  0
H  H34  1  0.45264006  0.66148200  0.59505085  1  0.50907  0  0.297282  0.320118  0  0.983426  0
H  H35  1  0.29463953  0.27771954  0.52390467  1  0.470737  0  0.303725  0.305292  0  0.96703  0
H  H36  1  0.19419900  0.28394088  0.45758277  1  0.467859  0  0.297956  0.300426  0  0.990801  0
H  H37  1  0.45459894  0.69681071  0.84409183  1  0.200014  0  0.134645  0.11233  0  1.023675  0
H  H38  1  0.66754580  0.83937418  0.84830692  1  0.463481  0  0.305931  0.320465  0  0.947728  0
H  H39  1  0.78599690  0.88800656  0.82326427  1  0.508594  0  0.296239  0.318597  0  0.997367  0
H  H40  1  0.53640986  0.72883743  0.14306068  1  0.490812  0  0.301958  0.320151  0  0.973764  0
H  H41  1  0.54735897  0.83851826  0.09505176  1  0.509068  0  0.297291  0.320123  0  0.983448  0
H  H42  1  0.70536011  0.22227613  0.02390784  1  0.470719  0  0.303727  0.305317  0  0.967027  0
H  H43  1  0.80580020  0.21605624  0.95758579  1  0.467941  0  0.297964  0.300384  0  0.990801  0
H  H44  1  0.95460042  0.80318893  0.84409169  1  0.200003  0  0.134627  0.112319  0  1.023692  0
H  H45  1  0.16754509  0.66062390  0.84830588  1  0.463463  0  0.305956  0.320473  0  0.947675  0
H  H46  1  0.28599616  0.61199229  0.82326323  1  0.508581  0  0.296227  0.318595  0  0.997352  0
H  H47  1  0.03641075  0.77116202  0.14306141  1  0.490811  0  0.301946  0.320144  0  0.973781  0
H  H48  1  0.04735903  0.66148191  0.09505131  1  0.509072  0  0.297287  0.320139  0  0.983413  0
H  H49  1  0.20535945  0.27772168  0.02390563  1  0.470755  0  0.30371  0.305267  0  0.967056  0
H  H50  1  0.30580033  0.28394235  0.95758534  1  0.467919  0  0.297958  0.300395  0  0.990787  0
H  H51  1  0.04540225  0.69681062  0.34409053  1  0.199979  0  0.134636  0.112315  0  1.023646  0
H  H52  1  0.83245525  0.83937493  0.34830663  1  0.463475  0  0.305944  0.320457  0  0.94771  0
H  H53  1  0.71400342  0.88800726  0.32326345  1  0.508585  0  0.296237  0.318591  0  0.997357  0
H  H54  1  0.96359056  0.72883825  0.64306021  1  0.490864  0  0.301939  0.320138  0  0.973698  0
H  H55  1  0.95264233  0.83851979  0.59505071  1  0.509047  0  0.297265  0.32011  0  0.983488  0
H  H56  1  0.79464097  0.22227903  0.52390511  1  0.470733  0  0.303776  0.305371  0  0.967094  0
H  H57  1  0.69419966  0.21605693  0.45758440  1  0.46792  0  0.297955  0.300399  0  0.990773  0
H  H58  1  0.45459970  0.19681093  0.65590865  1  0.199996  0  0.134649  0.112341  0  1.023643  0
H  H59  1  0.66754422  0.33937728  0.65169580  1  0.463465  0  0.305936  0.320423  0  0.947695  0
H  H60  1  0.78599607  0.38800966  0.67673838  1  0.508558  0  0.296231  0.318557  0  0.997381  0
H  H61  1  0.53641197  0.22883766  0.35693927  1  0.490857  0  0.301953  0.320164  0  0.97377  0
H  H62  1  0.54735947  0.33851777  0.40494936  1  0.509073  0  0.297285  0.320141  0  0.983414  0
H  H63  1  0.70536001  0.72228095  0.47609495  1  0.47073  0  0.303721  0.305286  0  0.967023  0
H  H64  1  0.80580131  0.71605745  0.54241626  1  0.467894  0  0.297969  0.300425  0  0.990838  0
H  H65  1  0.54540059  0.30318906  0.15590897  1  0.199997  0  0.13464  0.112315  0  1.02366  0
H  H66  1  0.33245529  0.16062631  0.15169270  1  0.463475  0  0.305939  0.320465  0  0.947697  0
H  H67  1  0.21400341  0.11199321  0.17673594  1  0.508595  0  0.296235  0.318582  0  0.997367  0
H  H68  1  0.46358967  0.27116162  0.85693894  1  0.49082  0  0.301961  0.320159  0  0.973789  0
H  H69  1  0.45264056  0.16148223  0.90494904  1  0.50907  0  0.297281  0.320125  0  0.983433  0
H  H70  1  0.29464098  0.77772220  0.97609414  1  0.470701  0  0.30371  0.305275  0  0.967045  0
H  H71  1  0.19420011  0.78394353  0.04241501  1  0.467932  0  0.297978  0.300426  0  0.990758  0
C  C72  1  0.02207421  0.41562588  0.24087605  1  1.57689  0  0.213887  0.483649  0  4.1802  0
C  C73  1  0.06775547  0.51481167  0.21711188  1  1.609928  0  0.198727  0.470944  0  4.265732  0
C  C74  1  0.79115026  0.45553698  0.08882509  1  1.507978  0  0.319157  0.536815  0  4.122907  0
C  C75  1  0.77991761  0.59334771  0.03066869  1  1.540627  0  0.321558  0.540071  0  4.115489  0
C  C76  1  0.98667050  0.21902023  0.97393152  1  1.5018  0  0.320291  0.513512  0  4.113899  0
C  C77  1  0.02668108  0.18860080  0.09407124  1  0.968063  0  0.139371  0.157423  0  4.004359  0
C  C78  1  0.97792755  0.08437483  0.74087720  1  1.576923  0  0.213924  0.483659  0  4.180142  0
C  C79  1  0.93224421  0.98518788  0.71711247  1  1.609926  0  0.198687  0.470838  0  4.265841  0
C  C80  1  0.20885010  0.04446373  0.58882490  1  1.507977  0  0.319131  0.536842  0  4.122972  0
C  C81  1  0.22008226  0.90665327  0.53066792  1  1.540304  0  0.321465  0.539911  0  4.115576  0
C  C82  1  0.01332946  0.28097905  0.47393214  1  1.501794  0  0.320248  0.513442  0  4.113969  0
C  C83  1  0.97331615  0.31139991  0.59407121  1  0.968035  0  0.139363  0.15744  0  4.004234  0
C  C84  1  0.52207180  0.58437451  0.25912346  1  1.576909  0  0.213903  0.483691  0  4.180208  0
C  C85  1  0.56775610  0.48518802  0.28288760  1  1.609928  0  0.198639  0.470789  0  4.265927  0
C  C86  1  0.29115022  0.54446137  0.41117426  1  1.507999  0  0.319173  0.536862  0  4.122881  0
C  C87  1  0.27991823  0.40665063  0.46933008  1  1.540609  0  0.321572  0.540113  0  4.115405  0
C  C88  1  0.48667097  0.78097964  0.52606821  1  1.501797  0  0.32029  0.513465  0  4.11393  0
C  C89  1  0.52668097  0.81139959  0.40592885  1  0.968069  0  0.139366  0.157397  0  4.004349  0
C  C90  1  0.47792551  0.91562719  0.75912431  1  1.576887  0  0.213819  0.483624  0  4.180241  0
C  C91  1  0.43224405  0.01481413  0.78288788  1  1.609739  0  0.198626  0.470809  0  4.265767  0
C  C92  1  0.70884927  0.95553603  0.91117557  1  1.50798  0  0.319113  0.536774  0  4.122915  0
C  C93  1  0.72008330  0.09334577  0.96933255  1  1.540248  0  0.321491  0.539915  0  4.115669  0
C  C94  1  0.51332969  0.71902062  0.02606796  1  1.501801  0  0.320238  0.513381  0  4.113994  0
C  C95  1  0.47331775  0.68860068  0.90592911  1  0.968054  0  0.139369  0.157404  0  4.004333  0
C  C96  1  0.97792532  0.58437461  0.75912357  1  1.576911  0  0.21384  0.48362  0  4.180251  0
C  C97  1  0.93224328  0.48518810  0.78288715  1  1.609915  0  0.19864  0.470807  0  4.265937  0
C  C98  1  0.20884928  0.54446208  0.91117453  1  1.507975  0  0.319186  0.53687  0  4.122866  0
C  C99  1  0.22008192  0.40665134  0.96933093  1  1.540149  0  0.321571  0.540081  0  4.115387  0
C  C100  1  0.01332981  0.78098026  0.02606810  1  1.501795  0  0.320258  0.513445  0  4.113941  0
C  C101  1  0.97331845  0.81139969  0.90592897  1  0.968067  0  0.139392  0.157431  0  4.004308  0
C  C102  1  0.02207354  0.91562565  0.25912242  1  1.576883  0  0.213845  0.483664  0  4.180218  0
C  C103  1  0.06775843  0.01481190  0.28288597  1  1.609958  0  0.198629  0.470798  0  4.265843  0
C  C104  1  0.79115177  0.95553747  0.41117413  1  1.507956  0  0.319124  0.536814  0  4.123015  0
C  C105  1  0.77991961  0.09334794  0.46933053  1  1.540292  0  0.321524  0.540044  0  4.115417  0
C  C106  1  0.98667085  0.71902144  0.52606748  1  1.501822  0  0.320245  0.513411  0  4.113995  0
C  C107  1  0.02668338  0.68860058  0.40592782  1  0.968039  0  0.139338  0.157385  0  4.004237  0
C  C108  1  0.47792695  0.41562454  0.74087734  1  1.577045  0  0.213917  0.483719  0  4.180195  0
C  C109  1  0.43224265  0.51481103  0.71711438  1  1.609954  0  0.198617  0.470839  0  4.265868  0
C  C110  1  0.70884775  0.45553912  0.58882712  1  1.507086  0  0.319092  0.536718  0  4.123015  0
C  C111  1  0.72008052  0.59334986  0.53067013  1  1.540145  0  0.321576  0.540091  0  4.11533  0
C  C112  1  0.51332934  0.21902013  0.47393259  1  1.501808  0  0.320248  0.513434  0  4.113935  0
C  C113  1  0.47331856  0.18860018  0.59407195  1  0.968037  0  0.139343  0.157362  0  4.004332  0
C  C114  1  0.52207559  0.08437330  0.24087649  1  1.576858  0  0.21383  0.483674  0  4.180303  0
C  C115  1  0.56775704  0.98518707  0.21711292  1  1.609744  0  0.198655  0.470861  0  4.26584  0
C  C116  1  0.29115104  0.04446303  0.08882523  1  1.507929  0  0.31916  0.536844  0  4.122971  0
C  C117  1  0.27991857  0.90665256  0.03066883  1  1.540289  0  0.321553  0.540091  0  4.115467  0
C  C118  1  0.48667062  0.28097987  0.97393225  1  1.501806  0  0.320281  0.513483  0  4.113932  0
C  C119  1  0.52668178  0.31139909  0.09407169  1  0.968046  0  0.139358  0.157414  0  4.004298  0
N  N120  1  0.72518551  0.53221220  0.07907213  1  -1.216412  0  -0.375798  -0.523852  0  3.343181  0
N  N121  1  0.87880356  0.46654773  0.04748915  1  -0.834063  0  -0.300008  -0.331595  0  3.464185  0
N  N122  1  0.87203047  0.55622453  0.01044386  1  -0.847629  0  -0.293132  -0.334579  0  3.46681  0
N  N123  1  0.76841675  0.37652207  0.13336188  1  -1.269185  0  -0.590492  -0.668639  0  3.252838  0
N  N124  1  0.01873052  0.10424199  0.05836869  1  -0.814731  0  -0.273558  -0.20836  0  3.577227  0
N  N125  1  0.99314204  0.12262292  0.98035684  1  -0.780455  0  -0.281778  -0.326021  0  3.394641  0
N  N126  1  0.00842437  0.26266234  0.04391289  1  -1.271115  0  -0.37063  -0.435744  0  3.467362  0
N  N127  1  0.95053654  0.26499286  0.90855253  1  -1.303163  0  -0.583298  -0.665436  0  3.297265  0
N  N128  1  0.74304804  0.67976567  0.00518499  1  -1.275299  0  -0.588405  -0.647526  0  3.29711  0
N  N129  1  0.27481431  0.96778734  0.57907191  1  -1.216291  0  -0.375788  -0.523829  0  3.343192  0
N  N130  1  0.12119606  0.03345226  0.54748960  1  -0.834051  0  -0.299994  -0.331606  0  3.464159  0
N  N131  1  0.12796865  0.94377573  0.51044314  1  -0.847181  0  -0.293075  -0.334499  0  3.46668  0
N  N132  1  0.23158356  0.12347720  0.63336227  1  -1.269185  0  -0.590425  -0.668569  0  3.252924  0
N  N133  1  0.98126830  0.39575800  0.55836866  1  -0.814722  0  -0.273561  -0.208386  0  3.577279  0
N  N134  1  0.00685792  0.37737636  0.48035688  1  -0.780448  0  -0.281758  -0.325999  0  3.3946  0
N  N135  1  0.99157446  0.23733765  0.54391344  1  -1.271114  0  -0.370636  -0.435735  0  3.467304  0
N  N136  1  0.04946194  0.23500570  0.40855372  1  -1.303161  0  -0.583258  -0.665365  0  3.29729  0
N  N137  1  0.25695186  0.82023531  0.50518419  1  -1.275433  0  -0.588389  -0.647429  0  3.297081  0
N  N138  1  0.22518543  0.46778540  0.42092726  1  -1.216282  0  -0.375776  -0.523864  0  3.343168  0
N  N139  1  0.37880348  0.53345065  0.45251016  1  -0.834189  0  -0.300018  -0.331605  0  3.464319  0
N  N140  1  0.37203109  0.44377384  0.48955545  1  -0.847461  0  -0.29315  -0.334603  0  3.466808  0
N  N141  1  0.26841680  0.62347483  0.36663749  1  -1.269165  0  -0.590482  -0.668661  0  3.252659  0
N  N142  1  0.51873042  0.89575768  0.44163082  1  -0.814737  0  -0.273525  -0.208282  0  3.577154  0
N  N143  1  0.49314256  0.87737696  0.51964347  1  -0.780457  0  -0.281796  -0.326029  0  3.394614  0
N  N144  1  0.50842418  0.73733804  0.45608663  1  -1.271112  0  -0.370657  -0.435742  0  3.467332  0
N  N145  1  0.45053770  0.73500700  0.59144722  1  -1.303154  0  -0.583282  -0.665378  0  3.297299  0
N  N146  1  0.24304859  0.32023266  0.49481380  1  -1.275261  0  -0.588418  -0.647547  0  3.297102  0
N  N147  1  0.77481459  0.03221101  0.92092912  1  -1.216352  0  -0.375818  -0.523803  0  3.343149  0
N  N148  1  0.62119598  0.96654674  0.95251092  1  -0.834274  0  -0.299965  -0.331569  0  3.4642  0
N  N149  1  0.62796965  0.05622400  0.98955738  1  -0.847041  0  -0.293089  -0.334512  0  3.466764  0
N  N150  1  0.73158352  0.87652113  0.86663878  1  -1.269197  0  -0.590425  -0.668609  0  3.252842  0
N  N151  1  0.48126905  0.60424260  0.94163107  1  -0.8147  0  -0.273577  -0.208387  0  3.577281  0
N  N152  1  0.50685888  0.62262330  0.01964322  1  -0.780455  0  -0.281748  -0.325967  0  3.394594  0
N  N153  1  0.49157527  0.76266223  0.95608687  1  -1.27113  0  -0.370629  -0.435674  0  3.46731  0
N  N154  1  0.54946289  0.76499326  0.09144754  1  -1.303162  0  -0.583305  -0.66538  0  3.297296  0
N  N155  1  0.75695213  0.17976375  0.99481684  1  -1.275393  0  -0.588401  -0.647452  0  3.297057  0
N  N156  1  0.27481402  0.46778685  0.92092808  1  -1.216251  0  -0.375804  -0.523865  0  3.343185  0
N  N157  1  0.12119520  0.53345133  0.95250988  1  -0.834043  0  -0.299959  -0.331531  0  3.46423  0
N  N158  1  0.12796751  0.44377380  0.98955517  1  -0.847187  0  -0.293166  -0.334643  0  3.466725  0
N  N159  1  0.23158200  0.62347626  0.86663774  1  -1.269163  0  -0.590518  -0.668709  0  3.252724  0
N  N160  1  0.98127057  0.89575778  0.94163093  1  -0.814736  0  -0.273569  -0.208382  0  3.577232  0
N  N161  1  0.00685827  0.87737685  0.01964278  1  -0.780457  0  -0.281764  -0.32597  0  3.394597  0
N  N162  1  0.99157516  0.73733815  0.95608732  1  -1.271104  0  -0.370645  -0.435742  0  3.467327  0
N  N163  1  0.04946299  0.73500691  0.09144709  1  -1.303154  0  -0.583291  -0.665413  0  3.297279  0
N  N164  1  0.25695149  0.32023410  0.99481522  1  -1.275302  0  -0.5884  -0.647451  0  3.297064  0
N  N165  1  0.72518678  0.03221315  0.42092771  1  -1.216224  0  -0.375785  -0.523858  0  3.343165  0
N  N166  1  0.87880581  0.96654895  0.45250943  1  -0.834065  0  -0.299949  -0.331565  0  3.464235  0
N  N167  1  0.87203322  0.05622548  0.48955471  1  -0.847222  0  -0.293175  -0.334621  0  3.466745  0
N  N168  1  0.76841831  0.87652329  0.36663793  1  -1.269171  0  -0.590462  -0.668622  0  3.25287  0
N  N169  1  0.01873123  0.60424249  0.44163037  1  -0.814704  0  -0.273546  -0.208374  0  3.577162  0
N  N170  1  0.99314083  0.62262341  0.51964274  1  -0.780439  0  -0.281742  -0.325952  0  3.394507  0
N  N171  1  0.00842585  0.76266284  0.45608677  1  -1.271124  0  -0.370625  -0.435683  0  3.467403  0
N  N172  1  0.95053760  0.76499479  0.59144649  1  -1.30318  0  -0.58327  -0.665393  0  3.297251  0
N  N173  1  0.74305001  0.17976590  0.49481484  1  -1.275385  0  -0.588441  -0.647552  0  3.297128  0
N  N174  1  0.77481254  0.53221509  0.57907295  1  -1.21623  0  -0.375787  -0.523839  0  3.343141  0
N  N175  1  0.62119450  0.46655056  0.54749182  1  -0.833515  0  -0.299944  -0.331568  0  3.464315  0
N  N176  1  0.62796611  0.55622665  0.51044535  1  -0.847202  0  -0.293181  -0.334602  0  3.466775  0
N  N177  1  0.73158196  0.37652566  0.63336390  1  -1.26875  0  -0.590443  -0.668524  0  3.252822  0
N  N178  1  0.48126990  0.10424210  0.55836939  1  -0.81474  0  -0.273587  -0.208435  0  3.577301  0
N  N179  1  0.50685853  0.12262281  0.48035733  1  -0.780454  0  -0.281731  -0.325914  0  3.394589  0
N  N180  1  0.49157457  0.26266173  0.54391358  1  -1.271103  0  -0.370623  -0.435662  0  3.46739  0
N  N181  1  0.54946262  0.26499349  0.40855299  1  -1.30319  0  -0.583309  -0.665458  0  3.297235  0
N  N182  1  0.75695094  0.67976711  0.50518641  1  -1.27526  0  -0.588405  -0.647502  0  3.297146  0
N  N183  1  0.22518650  0.96778733  0.07907227  1  -1.21626  0  -0.37578  -0.523854  0  3.343167  0
N  N184  1  0.37880589  0.03345159  0.04749047  1  -0.834271  0  -0.299964  -0.331568  0  3.464193  0
N  N185  1  0.37203222  0.94377505  0.01044460  1  -0.847003  0  -0.293168  -0.334619  0  3.466715  0
N  N186  1  0.26841757  0.12347721  0.13336143  1  -1.269156  0  -0.590488  -0.668657  0  3.252884  0
N  N187  1  0.51872971  0.39575789  0.05836973  1  -0.814718  0  -0.27351  -0.208285  0  3.577148  0
N  N188  1  0.49314143  0.37737719  0.98035758  1  -0.780455  0  -0.281789  -0.326024  0  3.394611  0
N  N189  1  0.50842582  0.23733754  0.04391333  1  -1.271122  0  -0.370667  -0.4358  0  3.467406  0
N  N190  1  0.45053742  0.23500651  0.90855326  1  -1.303156  0  -0.583296  -0.665409  0  3.297298  0
N  N191  1  0.24304896  0.82023530  0.00518454  1  -1.275361  0  -0.588402  -0.647501  0  3.297088  0
O  O192  1  0.99584567  0.35850965  0.18650875  1  -1.182902  0  -0.300198  -0.49734  0  2.368911  0
O  O193  1  0.07047739  0.53181721  0.14361159  1  -1.165102  0  -0.307657  -0.511073  0  2.294714  0
O  O194  1  0.01250514  0.39599946  0.31371176  1  -1.175182  0  -0.303318  -0.489539  0  2.419391  0
O  O195  1  0.09658645  0.56855850  0.27280276  1  -1.188088  0  -0.310028  -0.530541  0  2.265896  0
O  O196  1  0.00415459  0.14148962  0.68650869  1  -1.182908  0  -0.300199  -0.497305  0  2.36888  0
O  O197  1  0.92952159  0.96818306  0.64361336  1  -1.165045  0  -0.3076  -0.51098  0  2.294736  0
O  O198  1  0.98749889  0.10399982  0.81371172  1  -1.175232  0  -0.303361  -0.489568  0  2.41939  0
O  O199  1  0.90341318  0.93144177  0.77280336  1  -1.188112  0  -0.310061  -0.530547  0  2.265927  0
O  O200  1  0.49584500  0.64148949  0.31349107  1  -1.182912  0  -0.300186  -0.497361  0  2.368951  0
O  O201  1  0.57047872  0.46818320  0.35638671  1  -1.165048  0  -0.307576  -0.510982  0  2.294767  0
O  O202  1  0.51250047  0.60400021  0.18628835  1  -1.175223  0  -0.303352  -0.489554  0  2.419375  0
O  O203  1  0.59658634  0.43144192  0.22719730  1  -1.188104  0  -0.310039  -0.530514  0  2.265951  0
O  O204  1  0.50415303  0.85851149  0.81349132  1  -1.182869  0  -0.300142  -0.497298  0  2.368959  0
O  O205  1  0.42952215  0.03181823  0.85638876  1  -1.165128  0  -0.307642  -0.511059  0  2.294734  0
O  O206  1  0.48749223  0.89600077  0.68628801  1  -1.175158  0  -0.3033  -0.48954  0  2.419427  0
O  O207  1  0.40341466  0.06856095  0.72719818  1  -1.187928  0  -0.309936  -0.530397  0  2.265868  0
O  O208  1  0.00415308  0.64149012  0.81349087  1  -1.182894  0  -0.300159  -0.497272  0  2.368926  0
O  O209  1  0.92952137  0.46818328  0.85638685  1  -1.165035  0  -0.307573  -0.51099  0  2.294713  0
O  O210  1  0.98749439  0.60400103  0.68628727  1  -1.175207  0  -0.303318  -0.489564  0  2.419397  0
O  O211  1  0.90341386  0.43144199  0.72719627  1  -1.188124  0  -0.310018  -0.530483  0  2.266026  0
O  O212  1  0.99584651  0.85851087  0.31349093  1  -1.182875  0  -0.300151  -0.497312  0  2.36892  0
O  O213  1  0.07048184  0.03181743  0.35638567  1  -1.164997  0  -0.307545  -0.510964  0  2.294711  0
O  O214  1  0.01250143  0.89599995  0.18628731  1  -1.175241  0  -0.303351  -0.489566  0  2.419407  0
O  O215  1  0.09658714  0.06855872  0.22719508  1  -1.18817  0  -0.310003  -0.530482  0  2.265912  0
O  O216  1  0.50415375  0.35851028  0.68650914  1  -1.183038  0  -0.300169  -0.497297  0  2.368904  0
O  O217  1  0.42951770  0.53181657  0.64361468  1  -1.164971  0  -0.307534  -0.510969  0  2.29471  0
O  O218  1  0.48749906  0.39599884  0.81371245  1  -1.175264  0  -0.303387  -0.489626  0  2.41939  0
O  O219  1  0.40341397  0.56855641  0.77280586  1  -1.188177  0  -0.31002  -0.530537  0  2.265954  0
O  O220  1  0.49584806  0.14148900  0.18650948  1  -1.182853  0  -0.300152  -0.497306  0  2.368978  0
O  O221  1  0.57047895  0.96818154  0.14361322  1  -1.165047  0  -0.307577  -0.510987  0  2.294697  0
O  O222  1  0.51250730  0.10400044  0.31371279  1  -1.175192  0  -0.303347  -0.489617  0  2.41942  0
O  O223  1  0.59658721  0.93144026  0.27280380  1  -1.187943  0  -0.309981  -0.530492  0  2.265919  0
