# generated using pymatgen
data_Zn2H20C41Br2(NO3)6
_symmetry_space_group_name_H-M   'P 1'
_cell_length_a   10.93426151
_cell_length_b   15.86509876
_cell_length_c   17.10333093
_cell_angle_alpha   87.06193370
_cell_angle_beta   86.37170183
_cell_angle_gamma   87.70573112
_symmetry_Int_Tables_number   1
_chemical_formula_structural   Zn2H20C41Br2(NO3)6
_chemical_formula_sum   'Zn2 H20 C41 Br2 N6 O18'
_cell_volume   2955.11423040
_cell_formula_units_Z   1
loop_
 _symmetry_equiv_pos_site_id
 _symmetry_equiv_pos_as_xyz
  1  'x, y, z'
loop_
 _atom_site_type_symbol
 _atom_site_label
 _atom_site_symmetry_multiplicity
 _atom_site_fract_x
 _atom_site_fract_y
 _atom_site_fract_z
 _atom_site_occupancy
 _atom_site_pbe_bader_charge
 _atom_site_pbe_bader_spin_density
 _atom_site_pbe_cm5_charge
 _atom_site_pbe_ddec_charge
 _atom_site_pbe_ddec_spin_density
 _atom_site_pbe_ddec_sum_bond_order
 _atom_site_pbe_magmom
Zn  Zn0  1  0.47991346  0.58992392  0.49886636  1  1.282357  0  0.675437  0.826257  0  2.419927  0
Zn  Zn1  1  0.50609879  0.41368005  0.49090166  1  1.288468  0  0.669098  0.831874  0  2.385065  0
H  H2  1  0.42073323  0.65907225  0.24995282  1  0.094828  0  0.10737  0.112508  0  0.989227  0
H  H3  1  0.41552394  0.39233607  0.10839802  1  0.10558  0  0.104522  0.105304  0  1.017434  0
H  H4  1  0.31551491  0.36707563  0.88605029  1  0.0861  0  0.111317  0.118875  0  0.992746  0
H  H5  1  0.43882836  0.38821643  0.25397308  1  0.127323  0  0.105777  0.113335  0  0.991391  0
H  H6  1  0.54480377  0.73064443  0.39037148  1  0.177555  0  0.140846  0.128167  0  0.972386  0
H  H7  1  0.38501020  0.71728733  0.61687682  1  0.172062  0  0.140954  0.125052  0  0.962148  0
H  H8  1  0.36725834  0.11822870  0.55268094  1  0.11771  0  0.122622  0.132713  0  0.9926  0
H  H9  1  0.36638821  0.27840923  0.54320898  1  0.151617  0  0.131604  0.117858  0  0.996451  0
H  H10  1  0.93373951  0.47330165  0.21930904  1  0.069441  0  0.106696  0.109621  0  0.990422  0
H  H11  1  0.14709985  0.41761792  0.23747456  1  0.075702  0  0.102614  0.103956  0  1.000571  0
H  H12  1  0.23607130  0.42713124  0.36631631  1  0.125979  0  0.105775  0.113986  0  1.026122  0
H  H13  1  0.08707744  0.51140942  0.61948919  1  0.12239  0  0.111289  0.132808  0  0.986466  0
H  H14  1  0.56338376  0.59177541  0.74867789  1  0.093817  0  0.105634  0.113754  0  0.993113  0
H  H15  1  0.52925557  0.58741400  0.89553212  1  0.120973  0  0.109854  0.112522  0  1.003486  0
H  H16  1  0.39937112  0.66363442  0.10371107  1  0.083878  0  0.108145  0.110086  0  0.992765  0
H  H17  1  0.27182383  0.24851907  0.72656956  1  0.606212  0  0.340489  0.373945  0  0.863132  0
H  H18  1  0.65064712  0.89079023  0.27335612  1  0.626525  0  0.356845  0.393531  0  0.83134  0
H  H19  1  0.83244354  0.35668397  0.35536495  1  0.62242  0  0.32291  0.355769  0  0.918235  0
H  H20  1  0.71474119  0.45608201  0.27919517  1  0.602911  0  0.33002  0.366743  0  0.893312  0
H  H21  1  0.36253381  0.97319238  0.71079696  1  0.636498  0  0.354445  0.392057  0  0.837769  0
C  C22  1  0.46089787  0.51886933  0.34458133  1  1.57633  0  0.213276  0.58287  0  4.194071  0
C  C23  1  0.94177315  0.50023787  0.41709714  1  0.037176  0  0.006534  0.059182  0  3.923572  0
C  C24  1  0.86617748  0.51870681  0.48578138  1  0.146282  0  -0.014071  -0.110841  0  3.907919  0
C  C25  1  0.92005235  0.51971758  0.55685471  1  -0.11995  0  -0.005386  0.103238  0  3.950928  0
C  C26  1  0.04700573  0.50611199  0.56332865  1  -0.028289  0  -0.084619  -0.143727  0  3.967347  0
C  C27  1  0.12000319  0.48382495  0.49849236  1  0.004711  0  0.000554  -0.02994  0  3.90438  0
C  C28  1  0.43247957  0.52341653  0.25989116  1  0.012594  0  -0.009586  -0.018808  0  3.94488  0
C  C29  1  0.42809077  0.44803726  0.22041294  1  -0.045567  0  -0.083922  -0.08589  0  3.978339  0
C  C30  1  0.41516623  0.45005393  0.14030683  1  -0.08456  0  -0.086321  -0.14672  0  3.963718  0
C  C31  1  0.40714086  0.52846923  0.09811871  1  0.386596  0  0.086163  0.168455  0  4.05086  0
C  C32  1  0.40626806  0.60386799  0.13789159  1  -0.004907  0  -0.077504  -0.137012  0  3.949384  0
C  C33  1  0.72825434  0.52231468  0.48474591  1  1.580641  0  0.211569  0.600684  0  4.204157  0
C  C34  1  0.41804802  0.60127412  0.21849128  1  -0.067682  0  -0.077832  -0.073853  0  3.957671  0
C  C35  1  0.48942612  0.54128196  0.86053701  1  0.009915  0  -0.076725  -0.130028  0  3.939403  0
C  C36  1  0.50808752  0.54339513  0.77953359  1  -0.007435  0  -0.078862  -0.079618  0  3.970291  0
C  C37  1  0.41848886  0.47778076  0.89888047  1  0.358931  0  0.088878  0.173105  0  4.060477  0
C  C38  1  0.45642853  0.48367939  0.73495073  1  -0.029281  0  0.001487  -0.024961  0  3.895143  0
C  C39  1  0.38569546  0.41994014  0.77349245  1  -0.009577  0  -0.004988  -0.035717  0  3.942734  0
C  C40  1  0.36958527  0.41615720  0.85527798  1  -0.042489  0  -0.071983  -0.155305  0  3.904065  0
C  C41  1  0.44482088  0.23972858  0.52160790  1  0.424072  0  0.060202  0.107771  0  3.887885  0
C  C42  1  0.44481427  0.15245278  0.52593071  1  0.102171  0  -0.063325  -0.163463  0  3.913853  0
C  C43  1  0.54714053  0.10707201  0.49455347  1  0.40805  0  0.106322  0.16297  0  4.010764  0
C  C44  1  0.48071309  0.49014271  0.64757049  1  1.576793  0  0.215627  0.591273  0  4.190913  0
C  C45  1  0.64730590  0.15160153  0.46112947  1  -0.102152  0  0.007771  -0.0058  0  3.87494  0
C  C46  1  0.64193947  0.24021553  0.46057649  1  0.620256  0  0.133477  0.09951  0  3.880828  0
C  C47  1  0.50750784  0.85332236  0.43909635  1  0.068978  0  0.005089  -0.139295  0  3.900023  0
C  C48  1  0.50764013  0.76538048  0.44052687  1  0.504852  0  0.089143  0.128222  0  3.819426  0
C  C49  1  0.46214338  0.89439658  0.50695243  1  0.423657  0  0.138062  0.184544  0  3.978383  0
C  C50  1  0.41812104  0.75749863  0.56694553  1  0.534222  0  0.090494  0.127046  0  3.838415  0
C  C51  1  0.41641897  0.84513645  0.57252069  1  0.050473  0  -0.000137  -0.150266  0  3.910939  0
C  C52  1  0.25668197  0.47802804  0.50407943  1  1.602024  0  0.22368  0.613877  0  4.15561  0
C  C53  1  0.89660795  0.50209033  0.33997787  1  -0.107465  0  -0.026306  -0.137078  0  4.013544  0
C  C54  1  0.96928951  0.47010103  0.27767506  1  -0.063575  0  -0.092604  -0.121161  0  4.028745  0
C  C55  1  0.09107391  0.44085297  0.28737604  1  -0.027997  0  -0.097871  -0.086488  0  4.046854  0
C  C56  1  0.14068601  0.44665010  0.35887267  1  -0.063934  0  -0.079265  -0.104286  0  3.939493  0
C  C57  1  0.06859728  0.47611100  0.42466718  1  0.032958  0  0.003161  0.058089  0  3.942297  0
C  C58  1  0.31467215  0.36200933  0.72911024  1  1.52638  0  0.233928  0.586998  0  4.114386  0
C  C59  1  0.54529259  0.90140191  0.36457826  1  1.542306  0  0.232067  0.577825  0  4.158275  0
C  C60  1  0.75709885  0.28732245  0.43566529  1  1.570062  0  0.234774  0.562782  0  4.142103  0
C  C61  1  0.78617957  0.55473424  0.31717583  1  1.499514  0  0.225273  0.575034  0  4.115734  0
C  C62  1  0.36987175  0.87774165  0.64946528  1  1.508801  0  0.235881  0.586481  0  4.133188  0
Br  Br63  1  0.82314925  0.53652653  0.65173283  1  -0.06229  0  0.022118  -0.060451  0  1.386307  0
Br  Br64  1  0.78457833  0.09366740  0.41422864  1  0.030257  0  0.072052  -0.000694  0  1.404579  0
N  N65  1  0.41027108  0.53741317  0.01557361  1  -0.535434  0  -0.148741  -0.137278  0  3.289214  0
N  N66  1  0.39749582  0.46968158  0.98107475  1  -0.457616  0  -0.150925  -0.139466  0  3.278867  0
N  N67  1  0.54126603  0.28279877  0.48921862  1  -1.197915  0  -0.293923  -0.189817  0  3.428685  0
N  N68  1  0.55716414  0.01772984  0.49837517  1  -0.395544  0  -0.113817  -0.082031  0  3.234663  0
N  N69  1  0.45589715  0.98284164  0.50607417  1  -0.472675  0  -0.100156  -0.045765  0  3.276469  0
N  N70  1  0.46233192  0.71895971  0.50277904  1  -1.245787  0  -0.311852  -0.187185  0  3.502566  0
O  O71  1  0.46266511  0.58758497  0.37978069  1  -1.161545  0  -0.312898  -0.543582  0  2.334545  0
O  O72  1  0.48267385  0.44506834  0.37486866  1  -1.168348  0  -0.321875  -0.561909  0  2.369823  0
O  O73  1  0.66909527  0.59157275  0.49202708  1  -1.147176  0  -0.304047  -0.520953  0  2.335721  0
O  O74  1  0.68292762  0.45046947  0.47765336  1  -1.161127  0  -0.312933  -0.55285  0  2.384305  0
O  O75  1  0.48596060  0.56494825  0.61744775  1  -1.161462  0  -0.312532  -0.544092  0  2.347909  0
O  O76  1  0.49558202  0.42204467  0.61137757  1  -1.154298  0  -0.314704  -0.547493  0  2.324587  0
O  O77  1  0.30313464  0.54867909  0.51341418  1  -1.156767  0  -0.313205  -0.542944  0  2.307439  0
O  O78  1  0.31416984  0.40748883  0.49687921  1  -1.159981  0  -0.30895  -0.540756  0  2.311787  0
O  O79  1  0.24521637  0.38427750  0.67831458  1  -1.128501  0  -0.27934  -0.472583  0  2.115086  0
O  O80  1  0.32886246  0.27949439  0.75537811  1  -1.116137  0  -0.345636  -0.492071  0  2.191767  0
O  O81  1  0.49950056  0.96911906  0.34224921  1  -1.122282  0  -0.292318  -0.48136  0  2.07552  0
O  O82  1  0.63393543  0.85795337  0.32271942  1  -1.101728  0  -0.317954  -0.460339  0  2.216665  0
O  O83  1  0.84206207  0.28631396  0.47813967  1  -1.066424  0  -0.263378  -0.429975  0  2.06925  0
O  O84  1  0.75623344  0.32490951  0.36312314  1  -1.128245  0  -0.331403  -0.469916  0  2.274321  0
O  O85  1  0.77238828  0.62930758  0.32995492  1  -1.089883  0  -0.274239  -0.430356  0  2.059532  0
O  O86  1  0.70646984  0.51756876  0.27236353  1  -1.098697  0  -0.333873  -0.474255  0  2.275751  0
O  O87  1  0.31582976  0.83493613  0.70079720  1  -1.111622  0  -0.282062  -0.469496  0  2.041935  0
O  O88  1  0.39551337  0.96008981  0.65794273  1  -1.123001  0  -0.329774  -0.482802  0  2.238694  0
