# generated using pymatgen
data_Zn2H20C31N4O9
_symmetry_space_group_name_H-M   'P 1'
_cell_length_a   4.76842803
_cell_length_b   11.70392791
_cell_length_c   26.42386017
_cell_angle_alpha   96.52650195
_cell_angle_beta   89.99992509
_cell_angle_gamma   90.00022793
_symmetry_Int_Tables_number   1
_chemical_formula_structural   Zn2H20C31N4O9
_chemical_formula_sum   'Zn4 H40 C62 N8 O18'
_cell_volume   1465.14119304
_cell_formula_units_Z   2
loop_
 _symmetry_equiv_pos_site_id
 _symmetry_equiv_pos_as_xyz
  1  'x, y, z'
loop_
 _atom_site_type_symbol
 _atom_site_label
 _atom_site_symmetry_multiplicity
 _atom_site_fract_x
 _atom_site_fract_y
 _atom_site_fract_z
 _atom_site_occupancy
 _atom_site_hle17_bader_spin_density
 _atom_site_hle17_ddec_charge
 _atom_site_hle17_ddec_spin_density
 _atom_site_hle17_ddec_sum_bond_order
 _atom_site_hle17_magmom
 _atom_site_hse06_10hf_bader_spin_density
 _atom_site_hse06_10hf_ddec_charge
 _atom_site_hse06_10hf_ddec_spin_density
 _atom_site_hse06_10hf_ddec_sum_bond_order
 _atom_site_hse06_10hf_magmom
 _atom_site_hse06_bader_spin_density
 _atom_site_hse06_ddec_charge
 _atom_site_hse06_ddec_spin_density
 _atom_site_hse06_ddec_sum_bond_order
 _atom_site_hse06_magmom
 _atom_site_pbe_bader_spin_density
 _atom_site_pbe_cm5_charge
 _atom_site_pbe_ddec_charge
 _atom_site_pbe_ddec_spin_density
 _atom_site_pbe_ddec_sum_bond_order
 _atom_site_pbe_magmom
Zn  Zn0  1  0.28978577  0.09848323  0.55003963  1  0  1.116218  0  1.750926  0  0  0.933212  0  2.221266  0  0  0.983037  0  2.162792  0  0  0.711475  0.898301  0  2.261512  0
Zn  Zn1  1  0.78977874  0.90151283  0.44996039  1  0  1.116161  0  1.750926  0  0  0.933143  0  2.221266  0  0  0.982971  0  2.162792  0  0  0.711357  0.898171  0  2.261498  0
Zn  Zn2  1  0.27366294  0.82285883  0.97095686  1  0  1.112462  0  1.777824  0  0  0.932094  0  2.254747  0  0  0.980781  0  2.193605  0  0  0.710505  0.897911  0  2.296962  0
Zn  Zn3  1  0.77367082  0.17714235  0.02904418  1  0  1.112493  0  1.777789  0  0  0.932089  0  2.254773  0  0  0.980783  0  2.193631  0  0  0.710508  0.897932  0  2.296978  0
H  H4  1  0.80936079  0.26424393  0.42474778  1  0  0.106499  0  0.93336  0  0  0.117657  0  0.989328  0  0  0.121967  0  0.986866  0  0  0.106303  0.114547  0  0.991255  0
H  H5  1  0.30936757  0.73575819  0.57525027  1  0  0.106378  0  0.933425  0  0  0.117583  0  0.989348  0  0  0.121904  0  0.986874  0  0  0.106238  0.114474  0  0.991253  0
H  H6  1  0.93477367  0.29657023  0.33566641  1  0  0.096768  0  0.940155  0  0  0.106172  0  1.000746  0  0  0.110254  0  0.997557  0  0  0.104243  0.103171  0  1.003144  0
H  H7  1  0.43479207  0.70343294  0.66433318  1  0  0.096765  0  0.940124  0  0  0.106141  0  1.000744  0  0  0.110257  0  0.997516  0  0  0.104247  0.103151  0  1.003133  0
H  H8  1  0.34423416  0.03316619  0.27944520  1  0  0.101622  0  0.968066  0  0  0.109188  0  1.033519  0  0  0.112509  0  1.031773  0  0  0.106644  0.106784  0  1.03481  0
H  H9  1  0.84423835  0.96682823  0.72055509  1  0  0.101633  0  0.968144  0  0  0.109184  0  1.033607  0  0  0.112506  0  1.031859  0  0  0.106646  0.10679  0  1.034903  0
H  H10  1  0.78788189  0.95551498  0.23845850  1  0  0.10473  0  0.94724  0  0  0.114611  0  1.00834  0  0  0.118268  0  1.006061  0  0  0.104598  0.111979  0  1.010005  0
H  H11  1  0.28788472  0.04448709  0.76154221  1  0  0.10478  0  0.947208  0  0  0.114659  0  1.008308  0  0  0.118316  0  1.006029  0  0  0.104639  0.112034  0  1.010006  0
H  H12  1  0.63134143  0.81767230  0.16450151  1  0  0.088565  0  0.985077  0  0  0.095781  0  1.056045  0  0  0.098833  0  1.054738  0  0  0.100981  0.093571  0  1.057082  0
H  H13  1  0.13133667  0.18233125  0.83549930  1  0  0.088569  0  0.985098  0  0  0.095786  0  1.056059  0  0  0.09884  0  1.054751  0  0  0.100957  0.093572  0  1.057106  0
H  H14  1  0.45864435  0.23481489  0.16346759  1  0  0.094775  0  0.948463  0  0  0.104376  0  1.014161  0  0  0.107677  0  1.012137  0  0  0.102797  0.101989  0  1.01576  0
H  H15  1  0.95864571  0.76518488  0.83653295  1  0  0.094718  0  0.948503  0  0  0.104313  0  1.014219  0  0  0.107611  0  1.012193  0  0  0.102784  0.101913  0  1.015806  0
H  H16  1  0.35479485  0.23076526  0.66027313  1  0  0.11495  0  0.984631  0  0  0.118682  0  1.054681  0  0  0.122979  0  1.049621  0  0  0.133789  0.115491  0  1.058354  0
H  H17  1  0.85479993  0.76923606  0.33972714  1  0  0.114966  0  0.984626  0  0  0.118696  0  1.054682  0  0  0.122995  0  1.04962  0  0  0.133773  0.115493  0  1.058358  0
H  H18  1  0.80301247  0.28890332  0.54092177  1  0  0.1122  0  0.937478  0  0  0.125314  0  0.990225  0  0  0.127918  0  0.988717  0  0  0.124808  0.123364  0  0.991498  0
H  H19  1  0.30299681  0.71108933  0.45907579  1  0  0.112115  0  0.937496  0  0  0.125219  0  0.990269  0  0  0.127822  0  0.988764  0  0  0.124743  0.123268  0  0.99157  0
H  H20  1  0.75432408  0.47181431  0.61790832  1  0  0.118578  0  0.937743  0  0  0.134596  0  0.986142  0  0  0.137134  0  0.98546  0  0  0.127694  0.132749  0  0.986737  0
H  H21  1  0.25431978  0.52817827  0.38208887  1  0  0.118682  0  0.937709  0  0  0.134688  0  0.986117  0  0  0.137226  0  0.985434  0  0  0.127724  0.132838  0  0.986744  0
H  H22  1  0.12922713  0.53632495  0.69337473  1  0  0.089055  0  0.924804  0  0  0.101714  0  0.990531  0  0  0.10287  0  0.988919  0  0  0.113931  0.100759  0  0.991803  0
H  H23  1  0.62922317  0.46367604  0.30662217  1  0  0.089134  0  0.924785  0  0  0.101769  0  0.990558  0  0  0.102932  0  0.988934  0  0  0.113924  0.100808  0  0.991837  0
H  H24  1  0.32995512  0.42374822  0.71406744  1  0  0.087153  0  0.945753  0  0  0.099931  0  1.013164  0  0  0.099451  0  1.015874  0  0  0.114067  0.100254  0  1.011224  0
H  H25  1  0.82996081  0.57625134  0.28593237  1  0  0.087164  0  0.945818  0  0  0.099953  0  1.013206  0  0  0.099472  0  1.015917  0  0  0.114038  0.100269  0  1.011257  0
H  H26  1  0.90162895  0.24420393  0.73046473  1  0  0.103314  0  0.948413  0  0  0.115836  0  1.006122  0  0  0.118495  0  1.00516  0  0  0.104009  0.113854  0  1.006977  0
H  H27  1  0.40163401  0.75580005  0.26953491  1  0  0.10334  0  0.948348  0  0  0.115855  0  1.006069  0  0  0.118516  0  1.0051  0  0  0.104019  0.113869  0  1.006903  0
H  H28  1  0.58499804  0.22561512  0.80265768  1  0  0.097466  0  0.954454  0  0  0.11143  0  1.011565  0  0  0.113229  0  1.011918  0  0  0.104915  0.110094  0  1.011456  0
H  H29  1  0.08499753  0.77438491  0.19734297  1  0  0.097468  0  0.954454  0  0  0.111411  0  1.011579  0  0  0.113203  0  1.011953  0  0  0.104909  0.110075  0  1.011473  0
H  H30  1  0.52249068  0.59519282  0.83085000  1  0  0.096274  0  0.961238  0  0  0.105974  0  1.0247  0  0  0.109118  0  1.022692  0  0  0.100979  0.103669  0  1.026259  0
H  H31  1  0.02249304  0.40480969  0.16915042  1  0  0.096302  0  0.961217  0  0  0.106007  0  1.024672  0  0  0.10915  0  1.022667  0  0  0.101007  0.103707  0  1.026257  0
H  H32  1  0.85013779  0.61359803  0.76052692  1  0  0.098806  0  0.963034  0  0  0.109775  0  1.023171  0  0  0.112045  0  1.02264  0  0  0.101089  0.108143  0  1.023651  0
H  H33  1  0.35013945  0.38640501  0.23947306  1  0  0.098828  0  0.963052  0  0  0.109775  0  1.023205  0  0  0.112038  0  1.022685  0  0  0.101071  0.108141  0  1.023687  0
H  H34  1  0.11480601  0.39837558  0.85366036  1  0  0.092773  0  0.933327  0  0  0.105297  0  1.000623  0  0  0.105433  0  1.002045  0  0  0.114535  0.105164  0  0.999734  0
H  H35  1  0.61480879  0.60162450  0.14633953  1  0  0.092811  0  0.933293  0  0  0.105327  0  1.000569  0  0  0.105461  0  1.001989  0  0  0.114558  0.105194  0  0.999687  0
H  H36  1  0.36710247  0.31283875  0.88079929  1  0  0.105277  0  0.920704  0  0  0.118576  0  0.981724  0  0  0.119905  0  0.980485  0  0  0.120972  0.117524  0  0.982784  0
H  H37  1  0.86710839  0.68716086  0.11920089  1  0  0.105279  0  0.920753  0  0  0.118573  0  0.981739  0  0  0.119904  0  0.980501  0  0  0.120995  0.117523  0  0.982798  0
H  H38  1  0.05895201  0.60903021  0.89275957  1  0  0.095454  0  0.941924  0  0  0.10279  0  1.01014  0  0  0.104801  0  1.008211  0  0  0.135962  0.10136  0  1.011347  0
H  H39  1  0.55895302  0.39096548  0.10724123  1  0  0.095436  0  0.94183  0  0  0.102786  0  1.010047  0  0  0.104799  0  1.008118  0  0  0.13596  0.10137  0  1.011253  0
H  H40  1  0.69857501  0.63026812  0.00368764  1  0  0.112137  0  0.951792  0  0  0.121506  0  1.010805  0  0  0.12412  0  1.009665  0  0  0.121537  0.119489  0  1.011918  0
H  H41  1  0.19858557  0.36973466  0.99631425  1  0  0.112101  0  0.951876  0  0  0.121492  0  1.010853  0  0  0.124091  0  1.009733  0  0  0.121555  0.119477  0  1.011958  0
H  H42  1  0.72346545  0.41383848  0.94506040  1  0  0.138437  0  0.982508  0  0  0.142468  0  1.051591  0  0  0.146376  0  1.04875  0  0  0.122416  0.139609  0  1.05377  0
H  H43  1  0.22346625  0.58616177  0.05494098  1  0  0.138364  0  0.982571  0  0  0.142389  0  1.051671  0  0  0.146295  0  1.04883  0  0  0.122389  0.139532  0  1.053836  0
C  C44  1  0.44032219  0.11666139  0.45570558  1  0  0.685078  0  3.86499  0  0  0.627651  0  4.160777  0  0  0.664023  0  4.150112  0  0  0.218764  0.602738  0  4.16739  0
C  C45  1  0.94031429  0.88334093  0.54429359  1  0  0.684815  0  3.865207  0  0  0.627372  0  4.161101  0  0  0.663737  0  4.150451  0  0  0.218635  0.602433  0  4.167716  0
C  C46  1  0.50321741  0.13248279  0.40138516  1  0  -0.029305  0  3.684468  0  0  -0.017203  0  3.919653  0  0  -0.018052  0  3.93737  0  0  0.005246  -0.016618  0  3.907826  0
C  C47  1  0.00320015  0.86752141  0.59861572  1  0  -0.02905  0  3.684166  0  0  -0.017119  0  3.919624  0  0  -0.017971  0  3.937364  0  0  0.005328  -0.016521  0  3.907808  0
C  C48  1  0.70441623  0.21577431  0.39245334  1  0  -0.086765  0  3.725831  0  0  -0.109087  0  3.97925  0  0  -0.11284  0  3.998444  0  0  -0.084852  -0.106739  0  3.96641  0
C  C49  1  0.20441277  0.78423107  0.60754756  1  0  -0.086771  0  3.725419  0  0  -0.109061  0  3.978884  0  0  -0.112827  0  3.998095  0  0  -0.084759  -0.106695  0  3.966009  0
C  C50  1  0.77652831  0.23315803  0.34297573  1  0  -0.060689  0  3.732048  0  0  -0.086395  0  3.989227  0  0  -0.084718  0  4.007941  0  0  -0.078972  -0.087204  0  3.976446  0
C  C51  1  0.27653060  0.76684746  0.65702667  1  0  -0.060612  0  3.731882  0  0  -0.086317  0  3.989084  0  0  -0.084668  0  4.007792  0  0  -0.078997  -0.087132  0  3.97631  0
C  C52  1  0.64939191  0.16744414  0.30129326  1  0  -0.043533  0  3.776244  0  0  -0.027248  0  4.014573  0  0  -0.035006  0  4.039308  0  0  -0.021002  -0.022171  0  3.997767  0
C  C53  1  0.14939453  0.83256029  0.69870911  1  0  -0.043715  0  3.776554  0  0  -0.027407  0  4.014865  0  0  -0.03517  0  4.039604  0  0  -0.021062  -0.022317  0  3.998073  0
C  C54  1  0.45059849  0.08457852  0.31058203  1  0  -0.065539  0  3.710917  0  0  -0.099527  0  3.959442  0  0  -0.0983  0  3.979977  0  0  -0.070339  -0.100019  0  3.945359  0
C  C55  1  0.95059612  0.91541864  0.68942027  1  0  -0.065386  0  3.710997  0  0  -0.099352  0  3.959458  0  0  -0.098119  0  3.979979  0  0  -0.070248  -0.099846  0  3.945399  0
C  C56  1  0.37659060  0.06576636  0.35998690  1  0  -0.080045  0  3.725118  0  0  -0.064466  0  3.960427  0  0  -0.072576  0  3.982873  0  0  -0.013256  -0.059407  0  3.945485  0
C  C57  1  0.87658039  0.93423325  0.64001668  1  0  -0.080139  0  3.725137  0  0  -0.064512  0  3.960497  0  0  -0.072621  0  3.982943  0  0  -0.013274  -0.059459  0  3.945591  0
C  C58  1  0.16092017  0.97433342  0.36672766  1  0  0.651152  0  3.935416  0  0  0.598714  0  4.23726  0  0  0.632308  0  4.231628  0  0  0.204157  0.575978  0  4.240225  0
C  C59  1  0.66091579  0.02566071  0.63327267  1  0  0.651177  0  3.9352  0  0  0.598727  0  4.237056  0  0  0.63232  0  4.231424  0  0  0.204175  0.576004  0  4.24005  0
C  C60  1  0.71623186  0.19094064  0.24849492  1  0  0.385826  0  3.729182  0  0  0.36841  0  3.98763  0  0  0.39044  0  3.989519  0  0  0.16165  0.353358  0  3.986225  0
C  C61  1  0.21623176  0.80905791  0.75150221  1  0  0.385983  0  3.729225  0  0  0.368546  0  3.987676  0  0  0.390587  0  3.989545  0  0  0.161696  0.353493  0  3.986278  0
C  C62  1  0.63141748  0.10439336  0.20541744  1  0  -0.016982  0  3.767439  0  0  0.00185  0  3.999814  0  0  -0.003015  0  4.022981  0  0  -0.014079  0.00494  0  3.98452  0
C  C63  1  0.13141581  0.89560332  0.79458037  1  0  -0.01703  0  3.767369  0  0  0.00182  0  3.999709  0  0  -0.003068  0  4.022908  0  0  -0.014123  0.004895  0  3.984431  0
C  C64  1  0.68082801  0.98625900  0.20605717  1  0  -0.093598  0  3.731817  0  0  -0.114836  0  3.979888  0  0  -0.116568  0  3.999897  0  0  -0.083989  -0.113565  0  3.96618  0
C  C65  1  0.18082820  0.01374031  0.79394417  1  0  -0.093651  0  3.731766  0  0  -0.114887  0  3.979818  0  0  -0.116616  0  3.999831  0  0  -0.084002  -0.113648  0  3.96619  0
C  C66  1  0.59582074  0.90953603  0.16484037  1  0  -0.068074  0  3.747594  0  0  -0.093211  0  4.002134  0  0  -0.094  0  4.022186  0  0  -0.083196  -0.092554  0  3.988537  0
C  C67  1  0.09581299  0.09046487  0.83516070  1  0  -0.068121  0  3.747617  0  0  -0.093257  0  4.002151  0  0  -0.094043  0  4.022195  0  0  -0.083218  -0.09261  0  3.988584  0
C  C68  1  0.45956444  0.94734719  0.12290020  1  0  -0.044048  0  3.685017  0  0  -0.03249  0  3.916076  0  0  -0.037169  0  3.935611  0  0  -0.002808  -0.029526  0  3.903043  0
C  C69  1  0.95955642  0.05265516  0.87710048  1  0  -0.043981  0  3.685028  0  0  -0.032416  0  3.916066  0  0  -0.037097  0  3.935608  0  0  -0.002774  -0.029447  0  3.903  0
C  C70  1  0.40783658  0.06546652  0.12255942  1  0  -0.039406  0  3.706351  0  0  -0.025416  0  3.942495  0  0  -0.028492  0  3.960365  0  0  0.00127  -0.023459  0  3.93053  0
C  C71  1  0.90782880  0.93453402  0.87744117  1  0  -0.039382  0  3.706291  0  0  -0.025415  0  3.94247  0  0  -0.028489  0  3.96034  0  0  0.001292  -0.02344  0  3.930423  0
C  C72  1  0.49715974  0.14295263  0.16340508  1  0  -0.081506  0  3.685145  0  0  -0.116246  0  3.936038  0  0  -0.11625  0  3.953813  0  0  -0.076341  -0.116146  0  3.92403  0
C  C73  1  0.99716200  0.85704805  0.83659513  1  0  -0.081424  0  3.685038  0  0  -0.116156  0  3.935939  0  0  -0.11615  0  3.953707  0  0  -0.07632  -0.116046  0  3.923886  0
C  C74  1  0.24799183  0.11239723  0.08044037  1  0  0.695963  0  3.86886  0  0  0.638772  0  4.165531  0  0  0.675169  0  4.155446  0  0  0.225245  0.613843  0  4.171824  0
C  C75  1  0.74798538  0.88760220  0.91955945  1  0  0.696015  0  3.868948  0  0  0.638863  0  4.165569  0  0  0.675256  0  4.155487  0  0  0.225244  0.613935  0  4.171829  0
C  C76  1  0.38422699  0.86153350  0.07804184  1  0  0.649179  0  3.926728  0  0  0.601909  0  4.216542  0  0  0.636037  0  4.208485  0  0  0.210489  0.578703  0  4.221302  0
C  C77  1  0.88422786  0.13846528  0.92195830  1  0  0.649066  0  3.927009  0  0  0.60181  0  4.21679  0  0  0.635939  0  4.208736  0  0  0.21042  0.578604  0  4.221541  0
C  C78  1  0.19968113  0.27274854  0.63823824  1  0  0.160548  0  3.642152  0  0  0.097551  0  3.907848  0  0  0.111536  0  3.919831  0  0  0.145043  0.088608  0  3.899431  0
C  C79  1  0.69968144  0.72724909  0.36176149  1  0  0.160579  0  3.642182  0  0  0.097569  0  3.907882  0  0  0.111555  0  3.919863  0  0  0.145086  0.088623  0  3.899433  0
C  C80  1  0.90861954  0.30457396  0.57734569  1  0  0.022118  0  3.74227  0  0  -0.012382  0  4.007046  0  0  -0.009242  0  4.026252  0  0  0.004746  -0.014566  0  3.994229  0
C  C81  1  0.40860400  0.69542058  0.42265195  1  0  0.022306  0  3.742297  0  0  -0.012186  0  4.007065  0  0  -0.009046  0  4.026269  0  0  0.004818  -0.014407  0  3.994337  0
C  C82  1  0.88325509  0.39517725  0.61488169  1  0  -0.078782  0  3.688669  0  0  -0.120173  0  3.945612  0  0  -0.120154  0  3.966029  0  0  -0.001954  -0.12011  0  3.931821  0
C  C83  1  0.38325152  0.60481725  0.38511595  1  0  -0.078873  0  3.688722  0  0  -0.12026  0  3.945656  0  0  -0.120242  0  3.96607  0  0  -0.001959  -0.120226  0  3.931945  0
C  C84  1  0.12038936  0.44604359  0.70086379  1  0  -0.039993  0  3.650092  0  0  -0.107939  0  3.902037  0  0  -0.103004  0  3.912122  0  0  -0.044695  -0.111025  0  3.89495  0
C  C85  1  0.62039683  0.55395738  0.29913501  1  0  -0.040221  0  3.650101  0  0  -0.108172  0  3.902141  0  0  -0.103241  0  3.912233  0  0  -0.044729  -0.111274  0  3.895051  0
C  C86  1  0.90513203  0.43099512  0.74141680  1  0  0.051871  0  3.771772  0  0  0.071081  0  4.014377  0  0  0.069734  0  4.039147  0  0  -0.019795  0.071949  0  3.99741  0
C  C87  1  0.40513953  0.56900973  0.25858175  1  0  0.052196  0  3.771514  0  0  0.071342  0  4.014225  0  0  0.069998  0  4.038991  0  0  -0.019664  0.072232  0  3.997202  0
C  C88  1  0.82347142  0.32179257  0.75286184  1  0  -0.114437  0  3.743926  0  0  -0.135092  0  3.992479  0  0  -0.137021  0  4.013434  0  0  -0.092728  -0.133706  0  3.978285  0
C  C89  1  0.32347798  0.67821043  0.24713663  1  0  -0.114505  0  3.743668  0  0  -0.135122  0  3.992229  0  0  -0.137048  0  4.013177  0  0  -0.092767  -0.133716  0  3.977969  0
C  C90  1  0.64040879  0.31110029  0.79323911  1  0  -0.110567  0  3.743373  0  0  -0.128552  0  3.988071  0  0  -0.131187  0  4.009457  0  0  -0.087597  -0.126742  0  3.973585  0
C  C91  1  0.14040737  0.68890156  0.20675972  1  0  -0.110585  0  3.743345  0  0  -0.128549  0  3.988033  0  0  -0.131184  0  4.009412  0  0  -0.087574  -0.126744  0  3.97355  0
C  C92  1  0.53354166  0.40878740  0.82251403  1  0  0.064459  0  3.75241  0  0  0.083215  0  3.993261  0  0  0.082901  0  4.017355  0  0  -0.012215  0.083477  0  3.976768  0
C  C93  1  0.03354369  0.59121514  0.17748562  1  0  0.064524  0  3.75259  0  0  0.083258  0  3.993419  0  0  0.082942  0  4.017512  0  0  -0.012221  0.083502  0  3.976965  0
C  C94  1  0.60980636  0.51749473  0.81005525  1  0  -0.115167  0  3.754889  0  0  -0.137291  0  4.006087  0  0  -0.13968  0  4.026877  0  0  -0.096138  -0.135606  0  3.991942  0
C  C95  1  0.10980724  0.48250879  0.18994368  1  0  -0.115302  0  3.75495  0  0  -0.137419  0  4.00615  0  0  -0.139809  0  4.026937  0  0  -0.096219  -0.135755  0  3.99207  0
C  C96  1  0.79377914  0.52833852  0.76990758  1  0  -0.109644  0  3.755042  0  0  -0.128776  0  4.001751  0  0  -0.130875  0  4.022964  0  0  -0.091929  -0.127253  0  3.987307  0
C  C97  1  0.29378171  0.47166444  0.23009165  1  0  -0.109791  0  3.75507  0  0  -0.128885  0  4.001813  0  0  -0.13098  0  4.023027  0  0  -0.091971  -0.127364  0  3.987371  0
C  C98  1  0.33457649  0.39557789  0.86603696  1  0  -0.044975  0  3.637084  0  0  -0.109877  0  3.882011  0  0  -0.105275  0  3.891451  0  0  -0.043347  -0.112987  0  3.87578  0
C  C99  1  0.83458568  0.60442425  0.13396450  1  0  -0.045075  0  3.637258  0  0  -0.109908  0  3.882096  0  0  -0.1053  0  3.891523  0  0  -0.043394  -0.11301  0  3.875865  0
C  C100  1  0.23715940  0.58762068  0.91532340  1  0  0.159945  0  3.672976  0  0  0.100769  0  3.938344  0  0  0.114183  0  3.9525  0  0  0.145073  0.092257  0  3.928201  0
C  C101  1  0.73717127  0.41237788  0.08467638  1  0  0.160003  0  3.672787  0  0  0.100818  0  3.938164  0  0  0.114226  0  3.952325  0  0  0.145093  0.092314  0  3.928031  0
C  C102  1  0.57123577  0.59363232  0.97205818  1  0  0.015633  0  3.742639  0  0  -0.019892  0  4.013349  0  0  -0.017706  0  4.0331  0  0  0.001251  -0.021393  0  4.000208  0
C  C103  1  0.07125178  0.40636941  0.02794293  1  0  0.015828  0  3.742564  0  0  -0.019683  0  4.013244  0  0  -0.017486  0  4.032995  0  0  0.001283  -0.021172  0  4.000081  0
C  C104  1  0.58771668  0.48798034  0.94377386  1  0  -0.075185  0  3.637866  0  0  -0.115173  0  3.898678  0  0  -0.114977  0  3.917707  0  0  0.000329  -0.11526  0  3.885911  0
C  C105  1  0.08773352  0.51201970  0.05622640  1  0  -0.075017  0  3.637737  0  0  -0.115015  0  3.898569  0  0  -0.114815  0  3.917589  0  0  0.000481  -0.11508  0  3.885769  0
N  N106  1  0.10615131  0.22903906  0.59248716  1  0  -0.399559  0  3.333881  0  0  -0.318678  0  3.63822  0  0  -0.340431  0  3.650261  0  0  -0.360865  -0.30398  0  3.629821  0
N  N107  1  0.60614332  0.77095671  0.40751251  1  0  -0.399665  0  3.333972  0  0  -0.318757  0  3.638301  0  0  -0.340513  0  3.650344  0  0  -0.360917  -0.304064  0  3.629889  0
N  N108  1  0.07035173  0.37390975  0.65282666  1  0  -0.054569  0  3.583938  0  0  0.039938  0  3.803212  0  0  0.024978  0  3.829644  0  0  -0.239252  0.049847  0  3.785086  0
N  N109  1  0.57035326  0.62608856  0.34717163  1  0  -0.054562  0  3.583959  0  0  0.039976  0  3.803215  0  0  0.025014  0  3.829649  0  0  -0.239292  0.049875  0  3.785081  0
N  N110  1  0.37400696  0.48577837  0.90820854  1  0  -0.050859  0  3.581497  0  0  0.042921  0  3.796101  0  0  0.028341  0  3.822417  0  0  -0.241217  0.052595  0  3.778147  0
N  N111  1  0.87401977  0.51422298  0.09179097  1  0  -0.050896  0  3.581372  0  0  0.042874  0  3.795975  0  0  0.028293  0  3.822291  0  0  -0.24121  0.052556  0  3.778018  0
N  N112  1  0.35204860  0.65477194  0.95400305  1  0  -0.405351  0  3.339946  0  0  -0.32693  0  3.644741  0  0  -0.347264  0  3.655985  0  0  -0.361485  -0.313192  0  3.636917  0
N  N113  1  0.85206429  0.34522765  0.04599676  1  0  -0.405611  0  3.339956  0  0  -0.327219  0  3.644826  0  0  -0.347549  0  3.656061  0  0  -0.361621  -0.313486  0  3.637021  0
O  O114  1  0.28380335  0.18703494  0.48254187  1  0  -0.612616  0  1.926023  0  0  -0.554646  0  2.167952  0  0  -0.582494  0  2.155407  0  0  -0.311827  -0.534984  0  2.175841  0
O  O115  1  0.78377189  0.81296624  0.51746143  1  0  -0.61249  0  1.925993  0  0  -0.554509  0  2.167956  0  0  -0.582357  0  2.155418  0  0  -0.311704  -0.534823  0  2.175819  0
O  O116  1  0.56781867  0.03820200  0.47693061  1  0  -0.641183  0  2.149984  0  0  -0.553408  0  2.430014  0  0  -0.585191  0  2.413456  0  0  -0.307104  -0.531216  0  2.440854  0
O  O117  1  0.06782596  0.96179627  0.52307108  1  0  -0.64114  0  2.150153  0  0  -0.553351  0  2.430218  0  0  -0.585127  0  2.413662  0  0  -0.307156  -0.531149  0  2.441059  0
O  O118  1  0.09343232  0.96956135  0.41383147  1  0  -0.673622  0  2.149741  0  0  -0.599837  0  2.44305  0  0  -0.630391  0  2.428441  0  0  -0.327335  -0.578344  0  2.452168  0
O  O119  1  0.59343883  0.03043869  0.58616993  1  0  -0.673628  0  2.149601  0  0  -0.59986  0  2.442949  0  0  -0.630414  0  2.42834  0  0  -0.327372  -0.578352  0  2.452081  0
O  O120  1  0.06955028  0.91274776  0.32860986  1  0  -0.598353  0  1.909964  0  0  -0.554906  0  2.129304  0  0  -0.57764  0  2.122163  0  0  -0.319956  -0.539028  0  2.133657  0
O  O121  1  0.56953783  0.08724537  0.67139044  1  0  -0.598406  0  1.909898  0  0  -0.554939  0  2.129242  0  0  -0.577674  0  2.122102  0  0  -0.319962  -0.539047  0  2.133609  0
O  O122  1  0.82858173  0.28268736  0.24037433  1  0  -0.47155  0  1.931634  0  0  -0.434515  0  2.147313  0  0  -0.450979  0  2.143984  0  0  -0.263908  -0.423291  0  2.149494  0
O  O123  1  0.32858068  0.71731649  0.75962760  1  0  -0.471639  0  1.931595  0  0  -0.434581  0  2.147264  0  0  -0.451046  0  2.143928  0  0  -0.263918  -0.423353  0  2.149441  0
O  O124  1  0.98344169  0.10044461  0.08143882  1  0  -0.612309  0  2.061313  0  0  -0.543007  0  2.326176  0  0  -0.574097  0  2.315765  0  0  -0.30168  -0.521352  0  2.332761  0
O  O125  1  0.48343075  0.89955777  0.91856185  1  0  -0.612274  0  2.061233  0  0  -0.543028  0  2.326112  0  0  -0.574119  0  2.315704  0  0  -0.301678  -0.521397  0  2.332691  0
O  O126  1  0.37165144  0.17096899  0.04920502  1  0  -0.650287  0  2.069826  0  0  -0.57898  0  2.351516  0  0  -0.607236  0  2.332878  0  0  -0.315952  -0.559137  0  2.36376  0
O  O127  1  0.87164208  0.82903494  0.95079538  1  0  -0.650398  0  2.06994  0  0  -0.579096  0  2.351613  0  0  -0.607347  0  2.332971  0  0  -0.316043  -0.559277  0  2.363859  0
O  O128  1  0.37787006  0.75641494  0.08257155  1  0  -0.619583  0  1.922535  0  0  -0.577393  0  2.150396  0  0  -0.599277  0  2.141571  0  0  -0.324686  -0.561996  0  2.15592  0
O  O129  1  0.87786361  0.24358384  0.91742897  1  0  -0.619549  0  1.922562  0  0  -0.577342  0  2.150403  0  0  -0.599227  0  2.141576  0  0  -0.324661  -0.561957  0  2.155931  0
O  O130  1  0.33710073  0.90835712  0.03672143  1  0  -0.637171  0  2.087586  0  0  -0.556113  0  2.358115  0  0  -0.585672  0  2.34005  0  0  -0.31691  -0.535375  0  2.369785  0
O  O131  1  0.83710084  0.09163988  0.96327748  1  0  -0.637129  0  2.087662  0  0  -0.556106  0  2.358227  0  0  -0.585668  0  2.340164  0  0  -0.316884  -0.53537  0  2.369883  0
