# generated using pymatgen
data_Zn4H10C24S4N4Cl2O13
_symmetry_space_group_name_H-M   'P 1'
_cell_length_a   19.69294253
_cell_length_b   19.67967098
_cell_length_c   33.41102812
_cell_angle_alpha   79.14833257
_cell_angle_beta   79.11513047
_cell_angle_gamma   63.88451211
_symmetry_Int_Tables_number   1
_chemical_formula_structural   Zn4H10C24S4N4Cl2O13
_chemical_formula_sum   'Zn16 H40 C96 S16 N16 Cl8 O52'
_cell_volume   11335.89627864
_cell_formula_units_Z   4
loop_
 _symmetry_equiv_pos_site_id
 _symmetry_equiv_pos_as_xyz
  1  'x, y, z'
loop_
 _atom_site_type_symbol
 _atom_site_label
 _atom_site_symmetry_multiplicity
 _atom_site_fract_x
 _atom_site_fract_y
 _atom_site_fract_z
 _atom_site_occupancy
 _atom_site_pbe_bader_charge
 _atom_site_pbe_bader_spin_density
 _atom_site_pbe_cm5_charge
 _atom_site_pbe_ddec_charge
 _atom_site_pbe_ddec_spin_density
 _atom_site_pbe_ddec_sum_bond_order
 _atom_site_pbe_magmom
Zn  Zn0  1  0.05510314  0.40060124  0.47817525  1  1.322817  0  0.67392  0.975685  0  2.353534  0
Zn  Zn1  1  0.98392585  0.48332809  0.56034753  1  1.300234  0  0.663644  0.950126  0  2.376305  0
Zn  Zn2  1  0.05931524  0.55990995  0.48184905  1  1.317798  0  0.668652  0.959146  0  2.39815  0
Zn  Zn3  1  0.90126040  0.55685556  0.47962645  1  1.316346  0  0.668985  0.958948  0  2.399801  0
Zn  Zn4  1  0.69404850  0.34931263  0.27232653  1  1.324938  0  0.673748  0.975464  0  2.353219  0
Zn  Zn5  1  0.68929598  0.18970967  0.26666711  1  1.313024  0  0.668198  0.961872  0  2.369176  0
Zn  Zn6  1  0.76822262  0.26785785  0.19056166  1  1.313893  0  0.668761  0.958826  0  2.399129  0
Zn  Zn7  1  0.84794256  0.19336060  0.27079492  1  1.303042  0  0.664339  0.946788  0  2.406246  0
Zn  Zn8  1  0.26644700  0.76615476  0.68999858  1  1.310373  0  0.663371  0.949771  0  2.374755  0
Zn  Zn9  1  0.34891943  0.69558406  0.77179518  1  1.31604  0  0.66846  0.962088  0  2.367388  0
Zn  Zn10  1  0.19209005  0.84941490  0.77088858  1  1.324112  0  0.673933  0.972356  0  2.387221  0
Zn  Zn11  1  0.19057189  0.69015791  0.76859338  1  1.315635  0  0.668868  0.959661  0  2.395541  0
Zn  Zn12  1  0.55969381  0.06074496  0.98372476  1  1.316134  0  0.668444  0.961806  0  2.367309  0
Zn  Zn13  1  0.40176937  0.05453826  0.97788854  1  1.312938  0  0.663936  0.950751  0  2.375836  0
Zn  Zn14  1  0.55761067  0.90060090  0.97939691  1  1.325052  0  0.674127  0.971935  0  2.388285  0
Zn  Zn15  1  0.48132276  0.98186335  0.05970349  1  1.315625  0  0.669028  0.958383  0  2.402431  0
H  H16  1  0.75047053  0.44801209  0.34885191  1  0.152533  0  0.114225  0.136143  0  0.992372  0
H  H17  1  0.99942926  0.30239373  0.40115767  1  0.145609  0  0.114111  0.135747  0  0.992981  0
H  H18  1  0.20069172  0.69966354  0.60179132  1  0.129791  0  0.110617  0.129865  0  0.999562  0
H  H19  1  0.04977723  0.54947897  0.64873045  1  0.122176  0  0.110197  0.129696  0  0.999839  0
H  H20  1  0.64737333  0.14896136  0.04996417  1  0.13057  0  0.11268  0.133431  0  0.995544  0
H  H21  1  0.60186440  0.10076529  0.20056006  1  0.110639  0  0.111513  0.131909  0  0.998021  0
H  H22  1  0.30220639  0.99982380  0.90084953  1  0.139127  0  0.109768  0.12949  0  1.001308  0
H  H23  1  0.44815506  0.75059611  0.84876330  1  0.152143  0  0.111902  0.132734  0  0.997385  0
H  H24  1  0.31520466  0.55462170  0.39557988  1  0.447888  0  0.315552  0.312006  0  0.930727  0
H  H25  1  0.23363487  0.55206796  0.42612788  1  0.505641  0  0.307482  0.320351  0  0.95783  0
H  H26  1  0.42521533  0.20296584  0.34498987  1  0.450137  0  0.315183  0.311307  0  0.93203  0
H  H27  1  0.51376398  0.19954885  0.32172902  1  0.493851  0  0.307548  0.321032  0  0.956784  0
H  H28  1  0.76498447  0.52459326  0.68576511  1  0.456001  0  0.314676  0.310123  0  0.934049  0
H  H29  1  0.83474535  0.51727657  0.64380098  1  0.495706  0  0.305749  0.317327  0  0.961912  0
H  H30  1  0.48452814  0.70351635  0.56445150  1  0.456493  0  0.314463  0.310361  0  0.932828  0
H  H31  1  0.41533639  0.72723854  0.60680712  1  0.496229  0  0.304804  0.316527  0  0.961988  0
H  H32  1  0.04667792  0.26557126  0.68567673  1  0.450759  0  0.313641  0.309421  0  0.933533  0
H  H33  1  0.02288770  0.33468513  0.64334266  1  0.495514  0  0.303763  0.315472  0  0.963989  0
H  H34  1  0.22530603  0.98493813  0.56433604  1  0.457134  0  0.315559  0.311308  0  0.932947  0
H  H35  1  0.23286150  0.91505394  0.60627858  1  0.494277  0  0.305591  0.317125  0  0.961696  0
H  H36  1  0.74352477  0.80405724  0.38499952  1  0.462235  0  0.315315  0.311251  0  0.931972  0
H  H37  1  0.79577553  0.72534179  0.41789849  1  0.503012  0  0.307446  0.320534  0  0.958578  0
H  H38  1  0.01407894  0.93591104  0.35579864  1  0.456984  0  0.31525  0.311234  0  0.932888  0
H  H39  1  0.95504840  0.02274106  0.33056350  1  0.49629  0  0.306163  0.31782  0  0.962904  0
H  H40  1  0.72321037  0.48483484  0.06501125  1  0.459837  0  0.315994  0.312571  0  0.931812  0
H  H41  1  0.73285431  0.41461606  0.10711775  1  0.522571  0  0.30791  0.320595  0  0.958593  0
H  H42  1  0.54437069  0.76631096  0.18594680  1  0.46105  0  0.314994  0.310708  0  0.932463  0
H  H43  1  0.52121886  0.83537801  0.14339667  1  0.49528  0  0.306909  0.319337  0  0.959304  0
H  H44  1  0.14527882  0.08720286  0.22559723  1  0.442449  0  0.313736  0.309307  0  0.933476  0
H  H45  1  0.04732354  0.11842357  0.23883590  1  0.493376  0  0.303454  0.314378  0  0.965502  0
H  H46  1  0.10385969  0.18521736  0.02457890  1  0.448019  0  0.31514  0.310976  0  0.933283  0
H  H47  1  0.20182598  0.13718164  0.01056526  1  0.488495  0  0.306033  0.317835  0  0.961084  0
H  H48  1  0.51622847  0.43511305  0.85577967  1  0.444721  0  0.31621  0.312593  0  0.932299  0
H  H49  1  0.45766091  0.52156389  0.83007399  1  0.492073  0  0.308597  0.321799  0  0.955391  0
H  H50  1  0.24524277  0.30405342  0.88396451  1  0.455369  0  0.313572  0.309049  0  0.934226  0
H  H51  1  0.29670322  0.22573194  0.91710986  1  0.492043  0  0.304536  0.315676  0  0.963145  0
H  H52  1  0.92426248  0.70392571  0.84496240  1  0.455145  0  0.315111  0.310993  0  0.931899  0
H  H53  1  0.01300799  0.70004314  0.82192924  1  0.500672  0  0.306742  0.319861  0  0.958807  0
H  H54  1  0.81560083  0.05591086  0.89517098  1  0.459562  0  0.315315  0.310698  0  0.933653  0
H  H55  1  0.73404909  0.05360946  0.92581266  1  0.507797  0  0.308143  0.320352  0  0.956606  0
C  C56  1  0.06015828  0.31580305  0.56244141  1  1.49731  0  0.204784  0.614834  0  4.220514  0
C  C57  1  0.06935862  0.57004025  0.56843416  1  1.562745  0  0.22892  0.618765  0  4.152293  0
C  C58  1  0.18488694  0.43854397  0.43850081  1  1.501688  0  0.204161  0.613553  0  4.220485  0
C  C59  1  0.93719829  0.68532781  0.43821296  1  1.52359  0  0.202608  0.608897  0  4.230315  0
C  C60  1  0.92906402  0.43325451  0.43097855  1  1.570433  0  0.23009  0.618802  0  4.152824  0
C  C61  1  0.81597052  0.56228284  0.56304426  1  1.484434  0  0.203654  0.611928  0  4.224321  0
C  C62  1  0.56509416  0.31033205  0.31209854  1  1.507095  0  0.204784  0.614202  0  4.222787  0
C  C63  1  0.68264582  0.18061473  0.18041796  1  1.586652  0  0.228571  0.618007  0  4.152228  0
C  C64  1  0.68854474  0.43462406  0.18836743  1  1.526723  0  0.202931  0.611478  0  4.227274  0
C  C65  1  0.93597725  0.18743510  0.18879696  1  1.513185  0  0.203449  0.612145  0  4.225702  0
C  C66  1  0.82145755  0.31764854  0.31846114  1  1.607165  0  0.229527  0.618304  0  4.153533  0
C  C67  1  0.81180538  0.06496696  0.31171751  1  1.481131  0  0.204044  0.614623  0  4.220032  0
C  C68  1  0.43417335  0.68931606  0.68775085  1  1.497717  0  0.203779  0.614167  0  4.221045  0
C  C69  1  0.31753274  0.82097015  0.81874935  1  1.589494  0  0.23009  0.619987  0  4.152159  0
C  C70  1  0.18720277  0.93394012  0.68713932  1  1.481707  0  0.204276  0.612433  0  4.224748  0
C  C71  1  0.06451853  0.81064004  0.81218384  1  1.501338  0  0.204282  0.610298  0  4.228248  0
C  C72  1  0.18035505  0.67987266  0.68208553  1  1.575123  0  0.227794  0.617828  0  4.150581  0
C  C73  1  0.31370629  0.56523944  0.81207503  1  1.510304  0  0.204291  0.612902  0  4.224084  0
C  C74  1  0.43705748  0.18511645  0.93858596  1  1.524906  0  0.204094  0.613379  0  4.221732  0
C  C75  1  0.43273517  0.92962414  0.93082030  1  1.575828  0  0.229704  0.619531  0  4.152365  0
C  C76  1  0.68543044  0.94000381  0.93920257  1  1.511715  0  0.204708  0.61266  0  4.223901  0
C  C77  1  0.56081167  0.81492214  0.06250414  1  1.491577  0  0.20422  0.610327  0  4.228243  0
C  C78  1  0.56747781  0.06821244  0.07010936  1  1.572267  0  0.229685  0.618561  0  4.149886  0
C  C79  1  0.31367172  0.06129312  0.06046586  1  1.50352  0  0.204749  0.613201  0  4.220557  0
C  C80  1  0.89834474  0.40643463  0.40217625  1  -0.004684  0  -0.010718  -0.068406  0  3.91049  0
C  C81  1  0.85192292  0.34434208  0.34746787  1  0.04776  0  -0.010582  -0.068091  0  3.910915  0
C  C82  1  0.82699178  0.44764674  0.38709691  1  0.067747  0  0.022993  0.139436  0  4.005778  0
C  C83  1  0.92306534  0.30297262  0.36274310  1  0.008518  0  0.022693  0.140515  0  4.003277  0
C  C84  1  0.80551402  0.41617677  0.36036593  1  0.033695  0  -0.08293  -0.149719  0  3.949788  0
C  C85  1  0.94461280  0.33444173  0.38942021  1  0.031738  0  -0.0836  -0.150286  0  3.951338  0
C  C86  1  0.09949033  0.59958646  0.59615064  1  0.023389  0  -0.010911  -0.067294  0  3.908758  0
C  C87  1  0.15053429  0.65000721  0.65436270  1  0.046919  0  -0.01111  -0.068495  0  3.910847  0
C  C88  1  0.14290109  0.64260290  0.58297897  1  0.076524  0  0.022996  0.139086  0  4.005875  0
C  C89  1  0.10729857  0.60682961  0.66754032  1  0.011767  0  0.022551  0.13926  0  4.005579  0
C  C90  1  0.16721421  0.66660853  0.61201217  1  0.068555  0  -0.084268  -0.148442  0  3.952907  0
C  C91  1  0.08298829  0.58281603  0.63851216  1  0.012721  0  -0.084916  -0.150329  0  3.952783  0
C  C92  1  0.30408091  0.45406764  0.40170201  1  0.522886  0  0.106935  0.285063  0  4.119403  0
C  C93  1  0.44644065  0.29430123  0.34952066  1  0.525467  0  0.106047  0.284556  0  4.120835  0
C  C94  1  0.25874560  0.41324707  0.41442831  1  -0.117876  0  -0.050615  -0.263631  0  3.954075  0
C  C95  1  0.49185484  0.33498469  0.33689494  1  -0.104566  0  -0.050165  -0.26339  0  3.954427  0
C  C96  1  0.37755514  0.33878339  0.37301553  1  -0.143601  0  -0.030228  -0.109507  0  4.083107  0
C  C97  1  0.37245168  0.41002576  0.37769393  1  -0.092131  0  -0.030575  -0.10971  0  4.083396  0
C  C98  1  0.72645723  0.57680270  0.63015139  1  0.495958  0  0.105359  0.283914  0  4.119897  0
C  C99  1  0.52369347  0.67520910  0.62062842  1  0.498001  0  0.105069  0.283063  0  4.116054  0
C  C100  1  0.74209210  0.58723400  0.58717108  1  -0.08246  0  -0.049541  -0.262146  0  3.954631  0
C  C101  1  0.50807740  0.66512190  0.66362382  1  -0.100458  0  -0.049843  -0.262622  0  3.957276  0
C  C102  1  0.60391125  0.64201617  0.60871395  1  -0.144015  0  -0.029372  -0.108097  0  4.08054  0
C  C103  1  0.64621814  0.60868985  0.64199494  1  -0.115089  0  -0.030168  -0.109221  0  4.082449  0
C  C104  1  0.07460716  0.22628797  0.62953947  1  0.483661  0  0.104352  0.282704  0  4.11566  0
C  C105  1  0.17316464  0.02341604  0.62001429  1  0.493274  0  0.105298  0.284275  0  4.119928  0
C  C106  1  0.08458454  0.24183075  0.58653785  1  -0.086616  0  -0.048913  -0.262141  0  3.956335  0
C  C107  1  0.16254942  0.00781193  0.66299701  1  -0.078668  0  -0.049182  -0.261804  0  3.953399  0
C  C108  1  0.14122259  0.10369377  0.60816574  1  -0.131566  0  -0.030235  -0.110806  0  4.082475  0
C  C109  1  0.10782890  0.14606171  0.64145735  1  -0.134464  0  -0.030187  -0.109205  0  4.083564  0
C  C110  1  0.84287992  0.80071215  0.39790013  1  0.547796  0  0.106959  0.28488  0  4.120977  0
C  C111  1  0.90516511  0.95028139  0.35302852  1  0.511322  0  0.106669  0.285345  0  4.120417  0
C  C112  1  0.91270826  0.75909401  0.41413654  1  -0.119214  0  -0.050239  -0.261388  0  3.959025  0
C  C113  1  0.83541280  0.99199367  0.33667696  1  -0.118168  0  -0.0501  -0.263116  0  3.954109  0
C  C114  1  0.90750108  0.87991700  0.37495330  1  -0.109243  0  -0.02985  -0.108962  0  4.085753  0
C  C115  1  0.84120045  0.87032962  0.37515056  1  -0.169248  0  -0.030033  -0.107926  0  4.082307  0
C  C116  1  0.65443458  0.15332680  0.15060067  1  0.003199  0  -0.010682  -0.067635  0  3.910166  0
C  C117  1  0.59537298  0.09585080  0.09991970  1  -0.020646  0  -0.010903  -0.068598  0  3.911468  0
C  C118  1  0.66707088  0.16696111  0.10738749  1  0.104791  0  0.023532  0.139713  0  4.006385  0
C  C119  1  0.58248506  0.08248459  0.14313503  1  0.070583  0  0.022372  0.139367  0  4.007302  0
C  C120  1  0.63763931  0.13828962  0.08324045  1  0.051352  0  -0.083571  -0.148788  0  3.950203  0
C  C121  1  0.61194292  0.11111045  0.16728207  1  0.04078  0  -0.084489  -0.150439  0  3.95533  0
C  C122  1  0.67337984  0.52326169  0.12102575  1  0.597066  0  0.106894  0.286539  0  4.121162  0
C  C123  1  0.57433887  0.72646532  0.12980337  1  0.485306  0  0.105874  0.283427  0  4.120114  0
C  C124  1  0.66295964  0.50826240  0.16410214  1  -0.13363  0  -0.050559  -0.264021  0  3.955733  0
C  C125  1  0.58481909  0.74130331  0.08675801  1  -0.080582  0  -0.049398  -0.26166  0  3.958868  0
C  C126  1  0.60759978  0.64630395  0.14199369  1  -0.14067  0  -0.03032  -0.108766  0  4.082678  0
C  C127  1  0.64120409  0.60347213  0.10890850  1  -0.159332  0  -0.030142  -0.111087  0  4.085808  0
C  C128  1  0.08119100  0.12305112  0.17776595  1  0.528487  0  0.105319  0.282765  0  4.114496  0
C  C129  1  0.16835429  0.12508458  0.07163361  1  0.548989  0  0.106453  0.285322  0  4.122647  0
C  C130  1  0.00903949  0.16254918  0.16395845  1  -0.148621  0  -0.049542  -0.261501  0  3.95973  0
C  C131  1  0.24059199  0.08532175  0.08532639  1  -0.14085  0  -0.050151  -0.262153  0  3.956665  0
C  C132  1  0.11050999  0.13926387  0.10583377  1  -0.173626  0  -0.030471  -0.109954  0  4.083449  0
C  C133  1  0.13922172  0.11030134  0.14364367  1  -0.139782  0  -0.029509  -0.107447  0  4.080791  0
C  C134  1  0.34420043  0.85174036  0.84757336  1  -0.016421  0  -0.011161  -0.069484  0  3.912513  0
C  C135  1  0.40612561  0.89868801  0.90206036  1  0.039558  0  -0.011578  -0.069358  0  3.910905  0
C  C136  1  0.30270754  0.92313321  0.86269164  1  0.089246  0  0.021963  0.138321  0  4.008456  0
C  C137  1  0.44756827  0.82723768  0.88700196  1  0.035411  0  0.022868  0.138025  0  4.008341  0
C  C138  1  0.33422439  0.94481654  0.88927583  1  0.031848  0  -0.086107  -0.151303  0  3.958172  0
C  C139  1  0.41609148  0.80557830  0.86036322  1  0.027111  0  -0.084041  -0.149356  0  3.953852  0
C  C140  1  0.40717272  0.44973071  0.85303450  1  0.514278  0  0.106773  0.285676  0  4.121965  0
C  C141  1  0.34349482  0.30113443  0.89797349  1  0.508631  0  0.105196  0.283139  0  4.116205  0
C  C142  1  0.33750628  0.49185382  0.83667184  1  -0.111313  0  -0.050091  -0.262731  0  3.9534  0
C  C143  1  0.41299334  0.25904825  0.91443989  1  -0.104828  0  -0.04964  -0.260784  0  3.954264  0
C  C144  1  0.34229942  0.37059804  0.87529036  1  -0.150547  0  -0.030737  -0.1098  0  4.085508  0
C  C145  1  0.40889018  0.37964791  0.87515968  1  -0.126957  0  -0.03003  -0.108705  0  4.079146  0
C  C146  1  0.94576717  0.79503083  0.84959047  1  0.526917  0  0.106934  0.285112  0  4.119491  0
C  C147  1  0.80419788  0.95546078  0.90155017  1  0.536313  0  0.106209  0.285404  0  4.121662  0
C  C148  1  0.99130266  0.83556896  0.83681738  1  -0.110711  0  -0.050833  -0.263161  0  3.960201  0
C  C149  1  0.75878304  0.91489382  0.91462066  1  -0.114841  0  -0.050201  -0.263454  0  3.956498  0
C  C150  1  0.87222137  0.91114298  0.87744784  1  -0.160884  0  -0.03018  -0.11134  0  4.086866  0
C  C151  1  0.87698217  0.83987254  0.87302733  1  -0.126093  0  -0.030273  -0.108676  0  4.080732  0
S  S152  1  0.29978012  0.32292560  0.39768010  1  0.22185  0  0.042077  0.092081  0  2.776097  0
S  S153  1  0.45111465  0.42507879  0.35390460  1  0.219862  0  0.043863  0.09397  0  2.775907  0
S  S154  1  0.66023424  0.63574504  0.56213810  1  0.229898  0  0.045031  0.095914  0  2.77856  0
S  S155  1  0.58994300  0.61690602  0.68864310  1  0.226898  0  0.041279  0.090956  0  2.782318  0
S  S156  1  0.13290459  0.15989204  0.56150988  1  0.22479  0  0.046304  0.097838  0  2.777404  0
S  S157  1  0.11390725  0.08978183  0.68804763  1  0.23275  0  0.04523  0.096067  0  2.776878  0
S  S158  1  0.97394941  0.80477666  0.40219637  1  0.225639  0  0.040584  0.089482  0  2.783335  0
S  S159  1  0.77416829  0.94625748  0.34863618  1  0.223078  0  0.042254  0.091927  0  2.778612  0
S  S160  1  0.61396470  0.59062190  0.18878219  1  0.225838  0  0.04233  0.09223  0  2.776165  0
S  S161  1  0.63347720  0.65901762  0.06206197  1  0.232098  0  0.045257  0.09631  0  2.779282  0
S  S162  1  0.01250139  0.18273266  0.11054966  1  0.258911  0  0.04329  0.093385  0  2.783733  0
S  S163  1  0.23722388  0.06508273  0.13877321  1  0.238219  0  0.043932  0.094019  0  2.780026  0
S  S164  1  0.27564464  0.44679572  0.84868414  1  0.223747  0  0.041968  0.092039  0  2.781896  0
S  S165  1  0.47466583  0.30427405  0.90269215  1  0.223169  0  0.041527  0.090463  0  2.779604  0
S  S166  1  0.95088076  0.92590645  0.85344279  1  0.218139  0  0.044282  0.095024  0  2.780845  0
S  S167  1  0.79918272  0.82444991  0.89805590  1  0.228922  0  0.044751  0.095337  0  2.776752  0
N  N168  1  0.28679469  0.52418083  0.41171239  1  -1.277738  0  -0.579932  -0.591672  0  3.336609  0
N  N169  1  0.46608602  0.22217777  0.34170985  1  -1.25972  0  -0.580085  -0.592281  0  3.332949  0
N  N170  1  0.77998695  0.54350044  0.65668563  1  -1.281548  0  -0.582192  -0.592174  0  3.334431  0
N  N171  1  0.47026124  0.71345785  0.59417939  1  -1.274437  0  -0.583613  -0.594691  0  3.327493  0
N  N172  1  0.03631346  0.27981006  0.65601872  1  -1.263225  0  -0.585057  -0.596563  0  3.326697  0
N  N173  1  0.20664069  0.96985525  0.59345414  1  -1.276873  0  -0.582312  -0.592784  0  3.334575  0
N  N174  1  0.78460834  0.77908183  0.40392051  1  -1.281446  0  -0.578864  -0.590426  0  3.335012  0
N  N175  1  0.96135480  0.97415340  0.34964010  1  -1.265001  0  -0.580743  -0.591011  0  3.34035  0
N  N176  1  0.70708431  0.46965156  0.09459873  1  -1.326517  0  -0.579229  -0.591133  0  3.340851  0
N  N177  1  0.53621556  0.78027450  0.15598124  1  -1.272361  0  -0.580614  -0.590926  0  3.333499  0
N  N178  1  0.09389636  0.09834979  0.21776295  1  -1.257301  0  -0.583086  -0.593059  0  3.326243  0
N  N179  1  0.15527255  0.14496179  0.03162472  1  -1.252104  0  -0.581624  -0.592623  0  3.336504  0
N  N180  1  0.46361831  0.47330814  0.84941019  1  -1.252599  0  -0.579598  -0.592276  0  3.338155  0
N  N181  1  0.28460298  0.28012436  0.90393263  1  -1.257708  0  -0.58411  -0.594175  0  3.326541  0
N  N182  1  0.96530293  0.72286155  0.84187527  1  -1.267042  0  -0.580047  -0.591961  0  3.333193  0
N  N183  1  0.78722204  0.02557003  0.91146644  1  -1.289041  0  -0.580689  -0.591095  0  3.335076  0
Cl  Cl184  1  0.76159598  0.53656847  0.39971623  1  -0.176227  0  -0.017132  -0.079627  0  1.477182  0
Cl  Cl185  1  0.98766743  0.21304584  0.35108262  1  -0.180629  0  -0.021962  -0.085587  0  1.475994  0
Cl  Cl186  1  0.16970150  0.66827493  0.53222959  1  -0.180091  0  -0.014932  -0.076789  0  1.478744  0
Cl  Cl187  1  0.08190430  0.57969807  0.71831196  1  -0.184357  0  -0.01801  -0.080637  0  1.477922  0
Cl  Cl188  1  0.71712344  0.21837367  0.08110882  1  -0.18866  0  -0.015064  -0.076873  0  1.478853  0
Cl  Cl189  1  0.53090825  0.03251943  0.16946216  1  -0.183896  0  -0.019065  -0.081981  0  1.476339  0
Cl  Cl190  1  0.21344038  0.98786410  0.85051525  1  -0.173336  0  -0.014532  -0.076105  0  1.480177  0
Cl  Cl191  1  0.53691193  0.76274621  0.89910575  1  -0.179091  0  -0.011366  -0.072354  0  1.479708  0
O  O192  1  0.00017712  0.49923342  0.50048230  1  -1.223694  0  -0.57174  -1.021197  0  2.537075  0
O  O193  1  0.07562397  0.31740753  0.52332030  1  -1.161504  0  -0.327171  -0.555178  0  2.340639  0
O  O194  1  0.03498457  0.52832986  0.58604273  1  -1.158509  0  -0.316818  -0.546679  0  2.3244  0
O  O195  1  0.15756113  0.50552943  0.45042721  1  -1.175131  0  -0.323157  -0.557966  0  2.330501  0
O  O196  1  0.02454604  0.37480346  0.58233340  1  -1.175815  0  -0.32568  -0.562846  0  2.324789  0
O  O197  1  0.15175603  0.39323303  0.44620641  1  -1.190588  0  -0.329778  -0.559744  0  2.335874  0
O  O198  1  0.08000338  0.58880279  0.53011986  1  -1.156181  0  -0.309756  -0.539958  0  2.41685  0
O  O199  1  0.00485224  0.65540823  0.44860087  1  -1.179967  0  -0.331124  -0.557252  0  2.348572  0
O  O200  1  0.88850064  0.49936786  0.44169825  1  -1.164272  0  -0.312644  -0.544744  0  2.422324  0
O  O201  1  0.88909382  0.65481759  0.44743993  1  -1.171275  0  -0.320834  -0.55368  0  2.331007  0
O  O202  1  0.99394165  0.38696248  0.44221234  1  -1.17136  0  -0.311161  -0.539113  0  2.320435  0
O  O203  1  0.87525095  0.52731006  0.58265888  1  -1.180799  0  -0.32391  -0.561212  0  2.320918  0
O  O204  1  0.81715041  0.57668889  0.52388898  1  -1.147614  0  -0.328454  -0.553842  0  2.3494  0
O  O205  1  0.74900449  0.25025010  0.25046518  1  -1.224885  0  -0.571702  -1.020982  0  2.537395  0
O  O206  1  0.59710671  0.35660247  0.30374504  1  -1.179882  0  -0.328625  -0.556823  0  2.339946  0
O  O207  1  0.66179166  0.16637617  0.21846970  1  -1.170612  0  -0.314168  -0.543301  0  2.321931  0
O  O208  1  0.72387873  0.37554937  0.16853589  1  -1.179679  0  -0.322749  -0.556626  0  2.331212  0
O  O209  1  0.59266567  0.24334202  0.30017376  1  -1.180708  0  -0.323157  -0.560137  0  2.323908  0
O  O210  1  0.67472035  0.43305556  0.22758399  1  -1.18659  0  -0.329533  -0.559301  0  2.339748  0
O  O211  1  0.72474513  0.21519671  0.16565350  1  -1.16881  0  -0.310654  -0.541754  0  2.419006  0
O  O212  1  0.87670330  0.22624527  0.17012778  1  -1.178123  0  -0.329777  -0.556131  0  2.347645  0
O  O213  1  0.86497726  0.25450472  0.30485197  1  -1.173258  0  -0.314414  -0.54679  0  2.421468  0
O  O214  1  0.93585634  0.16877765  0.22806490  1  -1.148427  0  -0.323066  -0.556691  0  2.330277  0
O  O215  1  0.75407749  0.36114881  0.30981925  1  -1.174033  0  -0.310228  -0.537139  0  2.31861  0
O  O216  1  0.74633231  0.09283742  0.29879274  1  -1.181674  0  -0.331072  -0.560905  0  2.339275  0
O  O217  1  0.85899010  0.09665852  0.30416061  1  -1.16178  0  -0.323691  -0.558132  0  2.328596  0
O  O218  1  0.25058270  0.74994468  0.74988128  1  -1.230793  0  -0.571665  -1.021693  0  2.535919  0
O  O219  1  0.37516556  0.72544132  0.66800253  1  -1.175683  0  -0.324031  -0.560647  0  2.322856  0
O  O220  1  0.36366802  0.75557573  0.80787132  1  -1.176318  0  -0.314771  -0.543634  0  2.32347  0
O  O221  1  0.17221739  0.93282286  0.72625533  1  -1.150155  0  -0.326881  -0.55156  0  2.346964  0
O  O222  1  0.43268472  0.67305429  0.72685757  1  -1.172102  0  -0.330279  -0.559075  0  2.34333  0
O  O223  1  0.22252911  0.87457100  0.66750248  1  -1.18265  0  -0.324744  -0.562728  0  2.321394  0
O  O224  1  0.25197314  0.86178994  0.80756888  1  -1.166968  0  -0.30886  -0.539908  0  2.420766  0
O  O225  1  0.09583674  0.85749951  0.80292603  1  -1.175341  0  -0.32823  -0.553855  0  2.347437  0
O  O226  1  0.16186399  0.66894022  0.72041488  1  -1.164767  0  -0.309955  -0.540707  0  2.415875  0
O  O227  1  0.09309172  0.74281596  0.80125172  1  -1.173173  0  -0.322584  -0.555752  0  2.328997  0
O  O228  1  0.22199469  0.71431218  0.66447484  1  -1.171651  0  -0.316035  -0.545598  0  2.323303  0
O  O229  1  0.36064210  0.59716274  0.80416866  1  -1.183008  0  -0.322354  -0.559101  0  2.319063  0
O  O230  1  0.24756961  0.59319829  0.79986978  1  -1.181212  0  -0.330593  -0.557402  0  2.34918  0
O  O231  1  0.49956378  0.00062822  0.99982238  1  -1.22806  0  -0.571746  -1.020907  0  2.537573  0
O  O232  1  0.50385969  0.15584644  0.94997158  1  -1.182376  0  -0.330502  -0.558846  0  2.342879  0
O  O233  1  0.38846312  0.99695866  0.93972446  1  -1.178209  0  -0.31793  -0.548227  0  2.326068  0
O  O234  1  0.65330816  0.89383541  0.94730012  1  -1.169239  0  -0.328412  -0.554089  0  2.348864  0
O  O235  1  0.38932922  0.15407486  0.94676056  1  -1.175334  0  -0.324318  -0.561065  0  2.323694  0
O  O236  1  0.65767770  0.00700440  0.95115903  1  -1.179142  0  -0.323846  -0.560828  0  2.318766  0
O  O237  1  0.49623575  0.88706853  0.94399382  1  -1.163886  0  -0.308032  -0.537604  0  2.418428  0
O  O238  1  0.57811481  0.81626935  0.02344318  1  -1.162603  0  -0.327758  -0.553384  0  2.346919  0
O  O239  1  0.53172947  0.02720748  0.08494347  1  -1.150669  0  -0.311765  -0.542944  0  2.419462  0
O  O240  1  0.52366282  0.87413549  0.08206953  1  -1.172836  0  -0.322615  -0.555386  0  2.329742  0
O  O241  1  0.58249418  0.08831508  0.03204789  1  -1.169877  0  -0.313635  -0.541847  0  2.32164  0
O  O242  1  0.31392868  0.07661989  0.02101290  1  -1.17285  0  -0.324376  -0.561668  0  2.318867  0
O  O243  1  0.37293379  0.02657578  0.07948878  1  -1.178795  0  -0.32974  -0.554987  0  2.349413  0
