# generated using pymatgen
data_AgH5C5BrN
_symmetry_space_group_name_H-M   'P 1'
_cell_length_a   4.17040683
_cell_length_b   9.10433730
_cell_length_c   16.83183975
_cell_angle_alpha   90.00071864
_cell_angle_beta   89.99990242
_cell_angle_gamma   94.66435965
_symmetry_Int_Tables_number   1
_chemical_formula_structural   AgH5C5BrN
_chemical_formula_sum   'Ag4 H20 C20 Br4 N4'
_cell_volume   636.96805342
_cell_formula_units_Z   4
loop_
 _symmetry_equiv_pos_site_id
 _symmetry_equiv_pos_as_xyz
  1  'x, y, z'
loop_
 _atom_site_type_symbol
 _atom_site_label
 _atom_site_symmetry_multiplicity
 _atom_site_fract_x
 _atom_site_fract_y
 _atom_site_fract_z
 _atom_site_occupancy
 _atom_site_hle17_bader_spin_density
 _atom_site_hle17_ddec_charge
 _atom_site_hle17_ddec_spin_density
 _atom_site_hle17_ddec_sum_bond_order
 _atom_site_hle17_magmom
 _atom_site_hse06_10hf_bader_spin_density
 _atom_site_hse06_10hf_ddec_charge
 _atom_site_hse06_10hf_ddec_spin_density
 _atom_site_hse06_10hf_ddec_sum_bond_order
 _atom_site_hse06_10hf_magmom
 _atom_site_hse06_bader_spin_density
 _atom_site_hse06_ddec_charge
 _atom_site_hse06_ddec_spin_density
 _atom_site_hse06_ddec_sum_bond_order
 _atom_site_hse06_magmom
 _atom_site_pbe_bader_spin_density
 _atom_site_pbe_cm5_charge
 _atom_site_pbe_ddec_charge
 _atom_site_pbe_ddec_spin_density
 _atom_site_pbe_ddec_sum_bond_order
 _atom_site_pbe_magmom
Ag  Ag0  1  0.26193550  0.54200624  0.06076222  1  0  0.374173  0  1.746453  0  0  0.255847  0  2.253327  0  0  0.285504  0  2.19961  0  0  0.268975  0.235544  0  2.290203  0
Ag  Ag1  1  0.23804785  0.95798353  0.56076781  1  0  0.374113  0  1.746408  0  0  0.255792  0  2.253235  0  0  0.285424  0  2.199568  0  0  0.268959  0.235488  0  2.290107  0
Ag  Ag2  1  0.73805957  0.45800226  0.93922373  1  0  0.374142  0  1.746303  0  0  0.255864  0  2.25303  0  0  0.285488  0  2.199374  0  0  0.268963  0.235557  0  2.289908  0
Ag  Ag3  1  0.76193249  0.04200728  0.43923181  1  0  0.374059  0  1.746448  0  0  0.255759  0  2.253225  0  0  0.28539  0  2.199566  0  0  0.268937  0.235456  0  2.290096  0
H  H4  1  0.85093999  0.64578304  0.20365829  1  0  0.068391  0  0.959009  0  0  0.075368  0  1.030735  0  0  0.077469  0  1.029093  0  0  0.103028  0.073798  0  1.031997  0
H  H5  1  0.64908227  0.85421695  0.70366202  1  0  0.0684  0  0.959125  0  0  0.075355  0  1.030874  0  0  0.077457  0  1.029229  0  0  0.103062  0.07379  0  1.032133  0
H  H6  1  0.14905097  0.35421442  0.79634133  1  0  0.068413  0  0.959011  0  0  0.075373  0  1.030731  0  0  0.077483  0  1.029091  0  0  0.103044  0.073805  0  1.031988  0
H  H7  1  0.35092583  0.14578279  0.29634354  1  0  0.068396  0  0.959111  0  0  0.075372  0  1.030838  0  0  0.077475  0  1.029191  0  0  0.103068  0.073803  0  1.032098  0
H  H8  1  0.67768220  0.87544668  0.26728139  1  0  0.099731  0  0.971652  0  0  0.106629  0  1.039997  0  0  0.10995  0  1.038484  0  0  0.09123  0.104122  0  1.041434  0
H  H9  1  0.82234680  0.62455261  0.76728407  1  0  0.099704  0  0.971538  0  0  0.106533  0  1.039967  0  0  0.109852  0  1.038463  0  0  0.0912  0.104028  0  1.041405  0
H  H10  1  0.32231134  0.12455190  0.73271229  1  0  0.099709  0  0.971513  0  0  0.10649  0  1.039983  0  0  0.109805  0  1.038482  0  0  0.091148  0.103987  0  1.041414  0
H  H11  1  0.17767537  0.37544500  0.23271614  1  0  0.099772  0  0.971529  0  0  0.106614  0  1.03994  0  0  0.109933  0  1.038435  0  0  0.091222  0.104109  0  1.041378  0
H  H12  1  0.85187442  0.12021318  0.20428210  1  0  0.0914  0  0.956217  0  0  0.103519  0  1.015953  0  0  0.105785  0  1.014856  0  0  0.098036  0.101852  0  1.016787  0
H  H13  1  0.64814144  0.37978664  0.70428185  1  0  0.091335  0  0.956258  0  0  0.10345  0  1.016008  0  0  0.105717  0  1.014909  0  0  0.098017  0.101783  0  1.01684  0
H  H14  1  0.14812443  0.87978872  0.79571871  1  0  0.091386  0  0.956425  0  0  0.103504  0  1.016156  0  0  0.105771  0  1.015058  0  0  0.09803  0.101838  0  1.016988  0
H  H15  1  0.35187421  0.62021534  0.29571777  1  0  0.091373  0  0.956115  0  0  0.103494  0  1.015868  0  0  0.10576  0  1.014772  0  0  0.098018  0.101828  0  1.016701  0
H  H16  1  0.19885829  0.12433651  0.08315469  1  0  0.10237  0  0.974948  0  0  0.108573  0  1.043606  0  0  0.111773  0  1.042589  0  0  0.092114  0.106111  0  1.044748  0
H  H17  1  0.30116299  0.37566151  0.58315315  1  0  0.102348  0  0.974946  0  0  0.108615  0  1.043544  0  0  0.111815  0  1.042533  0  0  0.09211  0.106155  0  1.044682  0
H  H18  1  0.80114998  0.87566434  0.91684612  1  0  0.102404  0  0.975044  0  0  0.108622  0  1.043681  0  0  0.111829  0  1.042653  0  0  0.092115  0.106161  0  1.044821  0
H  H19  1  0.69884768  0.62433935  0.41684766  1  0  0.102376  0  0.974949  0  0  0.108591  0  1.043601  0  0  0.111799  0  1.042568  0  0  0.092117  0.106132  0  1.044741  0
H  H20  1  0.35106953  0.88296088  0.02720137  1  0  0.072489  0  0.948905  0  0  0.0814  0  1.014847  0  0  0.083611  0  1.013351  0  0  0.105291  0.079761  0  1.015956  0
H  H21  1  0.14895811  0.61703493  0.52720349  1  0  0.072484  0  0.94901  0  0  0.081421  0  1.014918  0  0  0.083636  0  1.013412  0  0  0.105301  0.079766  0  1.016045  0
H  H22  1  0.64892384  0.11703659  0.97279884  1  0  0.072446  0  0.948953  0  0  0.081353  0  1.014888  0  0  0.083561  0  1.0134  0  0  0.105249  0.079711  0  1.016002  0
H  H23  1  0.85105496  0.38296594  0.47280088  1  0  0.072499  0  0.948842  0  0  0.081405  0  1.014783  0  0  0.08361  0  1.013302  0  0  0.105282  0.079759  0  1.015897  0
C  C24  1  0.92493993  0.75438406  0.17937015  1  0  0.110307  0  3.711485  0  0  0.081686  0  3.961513  0  0  0.087643  0  3.980663  0  0  0.034048  0.077799  0  3.948548  0
C  C25  1  0.57508204  0.74561317  0.67937615  1  0  0.11022  0  3.712081  0  0  0.08164  0  3.962037  0  0  0.087599  0  3.981191  0  0  0.033888  0.077748  0  3.949073  0
C  C26  1  0.07504160  0.24561446  0.82062710  1  0  0.110338  0  3.71185  0  0  0.08173  0  3.961795  0  0  0.087675  0  3.98095  0  0  0.034045  0.077847  0  3.948825  0
C  C27  1  0.42493018  0.25438219  0.32062763  1  0  0.110309  0  3.711814  0  0  0.081704  0  3.961776  0  0  0.087665  0  3.980922  0  0  0.033973  0.077817  0  3.948807  0
C  C28  1  0.82820714  0.88231428  0.21422894  1  0  -0.114272  0  3.748199  0  0  -0.124462  0  3.993647  0  0  -0.131254  0  4.016284  0  0  -0.090089  -0.120121  0  3.978572  0
C  C29  1  0.67181065  0.61768814  0.71422690  1  0  -0.11423  0  3.748326  0  0  -0.124365  0  3.993787  0  0  -0.131144  0  4.016392  0  0  -0.090029  -0.120032  0  3.978718  0
C  C30  1  0.17176497  0.11768530  0.78577305  1  0  -0.114243  0  3.747994  0  0  -0.124296  0  3.993421  0  0  -0.131086  0  4.016064  0  0  -0.09  -0.11996  0  3.978349  0
C  C31  1  0.32820757  0.38231496  0.28577331  1  0  -0.114295  0  3.748187  0  0  -0.124447  0  3.993663  0  0  -0.131227  0  4.016268  0  0  -0.090045  -0.120116  0  3.978601  0
C  C32  1  0.92608954  0.01760877  0.17953280  1  0  -0.011461  0  3.722529  0  0  -0.026693  0  3.962662  0  0  -0.024085  0  3.982459  0  0  -0.073424  -0.02819  0  3.949201  0
C  C33  1  0.57392379  0.48238937  0.67953210  1  0  -0.011238  0  3.722593  0  0  -0.026454  0  3.962696  0  0  -0.023844  0  3.982498  0  0  -0.073293  -0.02795  0  3.949231  0
C  C34  1  0.07390074  0.98238428  0.82046563  1  0  -0.011391  0  3.72269  0  0  -0.026645  0  3.9628  0  0  -0.024038  0  3.982593  0  0  -0.073395  -0.028141  0  3.94934  0
C  C35  1  0.42608637  0.51760818  0.32046990  1  0  -0.011401  0  3.722459  0  0  -0.026633  0  3.962565  0  0  -0.024025  0  3.98237  0  0  -0.073386  -0.028128  0  3.949104  0
C  C36  1  0.11741948  0.02026977  0.11148102  1  0  -0.122876  0  3.744172  0  0  -0.133184  0  3.989151  0  0  -0.140259  0  4.011922  0  0  -0.090243  -0.128628  0  3.973982  0
C  C37  1  0.38259867  0.47972449  0.61148431  1  0  -0.12306  0  3.744293  0  0  -0.133451  0  3.989335  0  0  -0.140534  0  4.012108  0  0  -0.090343  -0.128891  0  3.974149  0
C  C38  1  0.88258040  0.97972333  0.88851622  1  0  -0.12298  0  3.744073  0  0  -0.133311  0  3.989051  0  0  -0.140387  0  4.011823  0  0  -0.090293  -0.128754  0  3.973879  0
C  C39  1  0.61741663  0.52027529  0.38851887  1  0  -0.12296  0  3.74416  0  0  -0.13329  0  3.989145  0  0  -0.140367  0  4.011923  0  0  -0.090274  -0.128732  0  3.97397  0
C  C40  1  0.20391992  0.88723435  0.08062339  1  0  0.111415  0  3.719642  0  0  0.086013  0  3.961014  0  0  0.091448  0  3.982277  0  0  0.036842  0.082555  0  3.946526  0
C  C41  1  0.29609629  0.61276704  0.58062304  1  0  0.111528  0  3.719578  0  0  0.086099  0  3.960955  0  0  0.091538  0  3.982216  0  0  0.036858  0.082656  0  3.946464  0
C  C42  1  0.79606778  0.11277301  0.91937741  1  0  0.111558  0  3.71955  0  0  0.086166  0  3.960882  0  0  0.091605  0  3.982133  0  0  0.036984  0.082708  0  3.946399  0
C  C43  1  0.70391249  0.38723712  0.41937836  1  0  0.111499  0  3.719554  0  0  0.086101  0  3.960918  0  0  0.091534  0  3.982179  0  0  0.036852  0.08265  0  3.946423  0
Br  Br44  1  0.70390019  0.36338572  0.09965031  1  0  -0.486416  0  1.330099  0  0  -0.398998  0  1.727054  0  0  -0.423102  0  1.694493  0  0  -0.233484  -0.381606  0  1.749369  0
Br  Br45  1  0.79607799  0.13661481  0.59965428  1  0  -0.48634  0  1.330062  0  0  -0.39893  0  1.727021  0  0  -0.423022  0  1.694467  0  0  -0.23347  -0.38156  0  1.749374  0
Br  Br46  1  0.29608287  0.63663813  0.90034812  1  0  -0.486373  0  1.33011  0  0  -0.39895  0  1.727038  0  0  -0.423056  0  1.694488  0  0  -0.233454  -0.381574  0  1.749388  0
Br  Br47  1  0.20390869  0.86337051  0.40035128  1  0  -0.486332  0  1.330181  0  0  -0.398912  0  1.727144  0  0  -0.423012  0  1.694593  0  0  -0.233448  -0.381537  0  1.749493  0
N  N48  1  0.11065572  0.75614394  0.11388136  1  0  -0.29525  0  3.312493  0  0  -0.215722  0  3.588758  0  0  -0.234498  0  3.606911  0  0  -0.342337  -0.203011  0  3.576177  0
N  N49  1  0.38936421  0.74385163  0.61388542  1  0  -0.295267  0  3.312656  0  0  -0.215722  0  3.588895  0  0  -0.234498  0  3.60704  0  0  -0.342281  -0.203006  0  3.576302  0
N  N50  1  0.88934451  0.24385137  0.88611528  1  0  -0.295405  0  3.313091  0  0  -0.215866  0  3.589317  0  0  -0.234639  0  3.607466  0  0  -0.342415  -0.203153  0  3.576732  0
N  N51  1  0.61063927  0.25614920  0.38611835  1  0  -0.295298  0  3.31273  0  0  -0.215752  0  3.588976  0  0  -0.234527  0  3.607121  0  0  -0.342305  -0.203036  0  3.576382  0
