# generated using pymatgen
data_CuH17C11N3O4
_symmetry_space_group_name_H-M   'P 1'
_cell_length_a   7.91918555
_cell_length_b   15.88531350
_cell_length_c   22.56602389
_cell_angle_alpha   90.00033343
_cell_angle_beta   89.99930306
_cell_angle_gamma   89.99934659
_symmetry_Int_Tables_number   1
_chemical_formula_structural   CuH17C11N3O4
_chemical_formula_sum   'Cu8 H136 C88 N24 O32'
_cell_volume   2838.77748717
_cell_formula_units_Z   8
loop_
 _symmetry_equiv_pos_site_id
 _symmetry_equiv_pos_as_xyz
  1  'x, y, z'
loop_
 _atom_site_type_symbol
 _atom_site_label
 _atom_site_symmetry_multiplicity
 _atom_site_fract_x
 _atom_site_fract_y
 _atom_site_fract_z
 _atom_site_occupancy
 _atom_site_pbe_bader_charge
 _atom_site_pbe_bader_spin_density
 _atom_site_pbe_cm5_charge
 _atom_site_pbe_ddec_charge
 _atom_site_pbe_ddec_spin_density
 _atom_site_pbe_ddec_sum_bond_order
 _atom_site_pbe_magmom
Cu  Cu0  1  0.72341770  0.13392467  0.41707490  1  1.035291  0.566078  0.742142  0.737057  0.749041  2.256971  0.564
Cu  Cu1  1  0.72344692  0.63394299  0.08293420  1  1.035314  -0.566358  0.742105  0.737258  -0.749503  2.256819  -0.565
Cu  Cu2  1  0.22341537  0.36607132  0.41707331  1  1.0354  -0.566093  0.742207  0.737239  -0.749052  2.256851  -0.564
Cu  Cu3  1  0.77655820  0.13393417  0.91707692  1  1.035711  0.566358  0.742182  0.737147  0.749494  2.256907  0.565
Cu  Cu4  1  0.27658257  0.86606704  0.58292709  1  1.035186  -0.566106  0.742152  0.737165  -0.74906  2.256969  -0.564
Cu  Cu5  1  0.27655335  0.36606886  0.91707533  1  1.035217  0.566361  0.742127  0.737229  0.749506  2.256782  0.565
Cu  Cu6  1  0.77658237  0.63392919  0.58293223  1  1.035228  0.566119  0.742169  0.737172  0.749095  2.256982  0.564
Cu  Cu7  1  0.22344964  0.86607579  0.08293792  1  1.035023  -0.56635  0.742134  0.73747  -0.749534  2.256543  -0.565
H  H8  1  0.00216457  0.12400202  0.61744398  1  0.556082  0.000332  0.301079  0.27643  0.000251  1.021077  0.0
H  H9  1  0.00217050  0.62398697  0.88255638  1  0.556218  -0.000331  0.301064  0.276573  -0.000245  1.020875  0.0
H  H10  1  0.50216005  0.37601326  0.61744301  1  0.556271  -0.000332  0.301106  0.276576  -0.000248  1.020834  0.0
H  H11  1  0.49782292  0.12399287  0.11745411  1  0.556048  0.000331  0.301046  0.276545  0.000249  1.020942  0.0
H  H12  1  0.99784453  0.87599598  0.38255447  1  0.556108  -0.000332  0.301098  0.276465  -0.000251  1.02103  0.0
H  H13  1  0.99783356  0.37601733  0.11745226  1  0.556134  0.000331  0.301069  0.276573  0.000245  1.020914  0.0
H  H14  1  0.49783769  0.62398222  0.38255854  1  0.556336  0.000332  0.301116  0.276598  0.000248  1.020917  0.0
H  H15  1  0.50216471  0.87601961  0.88255851  1  0.556284  -0.000331  0.301092  0.276594  -0.000249  1.020899  0.0
H  H16  1  0.98444490  0.06144482  0.51500108  1  0.153897  0.000295  0.133655  0.09712  2e-05  1.031993  0.0
H  H17  1  0.98445096  0.56144384  0.98500824  1  0.154011  -0.000294  0.133609  0.097054  -1.9e-05  1.032036  0.0
H  H18  1  0.48444595  0.43855808  0.51499313  1  0.15394  -0.000295  0.133608  0.096996  -2.1e-05  1.032086  0.0
H  H19  1  0.51555835  0.06144153  0.01500436  1  0.153898  0.000294  0.133684  0.097114  1.9e-05  1.031968  0.0
H  H20  1  0.01558315  0.93855633  0.48499604  1  0.153294  -0.000295  0.133695  0.097199  -2e-05  1.031939  0.0
H  H21  1  0.01556950  0.43856675  0.01500483  1  0.15372  0.000294  0.133698  0.097126  1.9e-05  1.031883  0.0
H  H22  1  0.51557958  0.56143426  0.48500576  1  0.153097  0.000294  0.133654  0.097106  2.1e-05  1.031992  0.0
H  H23  1  0.48445833  0.93856277  0.98501049  1  0.153817  -0.000294  0.13368  0.097119  -1.9e-05  1.031972  0.0
H  H24  1  0.66421764  0.27347678  0.51261673  1  0.136453  0.000543  0.119493  0.121282  0.000221  1.030792  0.001
H  H25  1  0.66418195  0.77346197  0.98737351  1  0.135721  -0.000482  0.119416  0.121311  -0.000173  1.030807  -0.001
H  H26  1  0.16423621  0.22652601  0.51261989  1  0.136701  -0.000543  0.119423  0.121295  -0.000222  1.030869  -0.001
H  H27  1  0.83583889  0.27345091  0.01264039  1  0.136329  0.000481  0.119377  0.121413  0.000173  1.030534  0.001
H  H28  1  0.33580914  0.72652374  0.48737640  1  0.136345  -0.000542  0.119462  0.12131  -0.000221  1.030759  -0.001
H  H29  1  0.33580063  0.22653603  0.01263291  1  0.135947  0.000481  0.11938  0.121307  0.000173  1.030751  0.001
H  H30  1  0.83578931  0.77346695  0.48737678  1  0.136117  0.000543  0.119419  0.121265  0.000222  1.030792  0.001
H  H31  1  0.16417022  0.72655590  0.98737135  1  0.136359  -0.000481  0.119433  0.121367  -0.000173  1.03058  -0.001
H  H32  1  0.81484367  0.26015005  0.62436182  1  0.123901  0.000809  0.123111  0.120489  0.000428  0.997261  0.0
H  H33  1  0.81483595  0.76012549  0.87563129  1  0.124163  -0.000773  0.123102  0.120557  -0.000408  0.997127  0.0
H  H34  1  0.31484426  0.23986983  0.62436592  1  0.124173  -0.000769  0.123114  0.120565  -0.0004  0.997178  0.0
H  H35  1  0.68516246  0.26012629  0.12437946  1  0.123853  0.000752  0.122995  0.120363  0.000391  0.997251  0.0
H  H36  1  0.18514649  0.73984166  0.37563663  1  0.123754  -0.000809  0.123133  0.120513  -0.000428  0.997321  0.0
H  H37  1  0.18514537  0.23986999  0.12437425  1  0.12391  0.000773  0.123083  0.120544  0.000408  0.997241  0.0
H  H38  1  0.68513454  0.76013321  0.37563696  1  0.124286  0.000768  0.123132  0.120569  0.0004  0.997233  0.0
H  H39  1  0.31482896  0.73988682  0.87563140  1  0.124348  -0.000751  0.123133  0.120595  -0.000391  0.997231  0.0
H  H40  1  0.62250199  0.99196414  0.28770758  1  0.060702  0.002869  0.110703  0.113179  0.001551  0.996877  0.001
H  H41  1  0.62248764  0.49199131  0.21230649  1  0.060578  -0.002947  0.110779  0.113189  -0.00158  0.996936  -0.001
H  H42  1  0.12249025  0.50803427  0.28770764  1  0.060564  -0.002923  0.110725  0.113156  -0.001575  0.996814  -0.001
H  H43  1  0.87747133  0.99199636  0.78769234  1  0.061075  0.002902  0.110766  0.113338  0.001567  0.996924  0.001
H  H44  1  0.37751090  0.00802064  0.71229618  1  0.060557  -0.002869  0.11073  0.113171  -0.001551  0.996919  -0.001
H  H45  1  0.37750631  0.50801172  0.78769816  1  0.060689  0.002947  0.110746  0.113221  0.001579  0.997034  0.001
H  H46  1  0.87751380  0.49197947  0.71230277  1  0.060427  0.002922  0.110761  0.113178  0.001575  0.996903  0.001
H  H47  1  0.12245822  0.00802745  0.21231009  1  0.060034  -0.002904  0.110728  0.113105  -0.001567  0.996835  -0.001
H  H48  1  0.76053807  0.07980422  0.28799393  1  0.088428  -0.000154  0.122008  0.129999  -0.000249  0.985542  0.0
H  H49  1  0.76054502  0.57982300  0.21200814  1  0.087993  -9.3e-05  0.121987  0.12994  5.4e-05  0.985758  0.0
H  H50  1  0.26052944  0.42019300  0.28798813  1  0.088303  0.000132  0.121982  0.129882  0.000244  0.985603  0.0
H  H51  1  0.73941842  0.07983093  0.78799921  1  0.088133  7.1e-05  0.121946  0.130123  -5.8e-05  0.985657  0.0
H  H52  1  0.23945083  0.92018874  0.71199742  1  0.08854  0.000154  0.121981  0.129968  0.000249  0.98564  0.0
H  H53  1  0.23944388  0.42018130  0.78799961  1  0.088361  9.3e-05  0.122007  0.130028  -5.4e-05  0.985557  0.0
H  H54  1  0.73945567  0.57981130  0.71200766  1  0.088233  -0.000131  0.122011  0.13  -0.000244  0.985517  0.0
H  H55  1  0.26053007  0.92019666  0.21201563  1  0.088276  -7.1e-05  0.121964  0.12985  5.9e-05  0.98557  0.0
H  H56  1  0.61825453  0.18442517  0.28952683  1  0.065927  -0.000282  0.1212  0.130969  -0.000358  0.968262  0.0
H  H57  1  0.61826027  0.68445337  0.21047227  1  0.066312  -0.000221  0.121193  0.130977  -6.7e-05  0.968295  0.0
H  H58  1  0.11827736  0.31556406  0.28952592  1  0.066347  0.000284  0.121229  0.131075  0.000363  0.968369  0.0
H  H59  1  0.88171843  0.18445610  0.78953817  1  0.065863  0.000239  0.121229  0.131006  8.3e-05  0.968251  0.0
H  H60  1  0.38173311  0.81555961  0.71046408  1  0.066144  0.000282  0.121232  0.130956  0.000358  0.968404  0.0
H  H61  1  0.38171474  0.31554589  0.78954168  1  0.065851  0.000221  0.1212  0.130976  6.7e-05  0.968409  0.0
H  H62  1  0.88171659  0.68444842  0.71046543  1  0.065944  -0.000284  0.121238  0.131023  -0.000363  0.968365  0.0
H  H63  1  0.11825405  0.81556267  0.21047446  1  0.066272  -0.000239  0.121145  0.130887  -8.3e-05  0.968378  0.0
H  H64  1  0.40140922  0.15788115  0.29403888  1  0.09673  0.002345  0.110803  0.11842  0.001283  0.992319  0.001
H  H65  1  0.40141765  0.65789106  0.20597520  1  0.096433  -0.002592  0.110898  0.118527  -0.001459  0.992198  -0.001
H  H66  1  0.90142695  0.34210400  0.29403290  1  0.096627  -0.002537  0.110876  0.118497  -0.001445  0.992244  -0.001
H  H67  1  0.09855984  0.15788850  0.79402790  1  0.096703  0.002397  0.110861  0.118583  0.001292  0.9922  0.001
H  H68  1  0.59857968  0.84212377  0.70597020  1  0.09653  -0.002345  0.110807  0.118513  -0.001283  0.992181  -0.001
H  H69  1  0.59856115  0.34210505  0.79402989  1  0.096739  0.002592  0.11085  0.118563  0.001459  0.992186  0.001
H  H70  1  0.09856447  0.65788456  0.70597884  1  0.09651  0.002537  0.110873  0.118501  0.001445  0.992262  0.001
H  H71  1  0.90141391  0.84212649  0.20597719  1  0.096316  -0.002398  0.110873  0.118548  -0.001292  0.992107  -0.001
H  H72  1  0.39507033  0.11220129  0.45758245  1  0.05183  -0.00026  0.086734  0.117767  -0.000252  1.035352  0.0
H  H73  1  0.39510225  0.61221613  0.04241418  1  0.051727  0.000256  0.086885  0.117982  0.000259  1.035113  0.0
H  H74  1  0.89506932  0.38779659  0.45758330  1  0.053406  0.000256  0.086701  0.117715  0.00025  1.035377  0.0
H  H75  1  0.10494953  0.11220169  0.95757721  1  0.052179  -0.000259  0.086631  0.117694  -0.000261  1.035388  0.0
H  H76  1  0.60490468  0.88778852  0.54240314  1  0.053081  0.000259  0.086815  0.117888  0.000252  1.035129  0.0
H  H77  1  0.60492200  0.38778565  0.95758648  1  0.053285  -0.000256  0.08676  0.11782  -0.000259  1.035152  0.0
H  H78  1  0.10493094  0.61220708  0.54241691  1  0.053432  -0.000256  0.086693  0.117735  -0.00025  1.03535  0.0
H  H79  1  0.89511261  0.88778876  0.04241769  1  0.051921  0.000259  0.086858  0.117901  0.000261  1.035165  0.0
H  H80  1  0.26152061  0.14776509  0.39933993  1  0.076668  -2.6e-05  0.093131  0.145969  -4.7e-05  1.024491  0.0
H  H81  1  0.26152899  0.64778105  0.10065031  1  0.076184  5.8e-05  0.093125  0.146023  4.2e-05  1.024383  0.0
H  H82  1  0.76152800  0.35222298  0.39934152  1  0.076522  2.5e-05  0.093141  0.146043  5.6e-05  1.024282  0.0
H  H83  1  0.23848409  0.14775466  0.89933103  1  0.076528  -5.9e-05  0.093139  0.146001  -3.3e-05  1.024485  0.0
H  H84  1  0.73847966  0.85222094  0.60063946  1  0.077121  2.6e-05  0.093188  0.146097  4.7e-05  1.024387  0.0
H  H85  1  0.73847759  0.35222073  0.89934415  1  0.076465  -5.8e-05  0.093135  0.146027  -4.2e-05  1.024387  0.0
H  H86  1  0.23848616  0.64776998  0.60065869  1  0.076549  -2.5e-05  0.093136  0.145989  -5.6e-05  1.024429  0.0
H  H87  1  0.76153133  0.85223201  0.10065279  1  0.076411  5.8e-05  0.093132  0.145985  3.3e-05  1.024521  0.0
H  H88  1  0.21296175  0.05355509  0.43612745  1  0.033811  -0.00024  0.090863  0.134394  -9.7e-05  1.009529  0.0
H  H89  1  0.21299796  0.55356633  0.06386306  1  0.033522  0.000248  0.090979  0.134594  9.5e-05  1.009492  0.0
H  H90  1  0.71295055  0.44643608  0.43612322  1  0.033456  0.000239  0.09086  0.134415  9.9e-05  1.009462  0.0
H  H91  1  0.28703244  0.05354313  0.93611303  1  0.033018  -0.000248  0.090952  0.134574  -9.3e-05  1.009477  0.0
H  H92  1  0.78701199  0.94643913  0.56385150  1  0.033371  0.00024  0.090947  0.134552  9.7e-05  1.009469  0.0
H  H93  1  0.78702882  0.44643482  0.93612963  1  0.033575  -0.000248  0.090888  0.134495  -9.5e-05  1.009446  0.0
H  H94  1  0.28703330  0.55355499  0.56387301  1  0.033848  -0.000239  0.090835  0.134366  -9.9e-05  1.009492  0.0
H  H95  1  0.71300192  0.94644291  0.06386060  1  0.033253  0.000248  0.090887  0.134481  9.3e-05  1.009511  0.0
H  H96  1  0.55173258  0.91594608  0.38046117  1  0.037783  1e-06  0.08803  0.123507  0.0  1.021309  0.0
H  H97  1  0.55173415  0.41596115  0.11954490  1  0.037719  1.4e-05  0.08802  0.123456  1.5e-05  1.021346  0.0
H  H98  1  0.05170140  0.58404658  0.38044913  1  0.037878  -6e-06  0.087973  0.123412  0.0  1.021543  0.0
H  H99  1  0.94823036  0.91595398  0.88045849  1  0.03742  -9e-06  0.088138  0.123668  -6e-06  1.021227  0.0
H  H100  1  0.44828284  0.08404689  0.61952929  1  0.03821  -1e-06  0.087898  0.123341  -0.0  1.021474  0.0
H  H101  1  0.44827874  0.58404377  0.88046063  1  0.038041  -1.3e-05  0.087976  0.123389  -1.5e-05  1.021368  0.0
H  H102  1  0.94828624  0.41595205  0.61954266  1  0.037956  6e-06  0.087977  0.123416  0.0  1.021399  0.0
H  H103  1  0.05173707  0.08404969  0.11953508  1  0.037894  9e-06  0.087963  0.123425  6e-06  1.021264  0.0
H  H104  1  0.56998384  0.97793375  0.44595707  1  0.053614  -0.000198  0.088657  0.123862  -0.00021  1.031832  0.0
H  H105  1  0.57001426  0.47794197  0.05404829  1  0.053485  0.000183  0.088685  0.123943  0.000201  1.03167  0.0
H  H106  1  0.06996546  0.52206754  0.44594833  1  0.05389  0.000182  0.088603  0.123616  0.000202  1.031953  0.0
H  H107  1  0.92999302  0.97794175  0.94595624  1  0.053514  -0.000198  0.088623  0.123914  -0.000208  1.031661  0.0
H  H108  1  0.43000507  0.02206174  0.55403428  1  0.053293  0.000197  0.088567  0.123749  0.00021  1.031841  0.0
H  H109  1  0.43001505  0.52206169  0.94595813  1  0.053546  -0.000182  0.088645  0.123808  -0.0002  1.031794  0.0
H  H110  1  0.93002218  0.47793550  0.55404702  1  0.053725  -0.000182  0.088689  0.12387  -0.000202  1.031686  0.0
H  H111  1  0.07001735  0.02205436  0.05404398  1  0.053283  0.000198  0.08865  0.123902  0.000208  1.031668  0.0
H  H112  1  0.37693837  0.92721063  0.42816026  1  0.057049  -0.000163  0.089647  0.128583  -5.9e-05  1.05283  0.0
H  H113  1  0.37695932  0.42722593  0.07184216  1  0.056996  0.000165  0.089581  0.128572  5.8e-05  1.052927  0.0
H  H114  1  0.87691181  0.57278563  0.42814964  1  0.057281  0.000162  0.089631  0.128496  6.1e-05  1.052817  0.0
H  H115  1  0.12303594  0.92721344  0.92815095  1  0.057302  -0.000166  0.089599  0.128645  -5.7e-05  1.052807  0.0
H  H116  1  0.62306316  0.07277603  0.57182755  1  0.056813  0.000163  0.08966  0.12859  5.9e-05  1.052891  0.0
H  H117  1  0.62307125  0.57277710  0.92815850  1  0.057016  -0.000165  0.089631  0.12854  -5.8e-05  1.052886  0.0
H  H118  1  0.12307457  0.42721804  0.57184393  1  0.057401  -0.000162  0.089639  0.128554  -6.1e-05  1.052846  0.0
H  H119  1  0.87696054  0.07277952  0.07183198  1  0.05714  0.000166  0.08967  0.128648  5.7e-05  1.052991  0.0
H  H120  1  0.24680463  0.06264648  0.30219020  1  0.020023  -0.000231  0.090943  0.130449  -0.000201  1.011328  0.0
H  H121  1  0.24677673  0.56266766  0.19779976  1  0.02  -0.000234  0.091051  0.130541  -9.3e-05  1.011367  0.0
H  H122  1  0.74678607  0.43732764  0.30218859  1  0.01991  -0.000234  0.091025  0.130466  -0.000103  1.011481  0.0
H  H123  1  0.25316003  0.06264163  0.80218035  1  0.019838  -0.000229  0.091039  0.130517  -0.000215  1.01138  0.0
H  H124  1  0.75322594  0.93733515  0.69778697  1  0.020227  0.000231  0.090979  0.130395  0.000201  1.011491  0.0
H  H125  1  0.75320333  0.43732908  0.80219470  1  0.020054  0.000234  0.091029  0.130532  9.3e-05  1.011398  0.0
H  H126  1  0.25320410  0.56265966  0.69780808  1  0.01982  0.000234  0.091049  0.130566  0.000103  1.011402  0.0
H  H127  1  0.74677836  0.93735574  0.19780125  1  0.020164  0.000229  0.09092  0.130355  0.000215  1.011473  0.0
H  H128  1  0.37334520  0.97087809  0.29316493  1  0.012769  -3.9e-05  0.087149  0.120584  -4.7e-05  1.026566  0.0
H  H129  1  0.37332978  0.47090396  0.20683502  1  0.013198  -2.2e-05  0.087175  0.120606  2.7e-05  1.026386  0.0
H  H130  1  0.87331459  0.52909818  0.29315724  1  0.013665  -5.2e-05  0.087222  0.120591  9e-06  1.02649  0.0
H  H131  1  0.12660639  0.97087773  0.79315782  1  0.012433  -7e-06  0.087222  0.120634  -3e-05  1.02633  0.0
H  H132  1  0.62667653  0.02909788  0.70682598  1  0.013451  3.9e-05  0.087081  0.120444  4.6e-05  1.026383  0.0
H  H133  1  0.62666165  0.52909782  0.79316342  1  0.013036  2.3e-05  0.087193  0.120628  -2.7e-05  1.026372  0.0
H  H134  1  0.12666673  0.47089416  0.70683766  1  0.013694  5.3e-05  0.087146  0.120621  -9e-06  1.026548  0.0
H  H135  1  0.87331433  0.02912405  0.20682954  1  0.013885  8e-06  0.087163  0.120671  3e-05  1.02643  0.0
H  H136  1  0.20222569  0.97149381  0.34372049  1  0.070497  0.001774  0.093816  0.139994  0.000871  1.022863  0.001
H  H137  1  0.20223480  0.47150793  0.15627131  1  0.070681  -0.001785  0.093759  0.140016  -0.000855  1.022905  -0.001
H  H138  1  0.70219888  0.52848635  0.34371324  1  0.069909  -0.00179  0.09378  0.139966  -0.000857  1.022993  -0.001
H  H139  1  0.29773040  0.97148682  0.84371002  1  0.06899  0.001778  0.093826  0.140008  0.000868  1.022811  0.001
H  H140  1  0.79777205  0.02849411  0.65626200  1  0.070574  -0.001775  0.093808  0.139992  -0.000871  1.022787  -0.001
H  H141  1  0.79777305  0.52848755  0.84372138  1  0.070667  0.001785  0.093806  0.140031  0.000855  1.022924  0.001
H  H142  1  0.29777739  0.47150283  0.65628077  1  0.07059  0.001788  0.093797  0.139979  0.000857  1.02294  0.001
H  H143  1  0.70222188  0.02850488  0.15626538  1  0.070392  -0.001773  0.093828  0.139994  -0.000868  1.022911  -0.001
C  C144  1  0.91590414  0.11706311  0.52856154  1  0.940409  -0.001324  0.139805  0.138652  -0.000365  3.94183  0.0
C  C145  1  0.91590059  0.61705824  0.97143987  1  0.940669  0.001394  0.139832  0.138669  0.000392  3.941739  0.0
C  C146  1  0.41590773  0.38294092  0.52855869  1  0.940861  0.001329  0.139756  0.13865  0.000365  3.941691  0.0
C  C147  1  0.58410745  0.11705377  0.02857030  1  0.94162  -0.001394  0.139767  0.138651  -0.000393  3.941841  0.0
C  C148  1  0.08411760  0.88293741  0.47143513  1  0.942375  0.001328  0.139893  0.138586  0.000365  3.941965  0.0
C  C149  1  0.08410852  0.38295172  0.02857010  1  0.941887  -0.001394  0.139686  0.138501  -0.000393  3.941982  0.0
C  C150  1  0.58411021  0.61705142  0.47144109  1  0.941359  -0.001328  0.139809  0.138673  -0.000365  3.941857  0.0
C  C151  1  0.41590418  0.88294990  0.97144189  1  0.940584  0.001395  0.139695  0.138549  0.000394  3.942123  0.0
C  C152  1  0.75288607  0.22792383  0.53000720  1  0.436524  0.000234  -0.002681  -0.031177  0.000651  3.974485  0.001
C  C153  1  0.75286615  0.72790951  0.96998736  1  0.436986  -0.000233  -0.002554  -0.031279  -0.000656  3.974718  -0.001
C  C154  1  0.25289601  0.27208238  0.53000877  1  0.436625  -0.000232  -0.002652  -0.031247  -0.000652  3.974769  -0.001
C  C155  1  0.74714690  0.22790161  0.03002680  1  0.436699  0.000231  -0.002536  -0.031486  0.000656  3.974396  0.001
C  C156  1  0.24713440  0.77207668  0.46998726  1  0.436561  -0.000234  -0.002521  -0.031052  -0.000651  3.974549  -0.001
C  C157  1  0.24712401  0.27209164  0.03002128  1  0.437206  0.000231  -0.002599  -0.031416  0.000656  3.974612  0.001
C  C158  1  0.74711941  0.72791310  0.46999012  1  0.436978  0.000232  -0.002646  -0.031234  0.000652  3.97459  0.001
C  C159  1  0.25285715  0.77210583  0.96998583  1  0.436804  -0.000232  -0.002622  -0.031357  -0.000656  3.974759  -0.001
C  C160  1  0.82686247  0.22146191  0.58501495  1  0.284892  0.002887  -0.000498  -0.058519  0.001992  3.950407  0.002
C  C161  1  0.82685082  0.72144524  0.91498060  1  0.284535  -0.002848  -0.000395  -0.058505  -0.001965  3.950343  -0.002
C  C162  1  0.32686847  0.27855001  0.58501655  1  0.284183  -0.00288  -0.000417  -0.058593  -0.001983  3.950436  -0.002
C  C163  1  0.67315480  0.22144326  0.08503220  1  0.284156  0.002844  -0.000372  -0.058324  0.001957  3.950232  0.002
C  C164  1  0.17314285  0.77853105  0.41498172  1  0.284789  -0.002886  -0.000607  -0.058711  -0.001991  3.950379  -0.002
C  C165  1  0.17313555  0.27855465  0.08502848  1  0.28396  0.002849  -0.000376  -0.058556  0.001965  3.950314  0.002
C  C166  1  0.67312800  0.72144925  0.41498456  1  0.284355  0.002879  -0.00039  -0.058534  0.001983  3.950494  0.002
C  C167  1  0.32684168  0.77856859  0.91497954  1  0.284163  -0.002843  -0.000272  -0.058366  -0.001957  3.950315  -0.002
C  C168  1  0.68761516  0.03720105  0.31645360  1  0.264942  0.000101  -0.076824  -0.240714  0.000802  3.897347  -0.002
C  C169  1  0.68761680  0.53721643  0.18355215  1  0.265287  -0.000305  -0.076717  -0.240393  -0.00094  3.897437  0.002
C  C170  1  0.18760933  0.46279368  0.31645240  1  0.265084  -0.00015  -0.076743  -0.240354  -0.000842  3.89691  0.002
C  C171  1  0.81235393  0.03722041  0.81644971  1  0.265159  0.000258  -0.076783  -0.241049  0.000903  3.897664  -0.002
C  C172  1  0.31238890  0.96279444  0.68354263  1  0.264887  -0.000101  -0.076723  -0.240432  -0.000802  3.897287  0.002
C  C173  1  0.31238347  0.46278723  0.81645338  1  0.264962  0.000307  -0.076775  -0.240716  0.00094  3.897483  -0.002
C  C174  1  0.81238462  0.53720558  0.68355092  1  0.265138  0.00015  -0.076841  -0.240651  0.000842  3.897124  -0.002
C  C175  1  0.18760213  0.96280214  0.18355760  1  0.265494  -0.000257  -0.076745  -0.240395  -0.000903  3.897026  0.002
C  C176  1  0.81667732  0.99197080  0.35525120  1  1.593768  -6.9e-05  0.207164  0.606342  0.001293  4.163348  0.0
C  C177  1  0.81665906  0.49197601  0.14475675  1  1.593229  9.5e-05  0.207215  0.606421  -0.001238  4.163048  0.0
C  C178  1  0.31666811  0.50802267  0.35525170  1  1.592953  5.9e-05  0.207149  0.606199  -0.001297  4.163323  0.0
C  C179  1  0.68331380  0.99197515  0.85524917  1  1.592824  -0.000105  0.20694  0.605994  0.001237  4.163838  0.0
C  C180  1  0.18333936  0.00803350  0.64474592  1  1.593584  7.1e-05  0.20704  0.606083  -0.001293  4.163532  0.0
C  C181  1  0.18333489  0.50803270  0.85525056  1  1.59357  -9.3e-05  0.207193  0.606376  0.001239  4.163194  0.0
C  C182  1  0.68334100  0.49196777  0.64475428  1  1.593014  -5.9e-05  0.207229  0.60646  0.001296  4.163265  0.0
C  C183  1  0.31664605  0.00804236  0.14476168  1  1.580519  0.00011  0.207344  0.606383  -0.001235  4.162982  0.0
C  C184  1  0.51664652  0.16676461  0.32025285  1  0.236873  -6.8e-05  -0.077788  -0.237081  0.000619  3.884484  -0.002
C  C185  1  0.51663946  0.66677997  0.17975370  1  0.236636  -0.000288  -0.077975  -0.237388  -0.000972  3.884488  0.002
C  C186  1  0.01665883  0.33322229  0.32024935  1  0.23646  -9e-06  -0.077987  -0.237522  -0.000703  3.884791  0.002
C  C187  1  0.98334470  0.16677546  0.82025268  1  0.236985  0.000212  -0.07796  -0.237653  0.000894  3.884607  -0.002
C  C188  1  0.48336259  0.83322898  0.67974604  1  0.236826  6.8e-05  -0.077915  -0.237316  -0.000619  3.884363  0.002
C  C189  1  0.48334187  0.33322433  0.82025583  1  0.237181  0.000288  -0.07793  -0.237604  0.000973  3.884697  -0.002
C  C190  1  0.98335153  0.66677445  0.67975131  1  0.237183  1e-05  -0.07797  -0.237538  0.000704  3.884756  -0.002
C  C191  1  0.01663536  0.83323576  0.17975552  1  0.236902  -0.000212  -0.077723  -0.237062  -0.000893  3.884509  0.002
C  C192  1  0.49718457  0.24089873  0.36268896  1  1.592852  -7.1e-05  0.203055  0.60481  0.001589  4.178426  0.0
C  C193  1  0.49713735  0.74090806  0.13730822  1  1.593013  0.001124  0.203009  0.604902  -0.000712  4.178683  0.001
C  C194  1  0.99719159  0.25909400  0.36268751  1  1.592584  5.7e-05  0.202977  0.604866  -0.00159  4.178198  0.0
C  C195  1  0.00285085  0.24089781  0.86270186  1  1.591991  -0.001136  0.202958  0.604904  0.00071  4.178633  -0.001
C  C196  1  0.50286621  0.75910053  0.63730373  1  1.592956  6.9e-05  0.202881  0.604756  -0.00159  4.178995  0.0
C  C197  1  0.50284776  0.25910064  0.86270574  1  1.591705  -0.001127  0.203013  0.604985  0.00071  4.178496  -0.001
C  C198  1  0.00286045  0.74089581  0.63730561  1  1.592514  -5.6e-05  0.202817  0.604934  0.00159  4.178903  0.0
C  C199  1  0.99714058  0.75911152  0.13730855  1  1.592866  0.001139  0.202758  0.604896  -0.000708  4.178918  0.001
C  C200  1  0.42027977  0.03817465  0.37631982  1  0.264779  0.00198  0.067088  0.338629  0.001889  3.737375  0.0
C  C201  1  0.42028607  0.53819079  0.12367996  1  0.264818  -0.002103  0.067021  0.338669  -0.00196  3.737453  0.0
C  C202  1  0.92025938  0.46181486  0.37631609  1  0.265044  -0.002058  0.066947  0.338238  -0.00193  3.737561  0.0
C  C203  1  0.07970302  0.03817833  0.87631645  1  0.265464  0.002025  0.067107  0.338605  0.00192  3.73757  0.0
C  C204  1  0.57972302  0.96181580  0.62366976  1  0.264573  -0.001983  0.06701  0.338328  -0.001891  3.737839  0.0
C  C205  1  0.57972051  0.46180910  0.87632203  1  0.264847  0.002103  0.067003  0.338429  0.00196  3.737708  0.0
C  C206  1  0.07972826  0.53818188  0.62368279  1  0.264984  0.002061  0.067076  0.338611  0.001931  3.737097  0.0
C  C207  1  0.92028209  0.96182030  0.12367933  1  0.265035  -0.002024  0.067042  0.338491  -0.00192  3.737465  0.0
C  C208  1  0.31825905  0.09191154  0.41967559  1  -0.105068  0.000214  -0.249084  -0.446839  -5.9e-05  3.864545  0.0
C  C209  1  0.31828078  0.59192543  0.08032040  1  -0.104401  -0.000335  -0.249332  -0.447324  -2.7e-05  3.864594  0.0
C  C210  1  0.81825505  0.40808016  0.41967519  1  -0.106307  -0.000215  -0.249046  -0.446875  7.2e-05  3.864633  0.0
C  C211  1  0.18173990  0.09190646  0.91966825  1  -0.104249  0.000334  -0.249109  -0.447014  3.9e-05  3.86491  0.0
C  C212  1  0.68172354  0.90807827  0.58031089  1  -0.106709  -0.000214  -0.249339  -0.447262  5.9e-05  3.864743  0.0
C  C213  1  0.68173842  0.40807508  0.91967760  1  -0.106347  0.000334  -0.249113  -0.447025  2.6e-05  3.8646  0.0
C  C214  1  0.18174143  0.59191658  0.58032414  1  -0.106651  0.000215  -0.249045  -0.44687  -7.2e-05  3.864504  0.0
C  C215  1  0.81828183  0.90808398  0.08032045  1  -0.104337  -0.000335  -0.249251  -0.447065  -4e-05  3.864668  0.0
C  C216  1  0.48554040  0.96055237  0.40943948  1  -0.108286  1e-06  -0.24973  -0.450183  -0.000176  3.88731  0.0
C  C217  1  0.48555689  0.46056657  0.09056395  1  -0.10778  -4.1e-05  -0.249699  -0.45027  0.000154  3.887298  0.0
C  C218  1  0.98551586  0.53944375  0.40943050  1  -0.108669  -2.7e-05  -0.249574  -0.449643  0.000162  3.88729  0.0
C  C219  1  0.01442750  0.96055705  0.90943594  1  -0.108788  1.7e-05  -0.249742  -0.450495  -0.000163  3.887312  0.0
C  C220  1  0.51445861  0.03943682  0.59055099  1  -0.107674  -0.0  -0.249492  -0.449833  0.000176  3.887476  0.0
C  C221  1  0.51446610  0.53943584  0.90943937  1  -0.108196  4.1e-05  -0.249677  -0.449971  -0.000153  3.887315  0.0
C  C222  1  0.01446799  0.46055928  0.59056440  1  -0.108921  2.7e-05  -0.249723  -0.450104  -0.000162  3.887277  0.0
C  C223  1  0.98555635  0.03943970  0.09055807  1  -0.108271  -1.7e-05  -0.249649  -0.450215  0.000163  3.887327  0.0
C  C224  1  0.30526539  0.00959742  0.32554367  1  -0.068611  0.006636  -0.246011  -0.441458  0.004875  3.872813  0.005
C  C225  1  0.30525346  0.50961399  0.17445382  1  -0.069173  -0.007048  -0.245989  -0.441534  -0.005221  3.872705  -0.005
C  C226  1  0.80524055  0.49038539  0.32553828  1  -0.069003  -0.007051  -0.246055  -0.441371  -0.005238  3.872738  -0.005
C  C227  1  0.19469588  0.00959353  0.82553406  1  -0.066646  0.006631  -0.246196  -0.441623  0.004864  3.87282  0.005
C  C228  1  0.69475003  0.99038988  0.67444370  1  -0.069424  -0.006635  -0.245856  -0.441083  -0.004875  3.872476  -0.005
C  C229  1  0.69474175  0.49038527  0.82554463  1  -0.069105  0.007048  -0.246025  -0.441546  0.005221  3.872942  0.005
C  C230  1  0.19474457  0.50960632  0.67445928  1  -0.069538  0.007052  -0.246032  -0.441562  0.005238  3.872867  0.005
C  C231  1  0.80524756  0.99040636  0.17445286  1  -0.069993  -0.006639  -0.245966  -0.441317  -0.004866  3.872547  -0.005
N  N232  1  0.92877278  0.15126974  0.58309135  1  -1.279335  0.002255  -0.377045  -0.20612  0.001358  3.689907  0.002
N  N233  1  0.92877243  0.65125560  0.91690926  1  -1.278971  -0.002306  -0.377057  -0.206273  -0.00139  3.689616  -0.002
N  N234  1  0.42877085  0.34874537  0.58309102  1  -1.279165  -0.002254  -0.377076  -0.206162  -0.001359  3.68954  -0.002
N  N235  1  0.57122597  0.15125669  0.08310237  1  -1.278993  0.002307  -0.377007  -0.206249  0.001391  3.68959  0.002
N  N236  1  0.07123380  0.84872574  0.41690576  1  -1.279431  -0.002255  -0.376984  -0.205997  -0.001358  3.689541  -0.002
N  N237  1  0.07122909  0.34874869  0.08310071  1  -1.278886  0.002308  -0.377092  -0.206203  0.001391  3.689741  0.002
N  N238  1  0.57123320  0.65125326  0.41691097  1  -1.279029  0.002253  -0.377125  -0.206299  0.001359  3.68973  0.002
N  N239  1  0.42877303  0.84875264  0.91691114  1  -1.278837  -0.002306  -0.377093  -0.206375  -0.00139  3.68986  -0.002
N  N240  1  0.80947534  0.16210802  0.49529015  1  -1.210439  0.060458  -0.389953  -0.304264  0.041485  3.672704  0.051
N  N241  1  0.80945683  0.66210051  0.00470806  1  -1.210864  -0.060527  -0.390085  -0.304272  -0.041637  3.672661  -0.051
N  N242  1  0.30948250  0.33789318  0.49528845  1  -1.211132  -0.060461  -0.389898  -0.304166  -0.041484  3.672556  -0.051
N  N243  1  0.69056027  0.16209282  0.99530583  1  -1.211257  0.060524  -0.390062  -0.304195  0.041638  3.673176  0.051
N  N244  1  0.19055397  0.83789439  0.50470386  1  -1.211403  -0.060439  -0.390202  -0.304448  -0.041471  3.67302  -0.051
N  N245  1  0.19054596  0.33790631  0.99530323  1  -1.211564  0.060534  -0.389934  -0.304031  0.041644  3.673071  0.051
N  N246  1  0.69054681  0.66209790  0.50470911  1  -1.210985  0.060445  -0.390018  -0.304273  0.041474  3.67272  0.051
N  N247  1  0.30945262  0.83791148  0.00470813  1  -1.210932  -0.060522  -0.39011  -0.304319  -0.041633  3.67297  -0.051
N  N248  1  0.57012205  0.08919357  0.35174727  1  -0.954688  0.104936  -0.339456  -0.114848  0.070647  3.441813  0.089
N  N249  1  0.57012368  0.58920992  0.14825829  1  -0.954546  -0.104858  -0.339541  -0.114974  -0.070595  3.441918  -0.089
N  N250  1  0.07011616  0.41079770  0.35174453  1  -0.954583  -0.10497  -0.339377  -0.114627  -0.070661  3.441546  -0.089
N  N251  1  0.92986100  0.08920661  0.85174467  1  -0.955247  0.104843  -0.339395  -0.114346  0.070589  3.441371  0.089
N  N252  1  0.42987696  0.91079813  0.64824585  1  -0.954626  -0.104936  -0.33948  -0.114812  -0.070643  3.44166  -0.089
N  N253  1  0.42987153  0.41079500  0.85174857  1  -0.954642  0.104846  -0.339497  -0.114642  0.070585  3.4419  0.089
N  N254  1  0.92987527  0.58920156  0.64825436  1  -0.954566  0.104958  -0.339493  -0.114686  0.070654  3.441647  0.089
N  N255  1  0.07011780  0.91080335  0.14826131  1  -0.954571  -0.104847  -0.339497  -0.115041  -0.070595  3.442197  -0.089
O  O256  1  0.85099035  0.02517350  0.40589079  1  -1.12317  0.089802  -0.327697  -0.541559  0.059457  2.281961  0.081
O  O257  1  0.85098129  0.52517429  0.09411645  1  -1.122655  -0.089813  -0.327847  -0.5418  -0.059437  2.281652  -0.081
O  O258  1  0.35097036  0.47481790  0.40589185  1  -1.122541  -0.089806  -0.32776  -0.541535  -0.059457  2.281758  -0.081
O  O259  1  0.64901245  0.02517238  0.90589245  1  -1.122466  0.089777  -0.32771  -0.541521  0.059414  2.281995  0.081
O  O260  1  0.14902507  0.97483206  0.59410633  1  -1.123198  -0.089817  -0.327726  -0.541552  -0.059467  2.281971  -0.081
O  O261  1  0.14902908  0.47483882  0.90589307  1  -1.123027  0.08979  -0.327784  -0.541698  0.059421  2.281895  0.081
O  O262  1  0.64903117  0.52517128  0.59411413  1  -1.122645  0.089827  -0.327804  -0.54167  0.059471  2.281723  0.081
O  O263  1  0.35097519  0.97484324  0.09412327  1  -1.123296  -0.089776  -0.328027  -0.541913  -0.059414  2.281874  -0.081
O  O264  1  0.88462482  0.92635771  0.33490751  1  -1.198452  0.015499  -0.324323  -0.537642  0.010039  2.127097  0.012
O  O265  1  0.88459573  0.42636246  0.16510388  1  -1.198149  -0.015486  -0.324321  -0.537675  -0.009985  2.126723  -0.012
O  O266  1  0.38461662  0.57363583  0.33490783  1  -1.198211  -0.015526  -0.324309  -0.53769  -0.009998  2.127121  -0.012
O  O267  1  0.61538243  0.92636245  0.83489868  1  -1.198201  0.01545  -0.32416  -0.537475  0.010003  2.127129  0.012
O  O268  1  0.11540954  0.07365162  0.66509094  1  -1.198159  -0.015497  -0.324226  -0.537494  -0.010037  2.126832  -0.012
O  O269  1  0.11540074  0.57364561  0.83490033  1  -1.198232  0.015482  -0.324317  -0.537647  0.009983  2.126756  0.012
O  O270  1  0.61540638  0.42635335  0.66509992  1  -1.197989  0.015525  -0.324303  -0.537699  0.009998  2.126908  0.012
O  O271  1  0.38457364  0.07366136  0.16511085  1  -1.184897  -0.015457  -0.324238  -0.5375  -0.010006  2.126668  -0.012
O  O272  1  0.58017839  0.23636936  0.41182681  1  -1.111836  0.114634  -0.31903  -0.523918  0.075504  2.327741  0.104
O  O273  1  0.58014555  0.73637577  0.08817444  1  -1.11196  -0.114176  -0.31886  -0.523815  -0.075205  2.328024  -0.103
O  O274  1  0.08018095  0.26362802  0.41182702  1  -1.111861  -0.114643  -0.318983  -0.523913  -0.075507  2.327707  -0.104
O  O275  1  0.91986478  0.23636546  0.91183710  1  -1.111487  0.114179  -0.318956  -0.523877  0.075217  2.327993  0.103
O  O276  1  0.41985597  0.76362738  0.58817119  1  -1.111576  -0.114634  -0.318867  -0.523735  -0.075505  2.327948  -0.104
O  O277  1  0.41983830  0.26362916  0.91183642  1  -1.111221  0.114189  -0.318963  -0.523937  0.075218  2.328029  0.103
O  O278  1  0.91985467  0.73636368  0.58817099  1  -1.111742  0.114642  -0.318883  -0.523863  0.075513  2.327821  0.104
O  O279  1  0.08014811  0.76363883  0.08817686  1  -1.111947  -0.114187  -0.318939  -0.524072  -0.075216  2.327846  -0.103
O  O280  1  0.40861442  0.30235568  0.34714200  1  -1.186612  0.026876  -0.330161  -0.564204  0.017385  2.206599  0.02
O  O281  1  0.40853508  0.80235759  0.15284959  1  -1.18695  -0.024849  -0.33014  -0.564296  -0.016215  2.206966  -0.021
O  O282  1  0.90862791  0.19763616  0.34714031  1  -1.186511  -0.026893  -0.330145  -0.564219  -0.017376  2.20641  -0.02
O  O283  1  0.09145422  0.30234797  0.84716163  1  -1.186299  0.02488  -0.330031  -0.564167  0.016238  2.206932  0.021
O  O284  1  0.59147297  0.69765491  0.65285157  1  -1.186921  -0.02686  -0.330095  -0.564249  -0.017374  2.207148  -0.02
O  O285  1  0.59146013  0.19765300  0.84716614  1  -1.186323  0.024861  -0.330023  -0.564097  0.016223  2.206893  0.021
O  O286  1  0.09146959  0.80234106  0.65284750  1  -1.186725  0.026877  -0.330036  -0.564287  0.017365  2.207199  0.02
O  O287  1  0.90853215  0.69766074  0.15284657  1  -1.186491  -0.02488  -0.329943  -0.564208  -0.016238  2.207044  -0.021
