# generated using pymatgen
data_CuH10C6(BrN4)2
_symmetry_space_group_name_H-M   'P 1'
_cell_length_a   6.83463914
_cell_length_b   7.79221938
_cell_length_c   11.07428953
_cell_angle_alpha   98.30959266
_cell_angle_beta   89.99980579
_cell_angle_gamma   90.00042050
_symmetry_Int_Tables_number   1
_chemical_formula_structural   CuH10C6(BrN4)2
_chemical_formula_sum   'Cu2 H20 C12 Br4 N16'
_cell_volume   583.59174187
_cell_formula_units_Z   2
loop_
 _symmetry_equiv_pos_site_id
 _symmetry_equiv_pos_as_xyz
  1  'x, y, z'
loop_
 _atom_site_type_symbol
 _atom_site_label
 _atom_site_symmetry_multiplicity
 _atom_site_fract_x
 _atom_site_fract_y
 _atom_site_fract_z
 _atom_site_occupancy
 _atom_site_hle17_ddec_charge
 _atom_site_hle17_ddec_spin_density
 _atom_site_hle17_ddec_sum_bond_order
 _atom_site_hle17_magmom
 _atom_site_hse06_10hf_ddec_charge
 _atom_site_hse06_10hf_ddec_spin_density
 _atom_site_hse06_10hf_ddec_sum_bond_order
 _atom_site_hse06_10hf_magmom
 _atom_site_hse06_ddec_charge
 _atom_site_hse06_ddec_spin_density
 _atom_site_hse06_ddec_sum_bond_order
 _atom_site_hse06_magmom
 _atom_site_pbe_cm5_charge
 _atom_site_pbe_ddec_charge
 _atom_site_pbe_ddec_spin_density
 _atom_site_pbe_ddec_sum_bond_order
 _atom_site_pbe_magmom
Cu  Cu0  1  0.00000293  0.00000260  0.00000116  1  0.669589  -0.534292  1.936527  -0.385  0.665789  -0.663394  2.317783  -0.514  0.764933  -0.766917  2.235181  -0.613  0.548499  0.61491  -0.586995  2.366882  -0.448
Cu  Cu1  1  0.49999625  0.49998371  0.99999599  1  0.66964  0.534298  1.936532  0.385  0.665758  0.663388  2.317794  0.514  0.764947  0.766932  2.2352  0.613  0.548505  0.614924  0.586998  2.366868  0.448
H  H2  1  0.45150500  0.99934466  0.11446275  1  0.127095  5.9e-05  0.963832  0.0  0.13488  -4.6e-05  1.029818  0.0  0.13949  -4.2e-05  1.023437  0.0  0.128545  0.131618  -5.9e-05  1.03396  0.0
H  H3  1  0.95149516  0.50066420  0.88554167  1  0.127111  -6.3e-05  0.963722  0.0  0.134911  4.6e-05  1.029696  0.0  0.139521  4.2e-05  1.023314  0.0  0.128563  0.131645  5.9e-05  1.033839  0.0
H  H4  1  0.54849467  0.00066429  0.88554722  1  0.12703  6.4e-05  0.963747  0.0  0.134849  -4.7e-05  1.029724  0.0  0.13946  -4.2e-05  1.02334  0.0  0.128557  0.131581  -5.9e-05  1.033867  0.0
H  H5  1  0.04847963  0.49930829  0.11444668  1  0.126864  -5.9e-05  0.963552  0.0  0.134727  4.7e-05  1.029538  0.0  0.139339  4.2e-05  1.023163  0.0  0.128466  0.13146  6e-05  1.033681  0.0
H  H6  1  0.53306598  0.26739886  0.41869194  1  0.086246  -7.5e-05  0.920658  0.0  0.097262  -6.9e-05  0.990602  0.0  0.098289  -6e-05  0.989526  0.0  0.114836  0.096515  -6.9e-05  0.991259  0.0
H  H7  1  0.03309031  0.23261119  0.58131016  1  0.086305  7.5e-05  0.920569  0.0  0.097321  7e-05  0.990578  0.0  0.09835  6e-05  0.9895  0.0  0.114886  0.096572  6.9e-05  0.991237  0.0
H  H8  1  0.46692930  0.73261002  0.58130899  1  0.086228  -7.5e-05  0.920627  0.0  0.097256  -7e-05  0.990622  0.0  0.098285  -6e-05  0.989546  0.0  0.114858  0.096511  -6.9e-05  0.991279  0.0
H  H9  1  0.96692985  0.76738732  0.41869066  1  0.086256  7.7e-05  0.92064  0.0  0.097275  7e-05  0.990652  0.0  0.098303  6e-05  0.989575  0.0  0.114869  0.096525  6.9e-05  0.991312  0.0
H  H10  1  0.66210300  0.13572117  0.29975619  1  0.094683  0.000546  0.956533  0.0  0.103545  0.000465  1.032417  0.0  0.106085  0.000371  1.029625  0.0  0.105598  0.101665  0.000509  1.034351  0.0
H  H11  1  0.16211373  0.36429814  0.70024836  1  0.094686  -0.000547  0.956487  0.0  0.10358  -0.000465  1.032397  0.0  0.10612  -0.000371  1.029603  0.0  0.105582  0.101699  -0.000509  1.034335  0.0
H  H12  1  0.33788643  0.86427733  0.70024373  1  0.094618  0.000544  0.956421  0.0  0.10354  0.000465  1.032307  0.0  0.106083  0.000371  1.029508  0.0  0.105597  0.101662  0.000509  1.034241  0.0
H  H13  1  0.83788156  0.63571466  0.29975747  1  0.09459  -0.000545  0.95649  0.0  0.103502  -0.000465  1.032408  0.0  0.106042  -0.000371  1.029615  0.0  0.105579  0.101623  -0.00051  1.034346  0.0
H  H14  1  0.72115304  0.03466259  0.49370955  1  0.072934  -8e-06  0.952523  0.0  0.084588  5e-06  1.02539  0.0  0.08558  4e-06  1.024873  0.0  0.092717  0.083876  -3e-06  1.025757  0.0
H  H15  1  0.22116795  0.46534308  0.50628723  1  0.072905  4e-06  0.952502  0.0  0.084598  -6e-06  1.025372  0.0  0.085591  -4e-06  1.024856  0.0  0.092721  0.083882  3e-06  1.025731  0.0
H  H16  1  0.27883785  0.96534110  0.50629087  1  0.072942  -5e-06  0.952462  0.0  0.08459  5e-06  1.02534  0.0  0.08558  4e-06  1.02482  0.0  0.092715  0.083883  -3e-06  1.025709  0.0
H  H17  1  0.77885367  0.53465675  0.49371553  1  0.072942  6e-06  0.952549  0.0  0.084617  -6e-06  1.025398  0.0  0.085612  -4e-06  1.024883  0.0  0.09274  0.083906  3e-06  1.025766  0.0
H  H18  1  0.59414368  0.87351501  0.39607720  1  0.077016  -5.4e-05  0.958053  0.0  0.091712  -7e-05  1.026364  0.0  0.0924  -5.3e-05  1.027027  0.0  0.092491  0.09112  -8.3e-05  1.025976  0.0
H  H19  1  0.09415892  0.62649616  0.60391281  1  0.076896  4.9e-05  0.958127  0.0  0.091666  7e-05  1.026417  0.0  0.092354  5.3e-05  1.027082  0.0  0.092492  0.091067  8.3e-05  1.026027  0.0
H  H20  1  0.40584721  0.12648739  0.60392310  1  0.07692  -5.2e-05  0.958185  0.0  0.091639  -7.1e-05  1.026477  0.0  0.092324  -5.3e-05  1.027137  0.0  0.092491  0.091051  -8.3e-05  1.026087  0.0
H  H21  1  0.90585392  0.37350618  0.39608116  1  0.076894  5.2e-05  0.958145  0.0  0.09161  7e-05  1.026457  0.0  0.092301  5.3e-05  1.027122  0.0  0.092464  0.091018  8.3e-05  1.026069  0.0
C  C22  1  0.33521987  0.04484050  0.17788828  1  0.175489  0.002454  3.586518  0.002  0.100038  -0.000149  3.844074  0.0  0.116103  0.000692  3.85445  0.001  0.175567  0.090406  -0.000756  3.837028  -0.001
C  C23  1  0.83520972  0.45516517  0.82210918  1  0.175507  -0.002449  3.586575  -0.002  0.100046  0.000149  3.844144  0.0  0.116114  -0.000694  3.854524  -0.001  0.175542  0.090424  0.000755  3.837091  0.001
C  C24  1  0.66479004  0.95516060  0.82211190  1  0.17575  0.002449  3.586825  0.002  0.100222  -0.000149  3.844352  0.0  0.116286  0.000692  3.85473  0.001  0.175626  0.090605  -0.000756  3.837289  -0.001
C  C25  1  0.16480897  0.54482694  0.17790095  1  0.176184  -0.002459  3.587232  -0.002  0.100554  0.000153  3.844846  0.0  0.116607  -0.000687  3.855242  -0.001  0.175923  0.090931  0.000758  3.837775  0.001
C  C26  1  0.54325967  0.13677811  0.36646447  1  -0.014045  -0.000217  3.600952  0.0  -0.087344  -6.6e-05  3.855676  0.0  -0.083424  -8.5e-05  3.864781  0.0  -0.049392  -0.089431  -0.000106  3.848988  0.0
C  C27  1  0.04327223  0.36323336  0.63353775  1  -0.014043  0.000214  3.600726  0.0  -0.087457  6.5e-05  3.855661  0.0  -0.083541  8.5e-05  3.86477  0.0  -0.049428  -0.089555  0.000105  3.848978  0.0
C  C28  1  0.45673268  0.86322429  0.63353583  1  -0.013733  -0.00021  3.600452  0.0  -0.087244  -6.6e-05  3.855393  0.0  -0.08333  -8.5e-05  3.864491  0.0  -0.049378  -0.089334  -0.000106  3.848725  0.0
C  C29  1  0.95673329  0.63677164  0.36646461  1  -0.013701  0.000209  3.600322  0.0  -0.087206  6.6e-05  3.855336  0.0  -0.083286  8.5e-05  3.864443  0.0  -0.04935  -0.089291  0.000105  3.84866  0.0
C  C30  1  0.57832481  0.00188329  0.45099723  1  -0.13453  1.4e-05  3.696731  0.0  -0.179245  2.5e-05  3.966563  0.0  -0.181331  1e-05  3.981433  0.0  -0.16957  -0.177654  2.6e-05  3.956208  0.0
C  C31  1  0.07833662  0.49812596  0.54900199  1  -0.134476  6e-06  3.69651  0.0  -0.179265  -2.6e-05  3.966432  0.0  -0.181345  -1e-05  3.981316  0.0  -0.169656  -0.177657  -2.5e-05  3.956048  0.0
C  C32  1  0.42166754  0.99812432  0.54900719  1  -0.134598  -3e-06  3.696767  0.0  -0.179247  2.5e-05  3.96653  0.0  -0.181309  1.1e-05  3.981383  0.0  -0.169675  -0.177677  2.6e-05  3.956197  0.0
C  C33  1  0.92167915  0.50187252  0.45099521  1  -0.134571  -4e-06  3.696741  0.0  -0.179285  -2.5e-05  3.966767  0.0  -0.181341  -9e-06  3.981581  0.0  -0.169627  -0.177712  -2.5e-05  3.956412  0.0
Br  Br34  1  0.77547080  0.80336880  0.08947558  1  -0.481216  -0.165542  1.053307  -0.162  -0.508004  -0.116235  1.386517  -0.118  -0.549749  -0.09398  1.360368  -0.097  -0.256286  -0.484088  -0.124553  1.404545  -0.124
Br  Br35  1  0.27546396  0.69664088  0.91055546  1  -0.4812  0.165531  1.053284  0.162  -0.508025  0.116231  1.386594  0.118  -0.549778  0.093968  1.360447  0.097  -0.256269  -0.484043  0.124546  1.404492  0.124
Br  Br36  1  0.22455813  0.19664281  0.91054278  1  -0.481248  -0.165489  1.05334  -0.162  -0.508064  -0.1162  1.386634  -0.118  -0.549807  -0.093949  1.360483  -0.097  -0.25628  -0.48411  -0.124516  1.404598  -0.124
Br  Br37  1  0.72454449  0.30335644  0.08945789  1  -0.481283  0.165498  1.053464  0.162  -0.508071  0.116207  1.386712  0.118  -0.549821  0.093949  1.360566  0.097  -0.256289  -0.484123  0.12452  1.404679  0.124
N  N38  1  0.14348926  0.04732462  0.15661512  1  -0.251189  -0.051895  3.308615  -0.066  -0.202196  -0.043789  3.624563  -0.058  -0.233082  -0.039446  3.642879  -0.055  -0.258139  -0.186041  -0.044658  3.615075  -0.058
N  N39  1  0.64348337  0.45267884  0.84337799  1  -0.251143  0.051887  3.308738  0.066  -0.202167  0.043784  3.624675  0.058  -0.233065  0.039438  3.643012  0.055  -0.258131  -0.186023  0.044653  3.615196  0.058
N  N40  1  0.85650456  0.95268165  0.84338466  1  -0.251393  -0.051885  3.308991  -0.066  -0.202361  -0.043777  3.62494  -0.058  -0.233246  -0.039433  3.643253  -0.055  -0.258183  -0.186206  -0.044646  3.615447  -0.058
N  N41  1  0.35649143  0.54729367  0.15661217  1  -0.251537  0.051893  3.309267  0.066  -0.202329  0.043783  3.625095  0.058  -0.233225  0.039436  3.643432  0.055  -0.258198  -0.18618  0.044656  3.615595  0.058
N  N42  1  0.05411049  0.11224315  0.26307911  1  -0.034338  0.003846  2.928818  0.004  -0.028617  0.002031  3.229532  0.002  -0.022593  0.002129  3.239301  0.002  -0.071003  -0.031973  0.001819  3.223436  0.001
N  N43  1  0.55411532  0.38776312  0.73690632  1  -0.034462  -0.003848  2.929067  -0.004  -0.028722  -0.00203  3.229745  -0.002  -0.022694  -0.002126  3.239518  -0.002  -0.071041  -0.032084  -0.001817  3.223662  -0.001
N  N44  1  0.94588333  0.88776314  0.73692247  1  -0.034294  0.003846  2.928881  0.004  -0.02857  0.002032  3.229587  0.002  -0.022547  0.002128  3.239356  0.002  -0.070994  -0.031935  0.001818  3.2235  0.001
N  N45  1  0.44587850  0.61222487  0.26307541  1  -0.034463  -0.003851  2.928883  -0.004  -0.028792  -0.002032  3.229565  -0.002  -0.022762  -0.00213  3.239335  -0.002  -0.071151  -0.032151  -0.001821  3.223483  -0.001
N  N46  1  0.18496430  0.14989282  0.34755533  1  -0.095485  -0.003718  2.859646  -0.004  -0.10215  -0.003008  3.136999  -0.004  -0.101462  -0.002194  3.145843  -0.003  -0.064247  -0.102046  -0.003539  3.130727  -0.004
N  N47  1  0.68497686  0.35011886  0.65243489  1  -0.095492  0.00371  2.859992  0.004  -0.102143  0.00301  3.137323  0.004  -0.101461  0.002195  3.146178  0.003  -0.064285  -0.102039  0.003538  3.131058  0.004
N  N48  1  0.81502513  0.85011089  0.65244691  1  -0.095545  -0.00371  2.859427  -0.004  -0.102272  -0.003008  3.136815  -0.004  -0.101586  -0.002194  3.14566  -0.003  -0.064333  -0.102166  -0.003538  3.130552  -0.004
N  N49  1  0.31501257  0.64988730  0.34755133  1  -0.095589  0.003714  2.859428  0.004  -0.10227  0.003007  3.136838  0.004  -0.101592  0.002193  3.145699  0.003  -0.06431  -0.10217  0.003538  3.130577  0.004
N  N50  1  0.36206813  0.10796099  0.29590662  1  0.042644  -0.001308  3.493552  -0.001  0.162761  -0.000787  3.678368  -0.001  0.151338  -0.000852  3.700026  -0.001  -0.115343  0.168676  -0.000722  3.666054  -0.001
N  N51  1  0.86207608  0.39204886  0.70408939  1  0.042629  0.001317  3.493749  0.001  0.162787  0.000787  3.6786  0.001  0.151363  0.000852  3.70026  0.001  -0.115239  0.168692  0.000721  3.666302  0.001
N  N52  1  0.63792423  0.89204665  0.70410142  1  0.042486  -0.001315  3.4935  -0.001  0.162745  -0.000788  3.678297  -0.001  0.15132  -0.000853  3.699956  -0.001  -0.115263  0.168656  -0.000721  3.665988  -0.001
N  N53  1  0.13792359  0.60794165  0.29588447  1  0.042492  0.001314  3.493769  0.001  0.162678  0.000787  3.678723  0.001  0.151256  0.000852  3.700378  0.001  -0.115371  0.168586  0.00072  3.666405  0.001
