# generated using pymatgen
data_Si2HgH20C14(IN)2
_symmetry_space_group_name_H-M   'P 1'
_cell_length_a   8.29363619
_cell_length_b   8.29361860
_cell_length_c   16.01308993
_cell_angle_alpha   93.93163580
_cell_angle_beta   93.93243979
_cell_angle_gamma   109.50277387
_symmetry_Int_Tables_number   1
_chemical_formula_structural   Si2HgH20C14(IN)2
_chemical_formula_sum   'Si4 Hg2 H40 C28 I4 N4'
_cell_volume   1030.89823373
_cell_formula_units_Z   2
loop_
 _symmetry_equiv_pos_site_id
 _symmetry_equiv_pos_as_xyz
  1  'x, y, z'
loop_
 _atom_site_type_symbol
 _atom_site_label
 _atom_site_symmetry_multiplicity
 _atom_site_fract_x
 _atom_site_fract_y
 _atom_site_fract_z
 _atom_site_occupancy
 _atom_site_hle17_bader_spin_density
 _atom_site_hle17_ddec_charge
 _atom_site_hle17_ddec_spin_density
 _atom_site_hle17_ddec_sum_bond_order
 _atom_site_hle17_magmom
 _atom_site_hse06_10hf_bader_spin_density
 _atom_site_hse06_10hf_ddec_charge
 _atom_site_hse06_10hf_ddec_spin_density
 _atom_site_hse06_10hf_ddec_sum_bond_order
 _atom_site_hse06_10hf_magmom
 _atom_site_hse06_bader_spin_density
 _atom_site_hse06_ddec_charge
 _atom_site_hse06_ddec_spin_density
 _atom_site_hse06_ddec_sum_bond_order
 _atom_site_hse06_magmom
 _atom_site_pbe_bader_spin_density
 _atom_site_pbe_cm5_charge
 _atom_site_pbe_ddec_charge
 _atom_site_pbe_ddec_spin_density
 _atom_site_pbe_ddec_sum_bond_order
 _atom_site_pbe_magmom
Si  Si0  1  0.54969023  0.62696942  0.46718439  1  0  0.629982  0  3.509645  0  0  0.554193  0  3.888236  0  0  0.565944  0  3.890702  0  0  0.085355  0.54615  0  3.88636  0
Si  Si1  1  0.37302874  0.45031064  0.03281544  1  0  0.629972  0  3.509617  0  0  0.55419  0  3.888217  0  0  0.565942  0  3.890682  0  0  0.085339  0.546151  0  3.886339  0
Si  Si2  1  0.45031245  0.37303319  0.53281502  1  0  0.630001  0  3.509615  0  0  0.55421  0  3.888205  0  0  0.565962  0  3.89067  0  0  0.085341  0.54617  0  3.886328  0
Si  Si3  1  0.62696830  0.54969324  0.96718630  1  0  0.62993  0  3.509549  0  0  0.554135  0  3.888171  0  0  0.565885  0  3.89064  0  0  0.085318  0.546096  0  3.886293  0
Hg  Hg4  1  0.80353321  0.19646318  0.74999884  1  0  0.543907  0  2.183507  0  0  0.412249  0  2.665527  0  0  0.455681  0  2.640924  0  0  0.413306  0.383486  0  2.681443  0
Hg  Hg5  1  0.19646498  0.80353691  0.24999967  1  0  0.54392  0  2.183648  0  0  0.412288  0  2.665653  0  0  0.455718  0  2.64105  0  0  0.413336  0.383524  0  2.68157  0
H  H6  1  0.12938404  0.07908573  0.68364119  1  0  0.07205  0  0.957932  0  0  0.079538  0  1.027501  0  0  0.082065  0  1.025092  0  0  0.105293  0.077604  0  1.029358  0
H  H7  1  0.92091006  0.87061003  0.81635747  1  0  0.072073  0  0.957765  0  0  0.079571  0  1.027337  0  0  0.082104  0  1.024924  0  0  0.105327  0.077637  0  1.029193  0
H  H8  1  0.87061808  0.92091175  0.31635737  1  0  0.072087  0  0.957854  0  0  0.07955  0  1.027446  0  0  0.082081  0  1.025035  0  0  0.105293  0.077618  0  1.029299  0
H  H9  1  0.07908545  0.12939270  0.18363917  1  0  0.071942  0  0.957961  0  0  0.079493  0  1.027482  0  0  0.082019  0  1.025076  0  0  0.105273  0.07756  0  1.029339  0
H  H10  1  0.60886673  0.89702044  0.60893794  1  0  0.050709  0  0.995469  0  0  0.059071  0  1.068823  0  0  0.061216  0  1.066739  0  0  0.097571  0.057437  0  1.070373  0
H  H11  1  0.10296777  0.39113661  0.89105830  1  0  0.050655  0  0.995625  0  0  0.059015  0  1.068952  0  0  0.061179  0  1.066856  0  0  0.09754  0.057387  0  1.070473  0
H  H12  1  0.39113714  0.10297841  0.39105699  1  0  0.05069  0  0.995543  0  0  0.059045  0  1.068893  0  0  0.061184  0  1.066818  0  0  0.097541  0.05743  0  1.070402  0
H  H13  1  0.89702837  0.60887504  0.10894246  1  0  0.050671  0  0.995477  0  0  0.059034  0  1.068828  0  0  0.061209  0  1.066719  0  0  0.097548  0.057409  0  1.070355  0
H  H14  1  0.18453518  0.87477510  0.57725043  1  0  0.092009  0  0.97529  0  0  0.102006  0  1.038894  0  0  0.104707  0  1.038474  0  0  0.099309  0.100091  0  1.039314  0
H  H15  1  0.12522725  0.81547148  0.92275191  1  0  0.092023  0  0.97528  0  0  0.102019  0  1.038881  0  0  0.10472  0  1.03846  0  0  0.099332  0.100105  0  1.039304  0
H  H16  1  0.81546868  0.12521712  0.42275174  1  0  0.092024  0  0.975264  0  0  0.102028  0  1.038869  0  0  0.104729  0  1.038447  0  0  0.09935  0.100111  0  1.039292  0
H  H17  1  0.87477043  0.18453761  0.07724756  1  0  0.09203  0  0.975265  0  0  0.102046  0  1.038829  0  0  0.104749  0  1.038406  0  0  0.09933  0.100128  0  1.039256  0
H  H18  1  0.93903739  0.67687170  0.47959733  1  0  0.08601  0  0.935028  0  0  0.101213  0  0.991206  0  0  0.103495  0  0.989839  0  0  0.105629  0.099538  0  0.992198  0
H  H19  1  0.32312847  0.06097152  0.02040289  1  0  0.0861  0  0.934999  0  0  0.101225  0  0.99124  0  0  0.103509  0  0.989877  0  0  0.105621  0.099551  0  0.992233  0
H  H20  1  0.06096294  0.32311401  0.52040819  1  0  0.086019  0  0.935031  0  0  0.101214  0  0.991214  0  0  0.103502  0  0.989844  0  0  0.105586  0.099538  0  0.992209  0
H  H21  1  0.67687026  0.93903367  0.97959772  1  0  0.086038  0  0.935022  0  0  0.10123  0  0.991213  0  0  0.10351  0  0.989845  0  0  0.105643  0.099555  0  0.992203  0
H  H22  1  0.35184591  0.75477695  0.53423672  1  0  0.138332  0  0.981676  0  0  0.159368  0  1.038506  0  0  0.161587  0  1.037876  0  0  0.088506  0.157782  0  1.038974  0
H  H23  1  0.24522128  0.64815410  0.96575999  1  0  0.138394  0  0.981547  0  0  0.159395  0  1.038424  0  0  0.161614  0  1.037793  0  0  0.088509  0.157809  0  1.038893  0
H  H24  1  0.64815020  0.24522059  0.46576098  1  0  0.138362  0  0.981542  0  0  0.159364  0  1.038424  0  0  0.161582  0  1.037794  0  0  0.088503  0.157779  0  1.038892  0
H  H25  1  0.75478050  0.35184593  0.03423991  1  0  0.138361  0  0.981557  0  0  0.15937  0  1.038432  0  0  0.161589  0  1.037803  0  0  0.088502  0.157786  0  1.038898  0
H  H26  1  0.43523416  0.86560961  0.44655824  1  0  0.136873  0  0.987003  0  0  0.155359  0  1.051221  0  0  0.156488  0  1.052693  0  0  0.08368  0.154527  0  1.05022  0
H  H27  1  0.13438794  0.56476724  0.05343780  1  0  0.136857  0  0.987046  0  0  0.155352  0  1.051258  0  0  0.156482  0  1.052732  0  0  0.083685  0.154521  0  1.050258  0
H  H28  1  0.56476242  0.13438924  0.55343828  1  0  0.13686  0  0.987032  0  0  0.155353  0  1.051241  0  0  0.156481  0  1.052715  0  0  0.083675  0.154523  0  1.05024  0
H  H29  1  0.86560915  0.43523669  0.94656207  1  0  0.136861  0  0.987051  0  0  0.155357  0  1.051252  0  0  0.156487  0  1.052726  0  0  0.083674  0.154526  0  1.050254  0
H  H30  1  0.26802038  0.66203059  0.42995152  1  0  0.13718  0  0.999788  0  0  0.153538  0  1.067121  0  0  0.155418  0  1.067481  0  0  0.078271  0.152154  0  1.066923  0
H  H31  1  0.33796500  0.73198302  0.07004403  1  0  0.137161  0  0.999877  0  0  0.15355  0  1.067169  0  0  0.15543  0  1.067528  0  0  0.078306  0.152167  0  1.06697  0
H  H32  1  0.73198002  0.33796181  0.57004427  1  0  0.137135  0  0.999882  0  0  0.153523  0  1.067178  0  0  0.155402  0  1.067538  0  0  0.078303  0.152139  0  1.06698  0
H  H33  1  0.66203371  0.26802216  0.92995720  1  0  0.13714  0  0.999894  0  0  0.153523  0  1.067197  0  0  0.155404  0  1.067555  0  0  0.078283  0.152139  0  1.066999  0
H  H34  1  0.70582176  0.53190386  0.35524837  1  0  0.139651  0  0.997666  0  0  0.154213  0  1.065899  0  0  0.156604  0  1.065562  0  0  0.077452  0.152507  0  1.066136  0
H  H35  1  0.46808961  0.29417190  0.14474753  1  0  0.139639  0  0.997665  0  0  0.154205  0  1.065909  0  0  0.156597  0  1.06557  0  0  0.077448  0.152499  0  1.066144  0
H  H36  1  0.29418305  0.46810134  0.64474998  1  0  0.139627  0  0.997709  0  0  0.154189  0  1.06594  0  0  0.156579  0  1.065605  0  0  0.077422  0.152482  0  1.066181  0
H  H37  1  0.53189731  0.70581665  0.85525132  1  0  0.139639  0  0.997691  0  0  0.154208  0  1.065921  0  0  0.156599  0  1.065583  0  0  0.077438  0.152502  0  1.066161  0
H  H38  1  0.48320271  0.47815208  0.32419179  1  0  0.148686  0  0.972014  0  0  0.17009  0  1.027891  0  0  0.171601  0  1.029242  0  0  0.091567  0.168975  0  1.027  0
H  H39  1  0.52184620  0.51679048  0.17580741  1  0  0.148662  0  0.972053  0  0  0.170093  0  1.027904  0  0  0.171604  0  1.029253  0  0  0.091564  0.168978  0  1.027014  0
H  H40  1  0.51680287  0.52185184  0.67580591  1  0  0.148705  0  0.972036  0  0  0.170101  0  1.027907  0  0  0.171611  0  1.029259  0  0  0.091572  0.168985  0  1.027019  0
H  H41  1  0.47814799  0.48320179  0.82419563  1  0  0.148635  0  0.972064  0  0  0.170048  0  1.027931  0  0  0.171559  0  1.029282  0  0  0.091563  0.168932  0  1.027044  0
H  H42  1  0.62257066  0.69235981  0.32207518  1  0  0.135462  0  1.002543  0  0  0.152086  0  1.068783  0  0  0.153982  0  1.069051  0  0  0.077878  0.150719  0  1.068625  0
H  H43  1  0.30763780  0.37742268  0.17792435  1  0  0.135443  0  1.002541  0  0  0.152058  0  1.068804  0  0  0.153953  0  1.069073  0  0  0.077862  0.150692  0  1.068643  0
H  H44  1  0.37743246  0.30764407  0.67792492  1  0  0.135449  0  1.002605  0  0  0.152061  0  1.068851  0  0  0.153954  0  1.069121  0  0  0.077862  0.150694  0  1.068696  0
H  H45  1  0.69235573  0.62257098  0.82207434  1  0  0.135454  0  1.002545  0  0  0.152072  0  1.068796  0  0  0.153968  0  1.069064  0  0  0.077882  0.150705  0  1.06864  0
C  C46  1  0.02481994  0.99024200  0.64073790  1  0  0.119147  0  3.712059  0  0  0.086016  0  3.967916  0  0  0.093646  0  3.985931  0  0  0.040846  0.08121  0  3.955601  0
C  C47  1  0.00975694  0.97518287  0.85926314  1  0  0.119147  0  3.712059  0  0  0.086017  0  3.967925  0  0  0.093641  0  3.985943  0  0  0.040832  0.081218  0  3.955607  0
C  C48  1  0.97517943  0.00975804  0.35926190  1  0  0.119032  0  3.712127  0  0  0.085942  0  3.967998  0  0  0.093567  0  3.986009  0  0  0.040807  0.08114  0  3.955684  0
C  C49  1  0.99024840  0.02482744  0.14073730  1  0  0.119252  0  3.71204  0  0  0.086043  0  3.967935  0  0  0.093674  0  3.985952  0  0  0.040787  0.08124  0  3.955617  0
C  C50  1  0.74993686  0.77045624  0.53413037  1  0  -0.272387  0  3.716189  0  0  -0.22484  0  3.957956  0  0  -0.235553  0  3.98348  0  0  -0.051126  -0.217959  0  3.940814  0
C  C51  1  0.22953542  0.25006819  0.96586893  1  0  -0.272456  0  3.716459  0  0  -0.224909  0  3.958193  0  0  -0.235625  0  3.983728  0  0  -0.051133  -0.218029  0  3.941049  0
C  C52  1  0.25006899  0.22953471  0.46587058  1  0  -0.272438  0  3.716263  0  0  -0.224869  0  3.957995  0  0  -0.235583  0  3.983525  0  0  -0.051108  -0.217989  0  3.940855  0
C  C53  1  0.77045861  0.74994090  0.03413165  1  0  -0.272375  0  3.716307  0  0  -0.224851  0  3.958088  0  0  -0.235564  0  3.983618  0  0  -0.0511  -0.217971  0  3.94095  0
C  C54  1  0.73399435  0.88797078  0.59743320  1  0  0.130037  0  3.725917  0  0  0.097706  0  3.965602  0  0  0.104398  0  3.986263  0  0  0.045213  0.093503  0  3.951608  0
C  C55  1  0.11202952  0.26601324  0.90256668  1  0  0.130073  0  3.72606  0  0  0.09777  0  3.965719  0  0  0.104443  0  3.986365  0  0  0.045205  0.093573  0  3.951739  0
C  C56  1  0.26600594  0.11202151  0.40256695  1  0  0.129996  0  3.726003  0  0  0.097681  0  3.965689  0  0  0.104373  0  3.986347  0  0  0.045223  0.093476  0  3.951703  0
C  C57  1  0.88797281  0.73400226  0.09743323  1  0  0.130134  0  3.726061  0  0  0.097819  0  3.965709  0  0  0.104486  0  3.986359  0  0  0.04529  0.093615  0  3.951725  0
C  C58  1  0.05438030  0.87588668  0.58095666  1  0  -0.11501  0  3.752344  0  0  -0.12627  0  4.003788  0  0  -0.133358  0  4.025948  0  0  -0.087649  -0.121745  0  3.988818  0
C  C59  1  0.12411130  0.94562455  0.91903871  1  0  -0.114992  0  3.75207  0  0  -0.126251  0  4.003504  0  0  -0.133337  0  4.025658  0  0  -0.08765  -0.121729  0  3.988535  0
C  C60  1  0.94562528  0.12410687  0.41904314  1  0  -0.114968  0  3.752309  0  0  -0.126254  0  4.003761  0  0  -0.133343  0  4.025924  0  0  -0.087689  -0.121729  0  3.988787  0
C  C61  1  0.87588749  0.05438070  0.08095940  1  0  -0.115058  0  3.752386  0  0  -0.126306  0  4.003833  0  0  -0.133396  0  4.025991  0  0  -0.087633  -0.121781  0  3.988865  0
C  C62  1  0.91653275  0.76582707  0.52717769  1  0  0.016563  0  3.715486  0  0  -0.007783  0  3.958428  0  0  -0.003806  0  3.977489  0  0  -0.059937  -0.01006  0  3.945327  0
C  C63  1  0.23417874  0.08347525  0.97282354  1  0  0.016475  0  3.715022  0  0  -0.007795  0  3.957941  0  0  -0.003815  0  3.976991  0  0  -0.059927  -0.010083  0  3.94487  0
C  C64  1  0.08347124  0.23416901  0.47282464  1  0  0.016552  0  3.715303  0  0  -0.007771  0  3.958216  0  0  -0.003796  0  3.977276  0  0  -0.059883  -0.010051  0  3.945123  0
C  C65  1  0.76582452  0.91653624  0.02718187  1  0  0.016514  0  3.715531  0  0  -0.007814  0  3.958468  0  0  -0.003838  0  3.977536  0  0  -0.059966  -0.01009  0  3.945369  0
C  C66  1  0.38576450  0.73829288  0.46984239  1  0  -0.624309  0  3.656152  0  0  -0.666212  0  3.875892  0  0  -0.674681  0  3.883278  0  0  -0.29751  -0.660111  0  3.870662  0
C  C67  1  0.26170507  0.61423561  0.03015452  1  0  -0.624327  0  3.656189  0  0  -0.666259  0  3.875926  0  0  -0.674728  0  3.883311  0  0  -0.297553  -0.660154  0  3.870683  0
C  C68  1  0.61423448  0.26170594  0.53015485  1  0  -0.62428  0  3.656178  0  0  -0.666195  0  3.875891  0  0  -0.674662  0  3.883279  0  0  -0.297541  -0.660098  0  3.870657  0
C  C69  1  0.73829396  0.38576700  0.96984599  1  0  -0.624259  0  3.656193  0  0  -0.666182  0  3.875924  0  0  -0.674652  0  3.883311  0  0  -0.297506  -0.660079  0  3.87068  0
C  C70  1  0.59659929  0.57860337  0.35732611  1  0  -0.629192  0  3.666555  0  0  -0.668087  0  3.883385  0  0  -0.677218  0  3.891027  0  0  -0.298243  -0.661524  0  3.877963  0
C  C71  1  0.42139255  0.40339629  0.14267314  1  0  -0.629129  0  3.666594  0  0  -0.668026  0  3.883373  0  0  -0.677159  0  3.891009  0  0  -0.298211  -0.661478  0  3.87798  0
C  C72  1  0.40340384  0.42140053  0.64267338  1  0  -0.629182  0  3.666647  0  0  -0.668071  0  3.883506  0  0  -0.677197  0  3.891157  0  0  -0.298207  -0.661494  0  3.878047  0
C  C73  1  0.57860139  0.59659861  0.85732749  1  0  -0.62909  0  3.6666  0  0  -0.667987  0  3.883423  0  0  -0.677119  0  3.891065  0  0  -0.298213  -0.661426  0  3.877998  0
I  I74  1  0.98715308  0.53010796  0.73192789  1  0  -0.373353  0  1.063983  0  0  -0.324634  0  1.369501  0  0  -0.341457  0  1.352834  0  0  -0.173204  -0.313488  0  1.380827  0
I  I75  1  0.46989280  0.01285009  0.76807469  1  0  -0.373329  0  1.063975  0  0  -0.324614  0  1.369507  0  0  -0.341437  0  1.352833  0  0  -0.173195  -0.313463  0  1.380837  0
I  I76  1  0.01285714  0.46989200  0.26807234  1  0  -0.373358  0  1.064  0  0  -0.324654  0  1.369533  0  0  -0.34148  0  1.352867  0  0  -0.173211  -0.313502  0  1.380856  0
I  I77  1  0.53010447  0.98713041  0.23193362  1  0  -0.373339  0  1.064093  0  0  -0.324635  0  1.36963  0  0  -0.341456  0  1.352959  0  0  -0.173204  -0.313486  0  1.380953  0
N  N78  1  0.86656281  0.99552006  0.64878248  1  0  -0.290371  0  3.270576  0  0  -0.212667  0  3.535529  0  0  -0.232892  0  3.557487  0  0  -0.315549  -0.199042  0  3.520191  0
N  N79  1  0.00447749  0.13343691  0.85121520  1  0  -0.290405  0  3.270645  0  0  -0.212731  0  3.535631  0  0  -0.232956  0  3.557592  0  0  -0.315542  -0.199103  0  3.520279  0
N  N80  1  0.13343855  0.00447872  0.35121611  1  0  -0.290304  0  3.270649  0  0  -0.212639  0  3.535629  0  0  -0.232854  0  3.557576  0  0  -0.315535  -0.199016  0  3.520292  0
N  N81  1  0.99551994  0.86656447  0.14878333  1  0  -0.290423  0  3.270605  0  0  -0.212724  0  3.535586  0  0  -0.23295  0  3.557552  0  0  -0.31557  -0.19909  0  3.520234  0
