# generated using pymatgen
data_AgH12C13N7
_symmetry_space_group_name_H-M   'P 1'
_cell_length_a   7.32994267
_cell_length_b   10.41846862
_cell_length_c   17.99761487
_cell_angle_alpha   89.99996825
_cell_angle_beta   92.81637333
_cell_angle_gamma   89.99999745
_symmetry_Int_Tables_number   1
_chemical_formula_structural   AgH12C13N7
_chemical_formula_sum   'Ag4 H48 C52 N28'
_cell_volume   1372.75974164
_cell_formula_units_Z   4
loop_
 _symmetry_equiv_pos_site_id
 _symmetry_equiv_pos_as_xyz
  1  'x, y, z'
loop_
 _atom_site_type_symbol
 _atom_site_label
 _atom_site_symmetry_multiplicity
 _atom_site_fract_x
 _atom_site_fract_y
 _atom_site_fract_z
 _atom_site_occupancy
 _atom_site_hle17_bader_spin_density
 _atom_site_hle17_ddec_charge
 _atom_site_hle17_ddec_spin_density
 _atom_site_hle17_ddec_sum_bond_order
 _atom_site_hle17_magmom
 _atom_site_hse06_10hf_bader_charge
 _atom_site_hse06_10hf_bader_spin_density
 _atom_site_hse06_10hf_ddec_charge
 _atom_site_hse06_10hf_ddec_spin_density
 _atom_site_hse06_10hf_ddec_sum_bond_order
 _atom_site_hse06_10hf_magmom
 _atom_site_hse06_bader_spin_density
 _atom_site_hse06_ddec_charge
 _atom_site_hse06_ddec_spin_density
 _atom_site_hse06_ddec_sum_bond_order
 _atom_site_hse06_magmom
 _atom_site_pbe_bader_spin_density
 _atom_site_pbe_cm5_charge
 _atom_site_pbe_ddec_charge
 _atom_site_pbe_ddec_spin_density
 _atom_site_pbe_ddec_sum_bond_order
 _atom_site_pbe_magmom
Ag  Ag0  1  0.32795338  0.93240381  0.03558173  1  0  0.482209  0  1.596306  0  0.576561  0  0.347295  0  2.066166  0  0  0.370721  0  2.023667  0  0  0.463824  0.331504  0  2.09512  0
Ag  Ag1  1  0.67204328  0.43240593  0.46442012  1  0  0.482255  0  1.596327  0  0.576389  0  0.347349  0  2.066218  0  0  0.370775  0  2.023721  0  0  0.463845  0.33156  0  2.095175  0
Ag  Ag2  1  0.67204591  0.06759201  0.96442104  1  0  0.482237  0  1.596323  0  0.576384  0  0.347328  0  2.066195  0  0  0.370757  0  2.023694  0  0  0.463837  0.331541  0  2.095152  0
Ag  Ag3  1  0.32795328  0.56759564  0.53558261  1  0  0.482235  0  1.596314  0  0.57654  0  0.347304  0  2.066209  0  0  0.370732  0  2.023707  0  0  0.463834  0.331516  0  2.095166  0
H  H4  1  0.94743276  0.10218579  0.07791555  1  0  0.091869  0  0.973759  0  0.136094  0  0.093134  0  1.057724  0  0  0.097073  0  1.051879  0  0  0.125536  0.090279  0  1.061867  0
H  H5  1  0.05257211  0.60218619  0.42208543  1  0  0.09186  0  0.973698  0  0.136054  0  0.093125  0  1.057657  0  0  0.097063  0  1.051814  0  0  0.125555  0.090268  0  1.061807  0
H  H6  1  0.05256918  0.89781002  0.92208393  1  0  0.091867  0  0.973745  0  0.136111  0  0.093128  0  1.057716  0  0  0.097067  0  1.051874  0  0  0.125516  0.090272  0  1.061857  0
H  H7  1  0.94743121  0.39781442  0.57791463  1  0  0.091928  0  0.973681  0  0.136081  0  0.093177  0  1.057676  0  0  0.097116  0  1.051832  0  0  0.125559  0.090329  0  1.061798  0
H  H8  1  0.84109068  0.94324311  0.22902665  1  0  0.100111  0  0.955531  0  0.053699  0  0.108837  0  1.019326  0  0  0.111073  0  1.019055  0  0  0.103616  0.107096  0  1.019766  0
H  H9  1  0.15890455  0.44324160  0.27097240  1  0  0.10009  0  0.955525  0  0.053647  0  0.108813  0  1.019326  0  0  0.111043  0  1.019067  0  0  0.103584  0.107072  0  1.019768  0
H  H10  1  0.15890305  0.05675462  0.77097215  1  0  0.100114  0  0.955579  0  0.053694  0  0.108849  0  1.019368  0  0  0.111085  0  1.019082  0  0  0.103616  0.107095  0  1.019823  0
H  H11  1  0.84109463  0.55675613  0.72902593  1  0  0.10016  0  0.955504  0  0.053623  0  0.108865  0  1.019327  0  0  0.111099  0  1.019063  0  0  0.10362  0.107124  0  1.019766  0
H  H12  1  0.65097212  0.81722168  0.31155278  1  0  0.093578  0  0.994288  0  0.081685  0  0.102627  0  1.060342  0  0  0.10467  0  1.061085  0  0  0.098384  0.101357  0  1.059762  0
H  H13  1  0.34902587  0.31722023  0.18844691  1  0  0.093545  0  0.994307  0  0.081647  0  0.102594  0  1.060371  0  0  0.104637  0  1.061113  0  0  0.098359  0.101324  0  1.059794  0
H  H14  1  0.34902439  0.18277797  0.68844829  1  0  0.093577  0  0.994284  0  0.081677  0  0.102627  0  1.060338  0  0  0.104669  0  1.061082  0  0  0.098382  0.101357  0  1.059761  0
H  H15  1  0.65097881  0.68278038  0.81155261  1  0  0.093577  0  0.994255  0  0.081646  0  0.102614  0  1.060352  0  0  0.104658  0  1.061093  0  0  0.098382  0.101341  0  1.059777  0
H  H16  1  0.43541932  0.03248164  0.20608374  1  0  0.09708  0  1.003358  0  0.135352  0  0.10442  0  1.069864  0  0  0.105788  0  1.071332  0  0  0.108243  0.103261  0  1.069158  0
H  H17  1  0.56458697  0.53247542  0.29391896  1  0  0.097007  0  1.003356  0  0.135182  0  0.10439  0  1.069833  0  0  0.105758  0  1.071301  0  0  0.10824  0.103206  0  1.069155  0
H  H18  1  0.56458269  0.96752281  0.79391852  1  0  0.097039  0  1.003369  0  0.135151  0  0.104442  0  1.069803  0  0  0.105809  0  1.071272  0  0  0.108258  0.10324  0  1.069144  0
H  H19  1  0.43541235  0.46752135  0.70608493  1  0  0.097016  0  1.003411  0  0.135333  0  0.104407  0  1.069875  0  0  0.105776  0  1.071342  0  0  0.108248  0.103216  0  1.069204  0
H  H20  1  0.18310798  0.15631746  0.29512082  1  0  0.118386  0  0.992457  0  0.18419  0  0.123451  0  1.062119  0  0  0.126287  0  1.060908  0  0  0.115679  0.121386  0  1.063028  0
H  H21  1  0.81689688  0.65630940  0.20488014  1  0  0.118439  0  0.992445  0  0.184557  0  0.123515  0  1.062086  0  0  0.126354  0  1.060872  0  0  0.115701  0.121449  0  1.062999  0
H  H22  1  0.81688986  0.84368891  0.70487860  1  0  0.118469  0  0.992494  0  0.184174  0  0.123506  0  1.062175  0  0  0.126355  0  1.06095  0  0  0.115715  0.121441  0  1.063085  0
H  H23  1  0.18309961  0.34368353  0.79511981  1  0  0.118393  0  0.992547  0  0.184321  0  0.123457  0  1.062202  0  0  0.126293  0  1.060993  0  0  0.115671  0.121393  0  1.063112  0
H  H24  1  0.58257761  0.73695263  0.42560948  1  0  0.099731  0  0.95586  0  0.196188  0  0.105665  0  1.02604  0  0  0.108323  0  1.022985  0  0  0.133531  0.103686  0  1.02832  0
H  H25  1  0.41741902  0.23695225  0.07439021  1  0  0.099749  0  0.955815  0  0.196158  0  0.105679  0  1.026004  0  0  0.108336  0  1.022953  0  0  0.133523  0.103701  0  1.028284  0
H  H26  1  0.41741754  0.26304798  0.57439156  1  0  0.099716  0  0.955824  0  0.196139  0  0.105679  0  1.025986  0  0  0.108336  0  1.022935  0  0  0.133517  0.103701  0  1.028268  0
H  H27  1  0.58258290  0.76304836  0.92560872  1  0  0.099698  0  0.955841  0  0.196126  0  0.105663  0  1.026  0  0  0.108321  0  1.022947  0  0  0.133508  0.103684  0  1.028281  0
H  H28  1  0.45092365  0.16761177  0.40591842  1  0  0.104522  0  0.984308  0  0.122765  0  0.110189  0  1.052603  0  0  0.112317  0  1.052431  0  0  0.107233  0.108499  0  1.052911  0
H  H29  1  0.54907711  0.66760958  0.09408247  1  0  0.104468  0  0.984288  0  0.122781  0  0.110184  0  1.052544  0  0  0.112312  0  1.05237  0  0  0.107219  0.108494  0  1.05285  0
H  H30  1  0.54907559  0.83238884  0.59408213  1  0  0.104477  0  0.984288  0  0.122799  0  0.110184  0  1.052548  0  0  0.112312  0  1.052375  0  0  0.107215  0.108494  0  1.052854  0
H  H31  1  0.45092621  0.33239103  0.90591759  1  0  0.104503  0  0.984277  0  0.12284  0  0.110219  0  1.05253  0  0  0.112347  0  1.052357  0  0  0.107234  0.108529  0  1.052838  0
H  H32  1  0.63901067  0.29366200  0.32268100  1  0  0.091961  0  0.968398  0  0.094623  0  0.098941  0  1.040693  0  0  0.102469  0  1.037905  0  0  0.098139  0.096374  0  1.042923  0
H  H33  1  0.36099145  0.79365974  0.17731987  1  0  0.091832  0  0.968442  0  0.094668  0  0.098794  0  1.040779  0  0  0.102321  0  1.037993  0  0  0.098076  0.096224  0  1.043006  0
H  H34  1  0.36098992  0.70633765  0.67731901  1  0  0.091891  0  0.968397  0  0.094793  0  0.098873  0  1.040708  0  0  0.1024  0  1.03792  0  0  0.098111  0.096306  0  1.042936  0
H  H35  1  0.63900916  0.20633895  0.82268070  1  0  0.091921  0  0.968391  0  0.094649  0  0.098903  0  1.040698  0  0  0.102432  0  1.037909  0  0  0.098122  0.096337  0  1.042927  0
H  H36  1  0.76779722  0.22356060  0.16461672  1  0  0.087465  0  0.952507  0  0.092666  0  0.101179  0  1.017884  0  0  0.101146  0  1.019464  0  0  0.115716  0.101061  0  1.017088  0
H  H37  1  0.23220349  0.72356107  0.33538194  1  0  0.087443  0  0.952491  0  0.09263  0  0.101152  0  1.017883  0  0  0.101119  0  1.019459  0  0  0.115715  0.101033  0  1.017086  0
H  H38  1  0.23220199  0.77643809  0.83538272  1  0  0.087458  0  0.952449  0  0.092696  0  0.101171  0  1.017843  0  0  0.101133  0  1.019422  0  0  0.115709  0.101052  0  1.017046  0
H  H39  1  0.76779433  0.27643762  0.66461637  1  0  0.087452  0  0.952513  0  0.092646  0  0.101165  0  1.017888  0  0  0.101134  0  1.019471  0  0  0.115701  0.101046  0  1.017093  0
H  H40  1  0.88707690  0.30216137  0.23976981  1  0  0.088192  0  0.915334  0  0.063321  0  0.102511  0  0.979293  0  0  0.103348  0  0.978911  0  0  0.114231  0.102217  0  0.979041  0
H  H41  1  0.11292108  0.80215903  0.26022933  1  0  0.088191  0  0.915348  0  0.063341  0  0.102533  0  0.97929  0  0  0.103353  0  0.978922  0  0  0.114229  0.102237  0  0.979036  0
H  H42  1  0.11292093  0.69783828  0.76022905  1  0  0.088228  0  0.915334  0  0.063299  0  0.102562  0  0.979283  0  0  0.103396  0  0.978896  0  0  0.114253  0.102267  0  0.97903  0
H  H43  1  0.88707539  0.19783774  0.73976951  1  0  0.088196  0  0.915366  0  0.063314  0  0.102514  0  0.979326  0  0  0.103353  0  0.978947  0  0  0.114234  0.10222  0  0.979073  0
H  H44  1  0.20266251  0.04580115  0.42469697  1  0  0.121071  0  0.990752  0  0.190806  0  0.127926  0  1.05752  0  0  0.131175  0  1.055032  0  0  0.118715  0.125829  0  1.059051  0
H  H45  1  0.79733553  0.54579898  0.07530337  1  0  0.121133  0  0.990676  0  0.190857  0  0.12798  0  1.057459  0  0  0.131229  0  1.054971  0  0  0.118715  0.125881  0  1.058993  0
H  H46  1  0.79733534  0.95420041  0.57530245  1  0  0.121157  0  0.990686  0  0.190852  0  0.128014  0  1.057444  0  0  0.131262  0  1.054957  0  0  0.118738  0.125915  0  1.058978  0
H  H47  1  0.20266775  0.45419971  0.92469502  1  0  0.121199  0  0.990624  0  0.190801  0  0.127973  0  1.05747  0  0  0.131222  0  1.054982  0  0  0.11872  0.1259  0  1.05898  0
H  H48  1  0.07544824  0.84024513  0.50889087  1  0  0.112965  0  0.968606  0  0.154203  0  0.120298  0  1.03209  0  0  0.123082  0  1.030585  0  0  0.113848  0.11816  0  1.033414  0
H  H49  1  0.92455084  0.34024338  0.99110936  1  0  0.112961  0  0.968549  0  0.154228  0  0.120275  0  1.03206  0  0  0.123058  0  1.030556  0  0  0.113826  0.118137  0  1.033384  0
H  H50  1  0.92454826  0.15975740  0.49110909  1  0  0.112973  0  0.968584  0  0.154246  0  0.120291  0  1.032088  0  0  0.123074  0  1.030583  0  0  0.113851  0.118152  0  1.033412  0
H  H51  1  0.07545385  0.65975435  0.00889072  1  0  0.112983  0  0.968556  0  0.154265  0  0.120292  0  1.032063  0  0  0.123076  0  1.030559  0  0  0.113838  0.118153  0  1.033387  0
C  C52  1  0.05027115  0.10026516  0.12343461  1  0  0.156823  0  3.652433  0  1.019047  0  0.099357  0  3.912218  0  0  0.111885  0  3.926403  0  0  0.1378  0.091141  0  3.902585  0
C  C53  1  0.94973233  0.60026077  0.37656524  1  0  0.157054  0  3.652408  0  1.019389  0  0.099614  0  3.912167  0  0  0.112139  0  3.926361  0  0  0.137873  0.091399  0  3.902534  0
C  C54  1  0.94972804  0.89973545  0.87656428  1  0  0.156832  0  3.652469  0  1.019427  0  0.099378  0  3.912246  0  0  0.111904  0  3.926436  0  0  0.13781  0.091166  0  3.90261  0
C  C55  1  0.05026964  0.39973792  0.62343535  1  0  0.156797  0  3.65249  0  1.019228  0  0.099341  0  3.912254  0  0  0.111868  0  3.92644  0  0  0.137799  0.091132  0  3.902625  0
C  C56  1  0.75260538  0.12751860  0.26965860  1  0  0.065789  0  3.74425  0  -0.030644  0  0.086417  0  3.978708  0  0  0.085276  0  4.002776  0  0  -0.010256  0.087134  0  3.962599  0
C  C57  1  0.24739401  0.62751726  0.23034173  1  0  0.065688  0  3.744357  0  -0.030671  0  0.086378  0  3.978725  0  0  0.085236  0  4.002786  0  0  -0.010256  0.087098  0  3.962612  0
C  C58  1  0.24739385  0.87248105  0.73034140  1  0  0.065769  0  3.744434  0  -0.030867  0  0.08644  0  3.978847  0  0  0.085292  0  4.002911  0  0  -0.010273  0.087161  0  3.962731  0
C  C59  1  0.75260383  0.37248143  0.76965768  1  0  0.065812  0  3.744303  0  -0.030654  0  0.086468  0  3.97871  0  0  0.085332  0  4.002781  0  0  -0.010237  0.087186  0  3.9626  0
C  C60  1  0.75767466  0.99317558  0.26839542  1  0  -0.098277  0  3.740182  0  0.012339  0  -0.119639  0  3.988595  0  0  -0.120916  0  4.008967  0  0  -0.089854  -0.118635  0  3.974941  0
C  C61  1  0.24232334  0.49317410  0.23160533  1  0  -0.098186  0  3.740149  0  0.012347  0  -0.119558  0  3.988558  0  0  -0.120833  0  4.008926  0  0  -0.089772  -0.118553  0  3.974904  0
C  C62  1  0.24232047  0.00682311  0.73160451  1  0  -0.098271  0  3.740263  0  0.012301  0  -0.119664  0  3.988676  0  0  -0.12093  0  4.009042  0  0  -0.089803  -0.118646  0  3.975025  0
C  C63  1  0.75767724  0.50682555  0.76839414  1  0  -0.098302  0  3.740219  0  0.012347  0  -0.119656  0  3.988663  0  0  -0.120937  0  4.009036  0  0  -0.089848  -0.118649  0  3.975005  0
C  C64  1  0.65098782  0.92164105  0.31519868  1  0  -0.149653  0  3.75164  0  -0.004418  0  -0.166817  0  3.998337  0  0  -0.170301  0  4.018937  0  0  -0.095488  -0.164586  0  3.98455  0
C  C65  1  0.34901017  0.42163865  0.18480153  1  0  -0.14962  0  3.751583  0  -0.003809  0  -0.166784  0  3.998312  0  0  -0.170266  0  4.01891  0  0  -0.095473  -0.164552  0  3.984526  0
C  C66  1  0.34900731  0.07835956  0.68480125  1  0  -0.149599  0  3.751557  0  -0.003804  0  -0.166763  0  3.998282  0  0  -0.170247  0  4.018883  0  0  -0.095484  -0.16453  0  3.984491  0
C  C67  1  0.65099312  0.57836100  0.81519742  1  0  -0.149569  0  3.75158  0  -0.003807  0  -0.166723  0  3.998309  0  0  -0.170207  0  4.01891  0  0  -0.095428  -0.164488  0  3.984519  0
C  C68  1  0.29705710  0.06474167  0.19300723  1  0  -0.029593  0  3.778228  0  0.333839  0  -0.060814  0  4.042075  0  0  -0.059177  0  4.062476  0  0  -0.01524  -0.061347  0  4.027118  0
C  C69  1  0.70294642  0.56473831  0.30699430  1  0  -0.029375  0  3.778172  0  0.334165  0  -0.06062  0  4.041989  0  0  -0.058981  0  4.062387  0  0  -0.015185  -0.061132  0  4.027054  0
C  C70  1  0.70294352  0.93526086  0.80699390  1  0  -0.029538  0  3.778223  0  0.334038  0  -0.060806  0  4.042038  0  0  -0.059169  0  4.062441  0  0  -0.015265  -0.061302  0  4.027116  0
C  C71  1  0.29705424  0.43526134  0.69300850  1  0  -0.029455  0  3.778129  0  0.333886  0  -0.060715  0  4.041938  0  0  -0.059073  0  4.062326  0  0  -0.015228  -0.061224  0  4.027018  0
C  C72  1  0.53894480  0.98489697  0.36413722  1  0  0.171529  0  3.788843  0  0.165184  0  0.163371  0  4.032773  0  0  0.168193  0  4.055599  0  0  0.091628  0.160074  0  4.017464  0
C  C73  1  0.46105594  0.48489653  0.13586412  1  0  0.171489  0  3.788767  0  0.164554  0  0.163302  0  4.03278  0  0  0.168124  0  4.055605  0  0  0.091574  0.160004  0  4.017472  0
C  C74  1  0.46105171  0.01510268  0.63586384  1  0  0.171487  0  3.788728  0  0.164566  0  0.163308  0  4.032701  0  0  0.168129  0  4.055527  0  0  0.091581  0.160012  0  4.017394  0
C  C75  1  0.53894735  0.51510504  0.86413483  1  0  0.171419  0  3.7889  0  0.16455  0  0.163211  0  4.032953  0  0  0.168034  0  4.055779  0  0  0.091571  0.159915  0  4.017641  0
C  C76  1  0.17572561  0.12501250  0.23738349  1  0  -0.072097  0  3.674239  0  0.291086  0  -0.109609  0  3.929546  0  0  -0.10855  0  3.948239  0  0  -0.004197  -0.110173  0  3.91628  0
C  C77  1  0.82427926  0.62500919  0.26261748  1  0  -0.072191  0  3.674212  0  0.290697  0  -0.109712  0  3.929533  0  0  -0.108655  0  3.948223  0  0  -0.004215  -0.110277  0  3.916263  0
C  C78  1  0.82427358  0.87499003  0.76261539  1  0  -0.072156  0  3.674185  0  0.291091  0  -0.109646  0  3.929505  0  0  -0.108599  0  3.94819  0  0  -0.004228  -0.11021  0  3.916235  0
C  C79  1  0.17571864  0.37498854  0.73738416  1  0  -0.072164  0  3.674218  0  0.290971  0  -0.109679  0  3.929545  0  0  -0.10862  0  3.948237  0  0  -0.0042  -0.110242  0  3.916273  0
C  C80  1  0.46043000  0.79119956  0.43650107  1  0  0.148287  0  3.642803  0  0.941069  0  0.090206  0  3.906896  0  0  0.103923  0  3.918066  0  0  0.135366  0.081011  0  3.899598  0
C  C81  1  0.53956524  0.29120015  0.06349803  1  0  0.148329  0  3.642723  0  0.941632  0  0.090253  0  3.906839  0  0  0.103971  0  3.918006  0  0  0.135433  0.081058  0  3.899543  0
C  C82  1  0.53956514  0.20880009  0.56349942  1  0  0.148313  0  3.642774  0  0.941036  0  0.09022  0  3.906881  0  0  0.103937  0  3.918051  0  0  0.135415  0.081024  0  3.899587  0
C  C83  1  0.46043532  0.70880142  0.93650088  1  0  0.148321  0  3.642691  0  0.941618  0  0.090229  0  3.906797  0  0  0.103947  0  3.917964  0  0  0.135403  0.081032  0  3.899499  0
C  C84  1  0.53542961  0.11864586  0.36689536  1  0  -0.130009  0  3.742919  0  0.09248  0  -0.148095  0  3.990811  0  0  -0.15138  0  4.012574  0  0  -0.088662  -0.145892  0  3.976184  0
C  C85  1  0.46456980  0.61864267  0.13310553  1  0  -0.129899  0  3.742847  0  0.092511  0  -0.148038  0  3.990784  0  0  -0.151324  0  4.012547  0  0  -0.08859  -0.145833  0  3.976156  0
C  C86  1  0.46456828  0.88135571  0.63310572  1  0  -0.129952  0  3.74289  0  0.092491  0  -0.148071  0  3.990799  0  0  -0.151356  0  4.012563  0  0  -0.088599  -0.145865  0  3.976173  0
C  C87  1  0.53543078  0.38135698  0.86689394  1  0  -0.129942  0  3.742849  0  0.092478  0  -0.148079  0  3.990811  0  0  -0.151365  0  4.012574  0  0  -0.088619  -0.145875  0  3.976187  0
C  C88  1  0.64186221  0.18907753  0.31969688  1  0  -0.096795  0  3.736856  0  -0.062458  0  -0.112723  0  3.978486  0  0  -0.115079  0  3.999131  0  0  -0.085163  -0.111063  0  3.964802  0
C  C89  1  0.35813856  0.68907431  0.18030456  1  0  -0.096656  0  3.736913  0  -0.062437  0  -0.112587  0  3.978565  0  0  -0.114942  0  3.99921  0  0  -0.085173  -0.110924  0  3.964872  0
C  C90  1  0.35813702  0.81092308  0.68030367  1  0  -0.096757  0  3.736928  0  -0.062632  0  -0.112692  0  3.978536  0  0  -0.11505  0  3.999186  0  0  -0.085192  -0.11103  0  3.964848  0
C  C91  1  0.64186204  0.31092438  0.81969601  1  0  -0.096801  0  3.736936  0  -0.062458  0  -0.112734  0  3.97859  0  0  -0.11509  0  3.999234  0  0  -0.085202  -0.111073  0  3.964904  0
C  C92  1  0.85409248  0.20772235  0.21542804  1  0  -0.032782  0  3.648959  0  0.331617  0  -0.098009  0  3.893775  0  0  -0.093653  0  3.904803  0  0  -0.040922  -0.101173  0  3.886612  0
C  C93  1  0.14590687  0.70772096  0.28457116  1  0  -0.032694  0  3.648936  0  0.331661  0  -0.09795  0  3.893741  0  0  -0.093574  0  3.90476  0  0  -0.040903  -0.101116  0  3.886574  0
C  C94  1  0.14590533  0.79227730  0.78457027  1  0  -0.032793  0  3.648991  0  0.331797  0  -0.098042  0  3.893782  0  0  -0.093665  0  3.904784  0  0  -0.040915  -0.101206  0  3.886618  0
C  C95  1  0.85409097  0.29227677  0.71542826  1  0  -0.032802  0  3.649003  0  0.331615  0  -0.098017  0  3.89379  0  0  -0.093676  0  3.904841  0  0  -0.040925  -0.101181  0  3.886628  0
C  C96  1  0.26001363  0.95160510  0.43747579  1  0  -0.061776  0  3.643091  0  0.22436  0  -0.09973  0  3.894701  0  0  -0.098302  0  3.91335  0  0  -0.001623  -0.100522  0  3.881685  0
C  C97  1  0.73998571  0.45160184  0.06252388  1  0  -0.061861  0  3.643121  0  0.22419  0  -0.099812  0  3.894727  0  0  -0.098385  0  3.913375  0  0  -0.001655  -0.100601  0  3.881708  0
C  C98  1  0.73998422  0.04839743  0.56252418  1  0  -0.061951  0  3.643199  0  0.224188  0  -0.099908  0  3.8948  0  0  -0.09848  0  3.913448  0  0  -0.001679  -0.100701  0  3.881783  0
C  C99  1  0.26001622  0.54839685  0.93747505  1  0  -0.061964  0  3.643149  0  0.224207  0  -0.09985  0  3.894777  0  0  -0.098421  0  3.913425  0  0  -0.001644  -0.100666  0  3.881743  0
C  C100  1  0.19889305  0.85026965  0.47832404  1  0  -0.013464  0  3.749369  0  0.433622  0  -0.042435  0  4.007827  0  0  -0.041959  0  4.029115  0  0  -0.00559  -0.04253  0  3.99326  0
C  C101  1  0.80110359  0.35026739  0.02167673  1  0  -0.013409  0  3.749253  0  0.433834  0  -0.042349  0  4.007701  0  0  -0.041872  0  4.02899  0  0  -0.005544  -0.042442  0  3.993135  0
C  C102  1  0.80110209  0.14973192  0.52167645  1  0  -0.013412  0  3.749242  0  0.433865  0  -0.042341  0  4.007684  0  0  -0.041864  0  4.028971  0  0  -0.005567  -0.042436  0  3.99312  0
C  C103  1  0.19889971  0.64973130  0.97832277  1  0  -0.01341  0  3.749274  0  0.433892  0  -0.042327  0  4.007701  0  0  -0.041851  0  4.028989  0  0  -0.005555  -0.042423  0  3.993139  0
N  N104  1  0.42653780  0.91290076  0.41101407  1  0  -0.089443  0  3.600499  0  -1.301188  0  0.000349  0  3.811577  0  0  -0.014269  0  3.837209  0  0  -0.227115  0.010001  0  3.794122  0
N  N105  1  0.57346156  0.41289940  0.08898617  1  0  -0.089543  0  3.600604  0  -1.301777  0  0.000272  0  3.811675  0  0  -0.014348  0  3.837307  0  0  -0.227141  0.009924  0  3.79422  0
N  N106  1  0.57345871  0.08709889  0.58898644  1  0  -0.089437  0  3.600484  0  -1.301201  0  0.000365  0  3.811561  0  0  -0.014255  0  3.837194  0  0  -0.227109  0.010017  0  3.794108  0
N  N107  1  0.42654171  0.58710121  0.91101167  1  0  -0.089466  0  3.600622  0  -1.301756  0  0.000348  0  3.811701  0  0  -0.014275  0  3.837335  0  0  -0.227154  0.009998  0  3.794251  0
N  N108  1  0.21708242  0.04963487  0.12220820  1  0  -0.354753  0  3.359721  0  -1.208349  0  -0.27574  0  3.664104  0  0  -0.294538  0  3.678088  0  0  -0.379009  -0.263134  0  3.654025  0
N  N109  1  0.78292520  0.54963241  0.37779340  1  0  -0.355022  0  3.359967  0  -1.208746  0  -0.276047  0  3.664417  0  0  -0.294845  0  3.678395  0  0  -0.379139  -0.263442  0  3.654336  0
N  N110  1  0.78292226  0.95036670  0.87779188  1  0  -0.354822  0  3.359875  0  -1.20874  0  -0.275845  0  3.664318  0  0  -0.294643  0  3.678301  0  0  -0.379048  -0.26324  0  3.654232  0
N  N111  1  0.21707682  0.45036820  0.62220942  1  0  -0.354782  0  3.359813  0  -1.208512  0  -0.275779  0  3.664218  0  0  -0.294577  0  3.678205  0  0  -0.379011  -0.263174  0  3.654132  0
N  N112  1  0.02113372  0.14753023  0.19222326  1  0  -0.057622  0  3.586485  0  -1.283277  0  0.037594  0  3.798225  0  0  0.0229  0  3.825139  0  0  -0.244819  0.047291  0  3.780118  0
N  N113  1  0.97886841  0.64752687  0.30777766  1  0  -0.057739  0  3.586403  0  -1.283318  0  0.037456  0  3.798208  0  0  0.02276  0  3.825114  0  0  -0.244864  0.047155  0  3.780101  0
N  N114  1  0.97886685  0.85247038  0.80777620  1  0  -0.057625  0  3.586429  0  -1.283264  0  0.037596  0  3.798168  0  0  0.022894  0  3.82508  0  0  -0.244812  0.047294  0  3.780062  0
N  N115  1  0.02113080  0.35246990  0.69222178  1  0  -0.057623  0  3.586434  0  -1.283318  0  0.037582  0  3.798195  0  0  0.02289  0  3.825113  0  0  -0.24483  0.047278  0  3.780092  0
N  N116  1  0.66193900  0.93746594  0.07994606  1  0  -0.563441  0  2.671152  0  -0.24033  0  -0.53357  0  2.980451  0  0  -0.55059  0  2.983794  0  0  -0.315638  -0.521726  0  2.978118  0
N  N117  1  0.33806856  0.43747388  0.42005486  1  0  -0.563525  0  2.670896  0  -0.240627  0  -0.533658  0  2.980201  0  0  -0.55068  0  2.983539  0  0  -0.315711  -0.521813  0  2.977871  0
N  N118  1  0.33806567  0.06252795  0.92005347  1  0  -0.563396  0  2.671184  0  -0.24054  0  -0.53352  0  2.980468  0  0  -0.550539  0  2.983809  0  0  -0.31559  -0.521676  0  2.978134  0
N  N119  1  0.66193887  0.56253729  0.57994583  1  0  -0.56342  0  2.671204  0  -0.240583  0  -0.53355  0  2.980489  0  0  -0.550569  0  2.983828  0  0  -0.31561  -0.521708  0  2.978157  0
N  N120  1  0.32487005  0.75133764  0.47712452  1  0  -0.343899  0  3.362169  0  -1.234762  0  -0.265329  0  3.663091  0  0  -0.283788  0  3.677946  0  0  -0.371316  -0.253026  0  3.652775  0
N  N121  1  0.67512657  0.25133634  0.02287462  1  0  -0.343928  0  3.362095  0  -1.234792  0  -0.265391  0  3.663066  0  0  -0.283849  0  3.677917  0  0  -0.37134  -0.253086  0  3.652752  0
N  N122  1  0.67512649  0.24866393  0.52287710  1  0  -0.343902  0  3.362108  0  -1.234775  0  -0.26539  0  3.663093  0  0  -0.283849  0  3.677945  0  0  -0.371354  -0.253087  0  3.652779  0
N  N123  1  0.32487536  0.74866331  0.97712431  1  0  -0.343904  0  3.362092  0  -1.234788  0  -0.265394  0  3.663085  0  0  -0.283853  0  3.677935  0  0  -0.371348  -0.25309  0  3.652764  0
N  N124  1  0.76427821  0.84823402  0.08619352  1  0  0.370815  0  4.307001  0  -0.416453  0  0.4121  0  4.581359  0  0  0.426212  0  4.612745  0  0  0.053067  0.402582  0  4.56006  0
N  N125  1  0.23572662  0.34823812  0.41380683  1  0  0.370706  0  4.306713  0  -0.416453  0  0.412002  0  4.581073  0  0  0.426114  0  4.612454  0  0  0.052971  0.402485  0  4.559777  0
N  N126  1  0.23572919  0.15175988  0.91380605  1  0  0.3707  0  4.307056  0  -0.4159  0  0.411984  0  4.581412  0  0  0.426096  0  4.612798  0  0  0.052907  0.402468  0  4.560116  0
N  N127  1  0.76427807  0.65176825  0.58619325  1  0  0.370874  0  4.307025  0  -0.416097  0  0.412172  0  4.581361  0  0  0.426286  0  4.612744  0  0  0.053111  0.402654  0  4.560065  0
N  N128  1  0.86664756  0.76075186  0.09381559  1  0  -0.508773  0  2.430698  0  -0.144846  0  -0.503335  0  2.665042  0  0  -0.513335  0  2.673786  0  0  -0.259641  -0.49612  0  2.65926  0
N  N129  1  0.13335864  0.26075982  0.40618481  1  0  -0.508599  0  2.430704  0  -0.144518  0  -0.503151  0  2.665013  0  0  -0.513146  0  2.673758  0  0  -0.259482  -0.495937  0  2.659231  0
N  N130  1  0.13335984  0.23924299  0.90618398  1  0  -0.508714  0  2.430722  0  -0.145177  0  -0.503253  0  2.665028  0  0  -0.513252  0  2.673774  0  0  -0.259529  -0.496038  0  2.65925  0
N  N131  1  0.86665014  0.73925039  0.59381534  1  0  -0.508859  0  2.43067  0  -0.144955  0  -0.503429  0  2.665008  0  0  -0.513432  0  2.673752  0  0  -0.259717  -0.496214  0  2.659227  0
