# generated using pymatgen
data_Na2CuH10(C5O6)2
_symmetry_space_group_name_H-M   'P 1'
_cell_length_a   6.88509149
_cell_length_b   8.92472152
_cell_length_c   13.03937029
_cell_angle_alpha   86.49285809
_cell_angle_beta   80.85896974
_cell_angle_gamma   67.34579684
_symmetry_Int_Tables_number   1
_chemical_formula_structural   Na2CuH10(C5O6)2
_chemical_formula_sum   'Na4 Cu2 H20 C20 O24'
_cell_volume   730.02818347
_cell_formula_units_Z   2
loop_
 _symmetry_equiv_pos_site_id
 _symmetry_equiv_pos_as_xyz
  1  'x, y, z'
loop_
 _atom_site_type_symbol
 _atom_site_label
 _atom_site_symmetry_multiplicity
 _atom_site_fract_x
 _atom_site_fract_y
 _atom_site_fract_z
 _atom_site_occupancy
 _atom_site_hle17_ddec_charge
 _atom_site_hle17_ddec_spin_density
 _atom_site_hle17_ddec_sum_bond_order
 _atom_site_hle17_magmom
 _atom_site_hse06_10hf_ddec_charge
 _atom_site_hse06_10hf_ddec_spin_density
 _atom_site_hse06_10hf_ddec_sum_bond_order
 _atom_site_hse06_10hf_magmom
 _atom_site_hse06_ddec_charge
 _atom_site_hse06_ddec_spin_density
 _atom_site_hse06_ddec_sum_bond_order
 _atom_site_hse06_magmom
 _atom_site_pbe_cm5_charge
 _atom_site_pbe_ddec_charge
 _atom_site_pbe_ddec_spin_density
 _atom_site_pbe_ddec_sum_bond_order
 _atom_site_pbe_magmom
Na  Na0  1  0.57384238  0.20631580  0.63053792  1  0.911019  -0.000127  0.363163  0.0  0.869626  -0.000148  0.514253  0.0  0.879897  -8.1e-05  0.492821  0.0  0.650452  0.862148  -0.000219  0.529454  0.0
Na  Na1  1  0.21998899  0.20620831  0.86947675  1  0.911086  -0.000127  0.362758  0.0  0.869514  -0.000148  0.513895  0.0  0.87968  -8.1e-05  0.492664  0.0  0.65014  0.86204  -0.00022  0.529086  0.0
Na  Na2  1  0.42616471  0.79367763  0.36946052  1  0.911031  -0.000127  0.363144  0.0  0.869627  -0.000148  0.514254  0.0  0.879899  -8.1e-05  0.492821  0.0  0.650425  0.862148  -0.000219  0.529454  0.0
Na  Na3  1  0.78001387  0.79379361  0.13052400  1  0.911094  -0.000127  0.362743  0.0  0.86953  -0.000148  0.513888  0.0  0.879693  -8.1e-05  0.492654  0.0  0.650168  0.862052  -0.00022  0.529078  0.0
Cu  Cu4  1  0.01132290  0.97716983  0.75000574  1  0.969173  -0.674555  1.639213  -0.504  0.960795  -0.776062  2.023605  -0.629  1.066932  -0.841895  1.934757  -0.718  0.717166  0.890175  -0.729365  2.090846  -0.572
Cu  Cu5  1  0.98866932  0.02283574  0.24999653  1  0.969296  -0.674579  1.639242  -0.504  0.960974  -0.776069  2.023534  -0.629  1.067014  -0.841898  1.934809  -0.718  0.717244  0.890305  -0.72938  2.090853  -0.572
H  H6  1  0.98006180  0.48829151  0.31222946  1  0.112333  1.3e-05  0.980338  0.0  0.120244  -6.9e-05  1.043934  0.0  0.12412  -3.9e-05  1.041344  0.0  0.110881  0.11735  -9.6e-05  1.046035  0.0
H  H7  1  0.53146526  0.48862848  0.18774177  1  0.111679  1.7e-05  0.980729  0.0  0.119893  -7e-05  1.043955  0.0  0.123835  -4e-05  1.04126  0.0  0.110644  0.11704  -9.8e-05  1.046  0.0
H  H8  1  0.01993343  0.51170799  0.68776975  1  0.112298  1.5e-05  0.980377  0.0  0.120198  -6.9e-05  1.04398  0.0  0.12409  -3.9e-05  1.04137  0.0  0.110883  0.11731  -9.6e-05  1.046079  0.0
H  H9  1  0.46852999  0.51137102  0.81225973  1  0.111655  1.5e-05  0.980788  0.0  0.119898  -7e-05  1.043981  0.0  0.123836  -4e-05  1.041296  0.0  0.110629  0.117047  -9.8e-05  1.046028  0.0
H  H10  1  0.66458650  0.17100902  0.41387748  1  0.412638  0.000515  0.882702  0.0  0.381799  0.000443  0.949739  0.0  0.391088  0.000443  0.935597  0.0  0.297064  0.375168  0.000411  0.959854  0.0
H  H11  1  0.16436715  0.17104540  0.08616322  1  0.412657  0.000517  0.880958  0.0  0.381934  0.000443  0.949062  0.0  0.391197  0.000443  0.934957  0.0  0.297349  0.375321  0.000412  0.959165  0.0
H  H12  1  0.33541376  0.82898926  0.58612288  1  0.412629  0.000517  0.882747  0.0  0.381793  0.000443  0.949758  0.0  0.391083  0.000443  0.935616  0.0  0.297116  0.375161  0.000412  0.959876  0.0
H  H13  1  0.83562541  0.82895653  0.91383765  1  0.41267  0.000517  0.880951  0.0  0.381943  0.000443  0.949055  0.0  0.391207  0.000444  0.934947  0.0  0.297372  0.375331  0.000412  0.959158  0.0
H  H14  1  0.44019049  0.15403176  0.43420698  1  0.421918  4.5e-05  0.880852  0.0  0.391928  4.1e-05  0.943444  0.0  0.401855  2.6e-05  0.929071  0.0  0.291621  0.384878  4.8e-05  0.953647  0.0
H  H15  1  0.40565044  0.15420344  0.06585052  1  0.421105  4.5e-05  0.881724  0.0  0.391538  4.1e-05  0.943795  0.0  0.401446  2.5e-05  0.929424  0.0  0.291755  0.384507  4.7e-05  0.953979  0.0
H  H16  1  0.55981971  0.84597017  0.56579159  1  0.422051  4.4e-05  0.880656  0.0  0.392046  4.1e-05  0.943298  0.0  0.401975  2.6e-05  0.928922  0.0  0.291645  0.384995  4.8e-05  0.953503  0.0
H  H17  1  0.59434738  0.84579970  0.93414908  1  0.421168  4.3e-05  0.881646  0.0  0.391558  4.1e-05  0.943791  0.0  0.401464  2.6e-05  0.92943  0.0  0.291758  0.384527  4.7e-05  0.953977  0.0
H  H18  1  0.32163995  0.56357040  0.65277524  1  0.406424  -7.2e-05  0.881719  0.0  0.380332  -0.000122  0.9514  0.0  0.389091  -6.8e-05  0.938401  0.0  0.293833  0.374098  -0.000184  0.960664  0.0
H  H19  1  0.11457430  0.56365192  0.84724659  1  0.405552  -7.8e-05  0.882451  0.0  0.379067  -0.000125  0.953112  0.0  0.387858  -6.9e-05  0.940092  0.0  0.293446  0.372833  -0.000189  0.962343  0.0
H  H20  1  0.67836006  0.43642545  0.34722525  1  0.406446  -7.3e-05  0.881631  0.0  0.380322  -0.000122  0.951423  0.0  0.389081  -6.8e-05  0.938424  0.0  0.293785  0.374084  -0.000185  0.960696  0.0
H  H21  1  0.88542215  0.43634515  0.15275415  1  0.405518  -7.9e-05  0.882501  0.0  0.379033  -0.000125  0.95316  0.0  0.387823  -6.9e-05  0.940142  0.0  0.293437  0.372804  -0.000189  0.962385  0.0
H  H22  1  0.53252253  0.56951915  0.60355859  1  0.424909  1e-06  0.867108  0.0  0.398738  -3e-06  0.924455  0.0  0.4081  -4e-06  0.910781  0.0  0.29283  0.392086  -5e-06  0.934163  0.0
H  H23  1  0.89794384  0.56931860  0.89653432  1  0.424112  -1e-06  0.867916  0.0  0.397864  -3e-06  0.925674  0.0  0.407222  -3e-06  0.912011  0.0  0.292697  0.391206  -5e-06  0.93539  0.0
H  H24  1  0.46748015  0.43047428  0.39644177  1  0.425049  -0.0  0.866907  0.0  0.398852  -3e-06  0.924301  0.0  0.408213  -4e-06  0.910628  0.0  0.292839  0.392199  -5e-06  0.93401  0.0
H  H25  1  0.10204931  0.43068211  0.10346578  1  0.424091  0.0  0.867964  0.0  0.397859  -3e-06  0.925694  0.0  0.407216  -4e-06  0.912031  0.0  0.292688  0.391199  -5e-06  0.935412  0.0
C  C26  1  0.97176548  0.64748236  0.54438056  1  -0.054195  -0.011107  3.712129  -0.011  -0.043057  -0.006132  3.946415  -0.007  -0.047546  -0.003897  3.965208  -0.005  -0.001306  -0.040181  -0.008183  3.933891  -0.009
C  C27  1  0.38062372  0.64732755  0.95556258  1  -0.056201  -0.011071  3.712276  -0.011  -0.045464  -0.006119  3.946912  -0.007  -0.04982  -0.003889  3.9655  -0.005  -0.002253  -0.042653  -0.008209  3.934518  -0.009
C  C28  1  0.02823384  0.35252078  0.45562120  1  -0.054341  -0.011104  3.712053  -0.011  -0.043151  -0.006134  3.946352  -0.007  -0.047644  -0.003893  3.96515  -0.005  -0.001316  -0.04027  -0.008184  3.933817  -0.009
C  C29  1  0.61937485  0.35266831  0.04444186  1  -0.056226  -0.011064  3.712401  -0.011  -0.045657  -0.006117  3.947159  -0.007  -0.05002  -0.003889  3.965755  -0.005  -0.002231  -0.042843  -0.008206  3.934766  -0.009
C  C30  1  0.95620736  0.64092942  0.43881408  1  -0.03949  -0.010631  3.700775  -0.011  -0.025241  -0.006106  3.931068  -0.007  -0.029216  -0.003867  3.94987  -0.005  0.004244  -0.022725  -0.00817  3.918547  -0.009
C  C31  1  0.40255667  0.64102634  0.06113663  1  -0.037252  -0.010567  3.696506  -0.011  -0.023269  -0.006083  3.927246  -0.007  -0.027333  -0.003857  3.946167  -0.004  0.004337  -0.02073  -0.008187  3.914723  -0.009
C  C32  1  0.04379785  0.35907372  0.56118794  1  -0.039349  -0.010632  3.700745  -0.011  -0.025156  -0.006107  3.931045  -0.007  -0.02913  -0.003871  3.949851  -0.005  0.00417  -0.022644  -0.00817  3.918527  -0.009
C  C33  1  0.59744779  0.35896952  0.93886808  1  -0.03707  -0.010582  3.696335  -0.011  -0.023067  -0.006082  3.927156  -0.007  -0.02708  -0.003856  3.945982  -0.004  0.004397  -0.020539  -0.008186  3.914642  -0.009
C  C34  1  0.98473470  0.49345159  0.39536556  1  -0.096586  -0.002738  3.699251  -0.002  -0.12512  -0.002062  3.942583  -0.002  -0.126432  -0.001147  3.961484  -0.001  -0.072062  -0.124237  -0.002961  3.930152  -0.003
C  C35  1  0.52160651  0.49367096  0.10461568  1  -0.095718  -0.002759  3.698406  -0.002  -0.123903  -0.002055  3.941199  -0.002  -0.125269  -0.001141  3.960032  -0.001  -0.071482  -0.122997  -0.002958  3.928763  -0.003
C  C36  1  0.01526756  0.50655155  0.60463519  1  -0.096634  -0.002743  3.699439  -0.002  -0.125145  -0.002062  3.942796  -0.002  -0.126467  -0.001145  3.961684  -0.001  -0.072067  -0.124264  -0.002961  3.930372  -0.003
C  C37  1  0.47839327  0.50632247  0.89538800  1  -0.095902  -0.002743  3.698449  -0.002  -0.124166  -0.002055  3.941223  -0.002  -0.125538  -0.001142  3.960061  -0.001  -0.071497  -0.12326  -0.002958  3.928791  -0.003
C  C38  1  0.92427723  0.80418752  0.59827499  1  0.676878  0.004196  3.853236  0.004  0.629475  0.000198  4.152958  0.001  0.666558  0.000797  4.144018  0.001  0.228378  0.60424  -0.000365  4.158199  0.001
C  C39  1  0.27152090  0.80393395  0.90156279  1  0.676116  0.004189  3.856373  0.004  0.628978  0.000199  4.155801  0.001  0.666056  0.000798  4.146885  0.001  0.228258  0.60374  -0.00036  4.161008  0.001
C  C40  1  0.07572595  0.19581076  0.40172281  1  0.677069  0.004187  3.852952  0.004  0.629589  0.000201  4.152774  0.001  0.666675  0.000794  4.143825  0.001  0.228402  0.604348  -0.000364  4.158011  0.001
C  C41  1  0.72846517  0.19606919  0.09843936  1  0.676197  0.004178  3.856585  0.004  0.629203  0.000197  4.15584  0.001  0.666276  0.000796  4.14692  0.001  0.228349  0.603963  -0.000362  4.161049  0.001
C  C42  1  0.91383161  0.78520424  0.36804199  1  0.678568  0.006557  3.887619  0.006  0.636069  0.001451  4.185216  0.002  0.672547  0.002067  4.17758  0.002  0.219787  0.611234  0.000834  4.189689  0.002
C  C43  1  0.30080585  0.78538289  0.13187987  1  0.676506  0.006513  3.885982  0.006  0.63408  0.001444  4.183797  0.002  0.670506  0.00206  4.176289  0.002  0.218856  0.609256  0.000826  4.188187  0.002
C  C44  1  0.08618186  0.21479405  0.63195493  1  0.678334  0.00656  3.887795  0.006  0.635888  0.00145  4.18532  0.002  0.672364  0.002069  4.1777  0.002  0.219787  0.611057  0.000833  4.189795  0.002
C  C45  1  0.69919187  0.21462632  0.86811793  1  0.676503  0.006534  3.885856  0.006  0.634068  0.001443  4.183679  0.002  0.67049  0.002061  4.176194  0.002  0.21884  0.609257  0.000825  4.188063  0.002
O  O46  1  0.74945306  0.91922661  0.59447363  1  -0.625529  0.000788  1.972024  0.0  -0.58156  0.00062  2.201232  0.0  -0.605728  0.001371  2.189928  0.001  -0.332768  -0.564671  -0.000172  2.208507  -0.001
O  O47  1  0.33141822  0.91901463  0.90536870  1  -0.625158  0.000787  1.972195  0.0  -0.581335  0.000625  2.201044  0.0  -0.605494  0.001374  2.189732  0.001  -0.332645  -0.564442  -0.000182  2.208367  -0.001
O  O48  1  0.25055534  0.08077288  0.40551830  1  -0.625583  0.000785  1.971851  0.0  -0.581624  0.000622  2.201106  0.0  -0.605789  0.001369  2.189794  0.001  -0.332812  -0.564731  -0.000172  2.20838  -0.001
O  O49  1  0.66857980  0.08098244  0.09464111  1  -0.625127  0.000793  1.972186  0.0  -0.581383  0.000625  2.200987  0.0  -0.605537  0.001375  2.189665  0.001  -0.332713  -0.564491  -0.000181  2.208313  -0.001
O  O50  1  0.07118162  0.80209340  0.65035175  1  -0.640857  -0.068435  2.104529  -0.095  -0.595564  -0.046894  2.380365  -0.071  -0.637939  -0.036017  2.365262  -0.059  -0.318288  -0.56683  -0.053563  2.39055  -0.076
O  O51  1  0.12671551  0.80179111  0.84950146  1  -0.640408  -0.068262  2.105955  -0.095  -0.595036  -0.046833  2.38137  -0.071  -0.637403  -0.035973  2.366304  -0.059  -0.318026  -0.566288  -0.053503  2.391539  -0.076
O  O52  1  0.92880937  0.19791459  0.34964823  1  -0.640928  -0.068432  2.104464  -0.095  -0.595589  -0.046896  2.380297  -0.071  -0.637937  -0.036017  2.365178  -0.059  -0.318266  -0.566844  -0.053563  2.390484  -0.076
O  O53  1  0.87327516  0.19819988  0.15050081  1  -0.640531  -0.068266  2.106183  -0.095  -0.595199  -0.046833  2.38154  -0.071  -0.637544  -0.035972  2.366469  -0.059  -0.318079  -0.566439  -0.053503  2.391717  -0.076
O  O54  1  0.76027165  0.82670182  0.31758944  1  -0.693181  0.001016  1.930222  -0.001  -0.659962  0.001038  2.176573  0.0  -0.683871  0.002028  2.162152  0.001  -0.395749  -0.643123  6e-05  2.186194  -0.001
O  O55  1  0.41284068  0.82679422  0.18243437  1  -0.692702  0.00103  1.93109  -0.001  -0.659283  0.001032  2.17715  0.0  -0.683178  0.002021  2.162801  0.001  -0.395007  -0.642419  6.3e-05  2.186726  -0.001
O  O56  1  0.23973862  0.17329404  0.68240785  1  -0.693066  0.001016  1.930384  -0.001  -0.659857  0.001038  2.176694  0.0  -0.683772  0.002028  2.16228  0.001  -0.395754  -0.643025  6.1e-05  2.186321  -0.001
O  O57  1  0.58717067  0.17320528  0.81755808  1  -0.69276  0.001017  1.931016  -0.001  -0.659326  0.001032  2.177067  0.0  -0.683234  0.002021  2.162727  0.001  -0.395003  -0.642465  6.3e-05  2.186644  -0.001
O  O58  1  0.04839327  0.85526575  0.36052721  1  -0.648236  -0.082657  2.066183  -0.114  -0.619414  -0.054195  2.345604  -0.081  -0.663523  -0.040813  2.336416  -0.067  -0.355866  -0.589906  -0.062394  2.351931  -0.088
O  O59  1  0.09628794  0.85552700  0.13932657  1  -0.647671  -0.082522  2.065579  -0.114  -0.618581  -0.054085  2.34442  -0.081  -0.662649  -0.040729  2.335301  -0.067  -0.355433  -0.589019  -0.062316  2.350676  -0.088
O  O60  1  0.95161541  0.14473617  0.63946690  1  -0.648111  -0.082668  2.066013  -0.114  -0.619311  -0.0542  2.345435  -0.081  -0.663436  -0.040816  2.336238  -0.067  -0.355788  -0.58981  -0.0624  2.351755  -0.088
O  O61  1  0.90370722  0.14447857  0.86067468  1  -0.647639  -0.08252  2.065528  -0.114  -0.618501  -0.054084  2.344332  -0.081  -0.662596  -0.040727  2.335213  -0.067  -0.355413  -0.588949  -0.062312  2.350587  -0.088
O  O62  1  0.52097026  0.21742089  0.45267130  1  -0.877516  -1.9e-05  1.83929  0.0  -0.826259  7.8e-05  2.003788  0.0  -0.844073  0.000167  1.974458  0.0  -0.632776  -0.813579  -5.1e-05  2.024455  0.0
O  O63  1  0.26160072  0.21744391  0.04730871  1  -0.876537  -1.9e-05  1.838164  0.0  -0.825845  7.9e-05  2.003313  0.0  -0.843548  0.000168  1.974055  0.0  -0.6333  -0.813231  -4.7e-05  2.023942  0.0
O  O64  1  0.47903911  0.78257982  0.54733046  1  -0.877623  -2.2e-05  1.839122  0.0  -0.826393  7.8e-05  2.003566  0.0  -0.84421  0.000168  1.974238  0.0  -0.632854  -0.813707  -5.1e-05  2.024235  0.0
O  O65  1  0.73839092  0.78256287  0.95269586  1  -0.876608  -1.6e-05  1.838025  0.0  -0.825889  7.9e-05  2.003209  0.0  -0.843591  0.000167  1.973933  0.0  -0.633336  -0.813279  -4.6e-05  2.023838  0.0
O  O66  1  0.47334775  0.49473853  0.64288682  1  -0.853392  -0.000233  1.765469  0.0  -0.812378  -0.000204  1.924974  0.0  -0.82834  -8.7e-05  1.896715  0.0  -0.638725  -0.801047  -0.000344  1.944913  -0.001
O  O67  1  0.03175777  0.49469241  0.85709584  1  -0.852064  -0.000232  1.765993  0.0  -0.81054  -0.000207  1.926651  0.0  -0.826526  -9e-05  1.898369  0.0  -0.638096  -0.799154  -0.000347  1.946591  -0.001
O  O68  1  0.52665076  0.50525125  0.35710332  1  -0.853563  -0.00023  1.765155  0.0  -0.81251  -0.000205  1.924776  0.0  -0.828474  -8.8e-05  1.896518  0.0  -0.638678  -0.801177  -0.000344  1.944718  -0.001
O  O69  1  0.96823748  0.50530709  0.14290643  1  -0.852021  -0.000232  1.766085  0.0  -0.81052  -0.000207  1.926727  0.0  -0.826497  -8.9e-05  1.898436  0.0  -0.638083  -0.799137  -0.000347  1.946665  -0.001
