# generated using pymatgen
data_Zn3H24C24(N2O7)2
_symmetry_space_group_name_H-M   'P 1'
_cell_length_a   18.68769869
_cell_length_b   19.25635511
_cell_length_c   19.47268596
_cell_angle_alpha   111.46382121
_cell_angle_beta   110.72636133
_cell_angle_gamma   104.64712565
_symmetry_Int_Tables_number   1
_chemical_formula_structural   Zn3H24C24(N2O7)2
_chemical_formula_sum   'Zn6 H48 C48 N8 O28'
_cell_volume   5479.33350967
_cell_formula_units_Z   2
loop_
 _symmetry_equiv_pos_site_id
 _symmetry_equiv_pos_as_xyz
  1  'x, y, z'
loop_
 _atom_site_type_symbol
 _atom_site_label
 _atom_site_symmetry_multiplicity
 _atom_site_fract_x
 _atom_site_fract_y
 _atom_site_fract_z
 _atom_site_occupancy
 _atom_site_pbe_bader_charge
 _atom_site_pbe_bader_spin_density
 _atom_site_pbe_cm5_charge
 _atom_site_pbe_ddec_charge
 _atom_site_pbe_ddec_spin_density
 _atom_site_pbe_ddec_sum_bond_order
 _atom_site_pbe_magmom
Zn  Zn0  1  0.07727280  0.00867186  0.56420301  1  1.316605  0  0.719945  0.949813  0  2.210133  0
Zn  Zn1  1  0.03502578  0.53928551  0.98825236  1  1.291904  0  0.696429  0.914961  0  2.248443  0
Zn  Zn2  1  0.93721971  0.41085221  0.98582493  1  1.285924  0  0.701036  0.921503  0  2.181437  0
Zn  Zn3  1  0.94188195  0.99544662  0.43901884  1  1.29565  0  0.715972  0.948013  0  2.118549  0
Zn  Zn4  1  0.50271919  0.55324153  0.55850172  1  1.297726  0  0.720912  0.950711  0  2.124823  0
Zn  Zn5  1  0.52217207  0.44298406  0.44164015  1  1.307597  0  0.719049  0.94626  0  2.191876  0
H  H6  1  0.98185927  0.72797316  0.13752009  1  0.067652  0  0.101653  0.136145  0  1.009987  0
H  H7  1  0.94772119  0.55653413  0.25350515  1  0.06161  0  0.101305  0.105503  0  0.97689  0
H  H8  1  0.90614138  0.51128582  0.14138014  1  0.143284  0  0.111008  0.144488  0  1.043042  0
H  H9  1  0.83615026  0.49071167  0.18243257  1  0.028286  0  0.101615  0.102156  0  0.985443  0
H  H10  1  0.11366531  0.39162383  0.69914164  1  0.433261  0  0.322885  0.257863  0  0.930146  0
H  H11  1  0.07857720  0.51197998  0.79007728  1  0.069729  0  0.105896  0.119464  0  0.971678  0
H  H12  1  0.17163054  0.53190415  0.77903433  1  0.045613  0  0.104999  0.102513  0  0.98683  0
H  H13  1  0.17392568  0.52558255  0.86909263  1  0.05872  0  0.106367  0.122732  0  0.993094  0
H  H14  1  0.35843276  0.58845066  0.21839238  1  0.4614  0  0.322034  0.257976  0  0.930784  0
H  H15  1  0.23729888  0.61071979  0.10877127  1  0.08215  0  0.104177  0.120706  0  0.986328  0
H  H16  1  0.21823268  0.50739030  0.04575469  1  0.057058  0  0.103327  0.115243  0  1.006153  0
H  H17  1  0.03411854  0.28769631  0.82160571  1  0.097201  0  0.101352  0.136649  0  1.018982  0
H  H18  1  0.32143867  0.59028172  0.09592411  1  0.027498  0  0.100426  0.097125  0  0.988844  0
H  H19  1  0.64405457  0.50138841  0.88713644  1  0.455119  0  0.299371  0.231102  0  1.007034  0
H  H20  1  0.72883074  0.41187367  0.95178585  1  0.083801  0  0.101098  0.119329  0  0.99335  0
H  H21  1  0.70368621  0.49093503  0.00620656  1  0.022156  0  0.096998  0.095102  0  0.999771  0
H  H22  1  0.79827739  0.51750431  0.99876691  1  0.06316  0  0.094048  0.104866  0  1.029697  0
H  H23  1  0.85812664  0.63178487  0.23807605  1  0.424059  0  0.317552  0.251548  0  0.933927  0
H  H24  1  0.14882805  0.41360169  0.18049194  1  0.081858  0  0.101709  0.136508  0  1.008685  0
H  H25  1  0.77221494  0.43861381  0.76328065  1  0.164106  0  0.106861  0.142871  0  1.079285  0
H  H26  1  0.84847075  0.81678694  0.21872287  1  0.49968  0  0.31031  0.270003  0  0.963716  0
H  H27  1  0.71624852  0.68515042  0.09818708  1  0.042321  0  0.098977  0.099781  0  0.984129  0
H  H28  1  0.78586890  0.64915024  0.06894573  1  0.075786  0  0.107771  0.116157  0  1.037393  0
H  H29  1  0.77173578  0.73285289  0.05729532  1  0.041047  0  0.10686  0.114816  0  0.971323  0
H  H30  1  0.14736036  0.20617366  0.70528725  1  0.495695  0  0.305498  0.267116  0  0.982707  0
H  H31  1  0.27843311  0.30425500  0.83100970  1  0.053638  0  0.109153  0.117152  0  0.97351  0
H  H32  1  0.23103577  0.37025155  0.86351096  1  0.075334  0  0.102323  0.107515  0  1.005675  0
H  H33  1  0.26227176  0.36893892  0.78661315  1  0.040222  0  0.09221  0.089131  0  0.996352  0
H  H34  1  0.37925776  0.42375404  0.26647971  1  0.492674  0  0.305996  0.267816  0  0.98239  0
H  H35  1  0.35604175  0.38346212  0.11745991  1  0.031784  0  0.100391  0.102211  0  0.983503  0
H  H36  1  0.25733370  0.38997285  0.09404249  1  0.08188  0  0.1084  0.117167  0  1.017384  0
H  H37  1  0.27223844  0.31070843  0.11456007  1  0.057061  0  0.10671  0.112859  0  0.972132  0
H  H38  1  0.55878611  0.51996422  0.74150064  1  0.447899  0  0.293061  0.252619  0  0.98958  0
H  H39  1  0.45752152  0.42089035  0.74903645  1  0.007251  0  0.097524  0.104008  0  0.985888  0
H  H40  1  0.52712065  0.37272293  0.76378147  1  0.063047  0  0.102861  0.111016  0  1.001979  0
H  H41  1  0.47543569  0.36794166  0.66436690  1  0.002002  0  0.088856  0.093375  0  1.000187  0
H  H42  1  0.14040184  0.88180921  0.39925730  1  0.069535  0  0.091345  0.096091  0  1.003241  0
H  H43  1  0.10862315  0.80317982  0.29388827  1  0.050735  0  0.090091  0.08544  0  1.01466  0
H  H44  1  0.15454314  0.78938470  0.38308396  1  0.059266  0  0.10465  0.111544  0  0.972623  0
H  H45  1  0.88615298  0.20614675  0.69004175  1  0.063117  0  0.092285  0.091022  0  1.006579  0
H  H46  1  0.84107366  0.12119428  0.58376434  1  0.021292  0  0.092589  0.094543  0  1.002234  0
H  H47  1  0.81699728  0.20852500  0.60017923  1  0.064716  0  0.106894  0.115166  0  0.968554  0
H  H48  1  0.27195852  0.56289963  0.44122165  1  0.059794  0  0.090572  0.092344  0  1.008053  0
H  H49  1  0.19103417  0.52401664  0.33385249  1  0.033442  0  0.088363  0.081668  0  1.018355  0
H  H50  1  0.23871098  0.63221417  0.41173355  1  0.065181  0  0.104384  0.111112  0  0.972353  0
H  H51  1  0.80441067  0.61699334  0.74171753  1  0.066537  0  0.099551  0.097389  0  0.987282  0
H  H52  1  0.75177491  0.55060927  0.62791887  1  0.077972  0  0.094169  0.102104  0  1.015589  0
H  H53  1  0.84371064  0.54732351  0.69594158  1  0.064962  0  0.112509  0.120383  0  0.966286  0
C  C54  1  0.97573125  0.87310238  0.36882942  1  1.435772  0  0.187106  0.54214  0  4.218463  0
C  C55  1  0.14046303  0.09410255  0.50282426  1  1.688201  0  0.218776  0.65254  0  4.248251  0
C  C56  1  0.64098267  0.59167787  0.50149723  1  1.64056  0  0.221805  0.655271  0  4.243385  0
C  C57  1  0.40424317  0.35338962  0.45701797  1  1.657151  0  0.220616  0.657095  0  4.238919  0
C  C58  1  0.94232784  0.90486416  0.54866757  1  1.671887  0  0.22227  0.656197  0  4.239547  0
C  C59  1  0.88807103  0.83865396  0.55079086  1  0.080419  0  -0.001207  -0.120428  0  3.834032  0
C  C60  1  0.20004621  0.14358953  0.48949821  1  -0.008715  0  -0.004719  -0.125212  0  3.852844  0
C  C61  1  0.71299149  0.65590997  0.51576889  1  0.176023  0  -0.009573  -0.140047  0  3.857494  0
C  C62  1  0.99399090  0.13146375  0.58322322  1  1.442448  0  0.192828  0.547765  0  4.202102  0
C  C63  1  0.34646036  0.28603717  0.45443009  1  0.264383  0  -0.009211  -0.13956  0  3.856817  0
C  C64  1  0.83430148  0.77914753  0.54189232  1  -0.23705  0  -0.007601  0.022132  0  4.228291  0
C  C65  1  0.24733884  0.18696395  0.47600399  1  -0.107467  0  -0.009575  0.02089  0  4.24007  0
C  C66  1  0.77191945  0.71439379  0.52928854  1  -0.198873  0  -0.004803  0.035265  0  4.229963  0
C  C67  1  0.29932440  0.23732922  0.46349310  1  -0.383299  0  -0.004385  0.033079  0  4.238274  0
C  C68  1  0.40184955  0.52870548  0.40676267  1  1.407408  0  0.191372  0.546597  0  4.198198  0
C  C69  1  0.91550939  0.66717581  0.18035244  1  0.405917  0  0.120591  0.220582  0  4.070508  0
C  C70  1  0.08154066  0.35116755  0.76993939  1  0.421306  0  0.120517  0.231094  0  4.07329  0
C  C71  1  0.25144211  0.50391033  0.19451804  1  0.362296  0  0.120793  0.225231  0  4.069805  0
C  C72  1  0.70127901  0.45964468  0.82330686  1  0.375535  0  0.098607  0.199884  0  4.078521  0
C  C73  1  0.60880211  0.50616986  0.63901487  1  1.504468  0  0.209695  0.560722  0  4.16997  0
C  C74  1  0.95733561  0.66891537  0.13507570  1  0.054766  0  -0.142181  -0.417074  0  3.926711  0
C  C75  1  0.05562846  0.34850930  0.82701388  1  0.002519  0  -0.147816  -0.431228  0  3.932829  0
C  C76  1  0.16591648  0.45900285  0.16137914  1  0.090352  0  -0.142238  -0.415762  0  3.927164  0
C  C77  1  0.76313439  0.43733704  0.81482433  1  -0.005102  0  -0.146468  -0.407675  0  3.893435  0
C  C78  1  0.91061724  0.74670796  0.22553112  1  0.427738  0  0.120624  0.096338  0  4.077152  0
C  C79  1  0.07879305  0.27047279  0.71491574  1  0.428782  0  0.114789  0.095022  0  4.057032  0
C  C80  1  0.31154250  0.48818849  0.25586453  1  0.514614  0  0.12045  0.097855  0  4.059341  0
C  C81  1  0.64943585  0.47991244  0.76172967  1  0.446238  0  0.090701  0.071219  0  3.985034  0
C  C82  1  0.97200118  0.79792399  0.31063355  1  0.588978  0  0.020889  -0.091871  0  4.068077  0
C  C83  1  0.00320333  0.21101860  0.64068659  1  0.581183  0  0.025846  -0.079821  0  4.052753  0
C  C84  1  0.34091640  0.53584356  0.34215805  1  0.53942  0  0.021842  -0.088161  0  4.055175  0
C  C85  1  0.66793391  0.49548496  0.70480389  1  0.481112  0  0.056786  -0.023435  0  3.969358  0
C  C86  1  0.83423612  0.43262217  0.87355233  1  1.467843  0  0.205378  0.672251  0  4.128762  0
C  C87  1  0.09401414  0.46425071  0.10544186  1  1.475878  0  0.194762  0.653952  0  4.177729  0
C  C88  1  0.04049341  0.40626168  0.88699591  1  1.502492  0  0.196877  0.656464  0  4.178843  0
C  C89  1  0.97626441  0.60700159  0.08457321  1  1.462258  0  0.195502  0.650699  0  4.168052  0
C  C90  1  0.89286114  0.53751476  0.19291131  1  0.239554  0  -0.138142  -0.220168  0  3.924904  0
C  C91  1  0.13494348  0.50012424  0.80070999  1  0.301039  0  -0.132643  -0.210221  0  3.958951  0
C  C92  1  0.26594760  0.56716772  0.10307876  1  0.300984  0  -0.134961  -0.208618  0  3.961979  0
C  C93  1  0.73067484  0.47296258  0.96458993  1  0.286549  0  -0.143887  -0.212341  0  3.977024  0
C  C94  1  0.77666422  0.70442736  0.09750258  1  0.318923  0  -0.129339  -0.218359  0  3.962579  0
C  C95  1  0.23500720  0.33011033  0.80922682  1  0.28466  0  -0.132912  -0.214411  0  3.994421  0
C  C96  1  0.30410054  0.37607521  0.13256465  1  0.28036  0  -0.128811  -0.215668  0  3.971758  0
C  C97  1  0.50547965  0.40741512  0.73390671  1  0.310322  0  -0.144288  -0.214737  0  3.957084  0
C  C98  1  0.11349398  0.81464927  0.35550525  1  0.352899  0  -0.144261  -0.170388  0  3.920453  0
C  C99  1  0.86629504  0.18891256  0.62337433  1  0.388532  0  -0.142173  -0.17134  0  3.918644  0
C  C100  1  0.25021102  0.57712211  0.38979442  1  0.375058  0  -0.145306  -0.170575  0  3.931084  0
C  C101  1  0.78638000  0.55578080  0.68981770  1  0.349942  0  -0.136585  -0.177288  0  3.892744  0
N  N102  1  0.87693727  0.60845786  0.19531853  1  -1.15263  0  -0.420768  -0.248904  0  3.575155  0
N  N103  1  0.15198438  0.26217104  0.74339230  1  -1.228694  0  -0.427137  -0.240193  0  3.612086  0
N  N104  1  0.33682979  0.43073086  0.22213250  1  -1.225628  0  -0.421494  -0.228664  0  3.615961  0
N  N105  1  0.57794332  0.48632419  0.76784577  1  -1.138084  0  -0.469305  -0.340663  0  3.508786  0
N  N106  1  0.84789043  0.76219040  0.18280083  1  -1.260929  0  -0.415492  -0.219548  0  3.609777  0
N  N107  1  0.11303917  0.41224034  0.75471867  1  -1.194457  0  -0.419694  -0.248086  0  3.602247  0
N  N108  1  0.29494191  0.55718872  0.17717059  1  -1.211254  0  -0.418744  -0.242827  0  3.587444  0
N  N109  1  0.68173558  0.47140661  0.88713184  1  -1.223112  0  -0.44655  -0.272931  0  3.623525  0
O  O110  1  0.03394770  0.91171321  0.44661607  1  -1.184985  0  -0.323345  -0.572111  0  2.399773  0
O  O111  1  0.05187606  0.10807507  0.61102344  1  -1.180747  0  -0.326545  -0.596567  0  2.392619  0
O  O112  1  0.43373081  0.47755059  0.38380939  1  -1.182666  0  -0.329856  -0.602206  0  2.382275  0
O  O113  1  0.57098996  0.55220316  0.65930868  1  -1.126596  0  -0.318019  -0.529143  0  2.268058  0
O  O114  1  0.91882385  0.89912664  0.34049196  1  -1.135621  0  -0.334518  -0.556532  0  2.264017  0
O  O115  1  0.02327034  0.93741293  0.59896362  1  -1.115865  0  -0.313387  -0.51957  0  2.184578  0
O  O116  1  0.06241989  0.07198882  0.45574521  1  -1.135501  0  -0.298103  -0.542307  0  2.219765  0
O  O117  1  0.60681734  0.61409848  0.54617463  1  -1.145083  0  -0.299512  -0.545574  0  2.232365  0
O  O118  1  0.92937088  0.08765129  0.50652329  1  -1.125429  0  -0.32498  -0.520453  0  2.2746  0
O  O119  1  0.44019346  0.33626434  0.41150572  1  -1.100201  0  -0.315202  -0.519839  0  2.182586  0
O  O120  1  0.90472042  0.92436391  0.49562927  1  -1.134637  0  -0.298785  -0.546464  0  2.226622  0
O  O121  1  0.17274007  0.07756295  0.56204502  1  -1.115277  0  -0.319391  -0.529517  0  2.192439  0
O  O122  1  0.61747224  0.51684476  0.44432647  1  -1.111227  0  -0.316552  -0.525567  0  2.198475  0
O  O123  1  0.41591575  0.42527597  0.50606955  1  -1.146021  0  -0.301075  -0.552536  0  2.239602  0
O  O124  1  0.42264639  0.57397999  0.48555270  1  -1.124731  0  -0.326651  -0.522663  0  2.282851  0
O  O125  1  0.90770253  0.47788179  0.88945253  1  -1.17222  0  -0.329137  -0.586259  0  2.277525  0
O  O126  1  0.01887651  0.40752805  0.07726804  1  -1.133215  0  -0.345772  -0.55915  0  2.207457  0
O  O127  1  0.99337058  0.37344113  0.91139705  1  -1.174799  0  -0.327198  -0.579438  0  2.276065  0
O  O128  1  0.02696648  0.63445857  0.05881570  1  -1.130225  0  -0.345047  -0.555251  0  2.199268  0
O  O129  1  0.59979812  0.47057059  0.56529791  1  -1.164509  0  -0.307275  -0.556492  0  2.367928  0
O  O130  1  0.82339648  0.38323226  0.90380661  1  -1.129751  0  -0.329369  -0.549712  0  2.231038  0
O  O131  1  0.10520263  0.52210992  0.08746573  1  -1.185706  0  -0.321471  -0.581132  0  2.327513  0
O  O132  1  0.07419737  0.48546497  0.91387999  1  -1.163918  0  -0.331427  -0.561002  0  2.286357  0
O  O133  1  0.94341436  0.53096339  0.06451148  1  -1.191724  0  -0.315935  -0.586767  0  2.33876  0
O  O134  1  0.03134785  0.77149353  0.34400124  1  -1.058004  0  -0.221419  -0.176221  0  2.577216  0
O  O135  1  0.93667077  0.23228331  0.61705663  1  -1.056529  0  -0.220957  -0.17674  0  2.573671  0
O  O136  1  0.31499084  0.59758132  0.36740808  1  -1.056761  0  -0.221686  -0.174244  0  2.571482  0
O  O137  1  0.73643873  0.49033476  0.69612348  1  -1.056518  0  -0.186869  -0.123325  0  2.621314  0
