# generated using pymatgen
data_SmH8C8NO9
_symmetry_space_group_name_H-M   'P 1'
_cell_length_a   7.24817256
_cell_length_b   12.02765795
_cell_length_c   13.40619152
_cell_angle_alpha   95.55710852
_cell_angle_beta   89.99999441
_cell_angle_gamma   90.00026819
_symmetry_Int_Tables_number   1
_chemical_formula_structural   SmH8C8NO9
_chemical_formula_sum   'Sm4 H32 C32 N4 O36'
_cell_volume   1163.23936728
_cell_formula_units_Z   4
loop_
 _symmetry_equiv_pos_site_id
 _symmetry_equiv_pos_as_xyz
  1  'x, y, z'
loop_
 _atom_site_type_symbol
 _atom_site_label
 _atom_site_symmetry_multiplicity
 _atom_site_fract_x
 _atom_site_fract_y
 _atom_site_fract_z
 _atom_site_occupancy
 _atom_site_hle17_bader_spin_density
 _atom_site_hle17_ddec_charge
 _atom_site_hle17_ddec_spin_density
 _atom_site_hle17_ddec_sum_bond_order
 _atom_site_hle17_magmom
 _atom_site_hse06_10hf_bader_spin_density
 _atom_site_hse06_10hf_ddec_charge
 _atom_site_hse06_10hf_ddec_spin_density
 _atom_site_hse06_10hf_ddec_sum_bond_order
 _atom_site_hse06_10hf_magmom
 _atom_site_hse06_bader_spin_density
 _atom_site_hse06_ddec_charge
 _atom_site_hse06_ddec_spin_density
 _atom_site_hse06_ddec_sum_bond_order
 _atom_site_hse06_magmom
 _atom_site_pbe_bader_spin_density
 _atom_site_pbe_cm5_charge
 _atom_site_pbe_ddec_charge
 _atom_site_pbe_ddec_spin_density
 _atom_site_pbe_ddec_sum_bond_order
 _atom_site_pbe_magmom
Sm  Sm0  1  0.26425797  0.28205001  0.70709511  1  0  2.2579  0  1.595758  0  0  2.085066  0  2.073734  0  0  2.20188  0  1.894621  0  0  1.489163  2.052568  0  2.104086  0
Sm  Sm1  1  0.76425739  0.71794902  0.79290408  1  0  2.257905  0  1.595734  0  0  2.085048  0  2.073747  0  0  2.201889  0  1.894592  0  0  1.489154  2.05257  0  2.104092  0
Sm  Sm2  1  0.73574267  0.71794944  0.29290469  1  0  2.257886  0  1.595746  0  0  2.085031  0  2.073746  0  0  2.201866  0  1.894604  0  0  1.489152  2.052531  0  2.10411  0
Sm  Sm3  1  0.23574049  0.28205043  0.20709572  1  0  2.257887  0  1.59574  0  0  2.084978  0  2.073846  0  0  2.201872  0  1.894603  0  0  1.489144  2.052507  0  2.104169  0
H  H4  1  0.28587386  0.12325947  0.50342586  1  0  0.442656  0  0.81506  0  0  0.424982  0  0.864729  0  0  0.432824  0  0.853555  0  0  0.328856  0.419719  0  0.872363  0
H  H5  1  0.78587033  0.87674382  0.99657224  1  0  0.442599  0  0.815072  0  0  0.424933  0  0.86479  0  0  0.432777  0  0.853612  0  0  0.3288  0.419668  0  0.872428  0
H  H6  1  0.71412677  0.87674083  0.49657253  1  0  0.442634  0  0.81503  0  0  0.424968  0  0.864734  0  0  0.432812  0  0.853558  0  0  0.328841  0.419706  0  0.872368  0
H  H7  1  0.21413583  0.12325729  0.00342995  1  0  0.442543  0  0.815145  0  0  0.424898  0  0.864837  0  0  0.432745  0  0.853653  0  0  0.328757  0.419636  0  0.872471  0
H  H8  1  0.15965422  0.06362496  0.58020747  1  0  0.446091  0  0.85239  0  0  0.411628  0  0.921781  0  0  0.422868  0  0.90551  0  0  0.3013  0.403785  0  0.933238  0
H  H9  1  0.65965116  0.93637629  0.91979044  1  0  0.446009  0  0.852503  0  0  0.411557  0  0.921881  0  0  0.422796  0  0.905611  0  0  0.301283  0.403717  0  0.93333  0
H  H10  1  0.84034779  0.93637617  0.41979174  1  0  0.446067  0  0.852417  0  0  0.411606  0  0.921806  0  0  0.422845  0  0.905536  0  0  0.301308  0.403766  0  0.933257  0
H  H11  1  0.34035085  0.06362397  0.08021242  1  0  0.445997  0  0.852526  0  0  0.411536  0  0.921902  0  0  0.422774  0  0.905633  0  0  0.301286  0.403694  0  0.933358  0
H  H12  1  0.94720328  0.11886792  0.69490071  1  0  0.435168  0  0.863723  0  0  0.404676  0  0.925512  0  0  0.416358  0  0.908521  0  0  0.29589  0.396456  0  0.937573  0
H  H13  1  0.44720017  0.88112999  0.80509687  1  0  0.435244  0  0.863616  0  0  0.404761  0  0.925396  0  0  0.416444  0  0.908403  0  0  0.295929  0.396552  0  0.937436  0
H  H14  1  0.05279874  0.88113154  0.30509835  1  0  0.435171  0  0.863711  0  0  0.404681  0  0.925497  0  0  0.416363  0  0.908506  0  0  0.295892  0.396462  0  0.937555  0
H  H15  1  0.55279909  0.11886947  0.19490292  1  0  0.435199  0  0.86368  0  0  0.404717  0  0.925457  0  0  0.4164  0  0.908464  0  0  0.295894  0.396498  0  0.937517  0
H  H16  1  0.83766852  0.23128142  0.69903703  1  0  0.441362  0  0.847867  0  0  0.413372  0  0.905772  0  0  0.424164  0  0.890202  0  0  0.298912  0.406011  0  0.916465  0
H  H17  1  0.33766592  0.76871697  0.80096434  1  0  0.441396  0  0.847855  0  0  0.413379  0  0.905793  0  0  0.424171  0  0.890222  0  0  0.298922  0.406022  0  0.916483  0
H  H18  1  0.16233212  0.76871969  0.30096442  1  0  0.441414  0  0.847834  0  0  0.413429  0  0.905722  0  0  0.424222  0  0.89015  0  0  0.298955  0.40607  0  0.916412  0
H  H19  1  0.66233196  0.23128331  0.19903703  1  0  0.441429  0  0.847808  0  0  0.413409  0  0.905747  0  0  0.424202  0  0.890176  0  0  0.298924  0.406055  0  0.916428  0
H  H20  1  0.09758591  0.36487624  0.92346803  1  0  0.440268  0  0.857877  0  0  0.409656  0  0.920944  0  0  0.420873  0  0.904786  0  0  0.295738  0.402056  0  0.931936  0
H  H21  1  0.59758474  0.63512314  0.57653195  1  0  0.440248  0  0.85791  0  0  0.409627  0  0.920989  0  0  0.420843  0  0.904834  0  0  0.295723  0.402033  0  0.931972  0
H  H22  1  0.90241472  0.63512238  0.07653095  1  0  0.440271  0  0.857878  0  0  0.40965  0  0.92096  0  0  0.420867  0  0.904802  0  0  0.295737  0.402051  0  0.931949  0
H  H23  1  0.40241452  0.36487713  0.42346941  1  0  0.440242  0  0.857908  0  0  0.409633  0  0.92097  0  0  0.42085  0  0.904814  0  0  0.295723  0.402034  0  0.931962  0
H  H24  1  0.02575568  0.43738500  0.83471886  1  0  0.43215  0  0.865947  0  0  0.402907  0  0.927522  0  0  0.413775  0  0.911863  0  0  0.300519  0.395286  0  0.938634  0
H  H25  1  0.52575807  0.56261251  0.66528095  1  0  0.432151  0  0.865944  0  0  0.402904  0  0.927525  0  0  0.413772  0  0.911868  0  0  0.300518  0.395285  0  0.938639  0
H  H26  1  0.97424358  0.56261446  0.16528019  1  0  0.43215  0  0.865947  0  0  0.402914  0  0.927513  0  0  0.413779  0  0.911857  0  0  0.30052  0.395293  0  0.938628  0
H  H27  1  0.47424119  0.43738694  0.33471960  1  0  0.432145  0  0.865955  0  0  0.402897  0  0.927539  0  0  0.413765  0  0.91188  0  0  0.30052  0.395279  0  0.938649  0
H  H28  1  0.77943268  0.47493800  0.97618119  1  0  0.132264  0  0.93768  0  0  0.138947  0  1.002259  0  0  0.143721  0  0.998293  0  0  0.122765  0.135635  0  1.004748  0
H  H29  1  0.27943240  0.52506274  0.52381965  1  0  0.132178  0  0.937542  0  0  0.138869  0  1.002131  0  0  0.143637  0  0.998171  0  0  0.122712  0.135555  0  1.004625  0
H  H30  1  0.22056520  0.52506146  0.02381786  1  0  0.132246  0  0.937673  0  0  0.138929  0  1.00226  0  0  0.143703  0  0.998294  0  0  0.122766  0.135617  0  1.004755  0
H  H31  1  0.72056685  0.47493672  0.47618015  1  0  0.132219  0  0.93758  0  0  0.138909  0  1.002169  0  0  0.143676  0  0.998209  0  0  0.122738  0.135599  0  1.004658  0
H  H32  1  0.70341215  0.12081876  0.99895303  1  0  0.127308  0  0.936418  0  0  0.133771  0  1.00009  0  0  0.13847  0  0.996405  0  0  0.120798  0.130443  0  1.002575  0
H  H33  1  0.20341874  0.87918175  0.50104854  1  0  0.127304  0  0.936404  0  0  0.133775  0  1.000103  0  0  0.138468  0  0.996411  0  0  0.120796  0.130447  0  1.002589  0
H  H34  1  0.29658434  0.87918486  0.00104865  1  0  0.12735  0  0.936392  0  0  0.133811  0  1.000059  0  0  0.13851  0  0.996373  0  0  0.120824  0.130483  0  1.002545  0
H  H35  1  0.79658465  0.12081769  0.49895275  1  0  0.127356  0  0.936375  0  0  0.13382  0  1.000071  0  0  0.138515  0  0.996383  0  0  0.120824  0.130494  0  1.002551  0
C  C36  1  0.57350459  0.38881168  0.88218579  1  0  0.130956  0  3.707197  0  0  0.133964  0  3.954078  0  0  0.134605  0  3.972267  0  0  0.133017  0.133357  0  3.943249  0
C  C37  1  0.07350772  0.61118761  0.61781716  1  0  0.130929  0  3.707102  0  0  0.133943  0  3.954004  0  0  0.134578  0  3.972193  0  0  0.132982  0.13334  0  3.94318  0
C  C38  1  0.42649605  0.61119027  0.11781498  1  0  0.130943  0  3.707135  0  0  0.133989  0  3.954054  0  0  0.134632  0  3.972243  0  0  0.132996  0.133383  0  3.943228  0
C  C39  1  0.92649292  0.38881185  0.38218189  1  0  0.130995  0  3.707093  0  0  0.134044  0  3.953994  0  0  0.134681  0  3.972188  0  0  0.133041  0.133443  0  3.943168  0
C  C40  1  0.71219612  0.39525729  0.95456330  1  0  -0.07915  0  3.595602  0  0  -0.1132  0  3.843739  0  0  -0.113167  0  3.856972  0  0  -0.050242  -0.112823  0  3.833745  0
C  C41  1  0.21219369  0.60474408  0.54543909  1  0  -0.078945  0  3.595496  0  0  -0.112978  0  3.843607  0  0  -0.11294  0  3.856846  0  0  -0.050133  -0.112599  0  3.833612  0
C  C42  1  0.28780176  0.60474300  0.04543657  1  0  -0.079111  0  3.595466  0  0  -0.113161  0  3.843599  0  0  -0.113128  0  3.856832  0  0  -0.050215  -0.112779  0  3.833605  0
C  C43  1  0.78780281  0.39525620  0.45456227  1  0  -0.079083  0  3.595468  0  0  -0.113128  0  3.843585  0  0  -0.113089  0  3.856822  0  0  -0.050197  -0.112756  0  3.833593  0
C  C44  1  0.76135158  0.29752771  0.99665068  1  0  0.009809  0  3.687323  0  0  0.029723  0  3.925744  0  0  0.027896  0  3.941092  0  0  0.017884  0.031115  0  3.914491  0
C  C45  1  0.26135681  0.70247046  0.50335067  1  0  0.009767  0  3.687299  0  0  0.029657  0  3.925788  0  0  0.027828  0  3.941135  0  0  0.017849  0.031049  0  3.914535  0
C  C46  1  0.23864492  0.70247341  0.00334928  1  0  0.00981  0  3.687299  0  0  0.029716  0  3.925754  0  0  0.027887  0  3.941103  0  0  0.017872  0.031106  0  3.914505  0
C  C47  1  0.73864521  0.29752815  0.49664980  1  0  0.009818  0  3.687341  0  0  0.029714  0  3.92582  0  0  0.027886  0  3.941168  0  0  0.017864  0.031109  0  3.914567  0
C  C48  1  0.66972396  0.19779745  0.96648407  1  0  -0.086955  0  3.621006  0  0  -0.12284  0  3.87084  0  0  -0.122965  0  3.884651  0  0  -0.051842  -0.122645  0  3.861405  0
C  C49  1  0.16972857  0.80220465  0.53351541  1  0  -0.08692  0  3.620812  0  0  -0.122937  0  3.870661  0  0  -0.123049  0  3.88446  0  0  -0.051863  -0.122739  0  3.861223  0
C  C50  1  0.33027530  0.80220366  0.03351737  1  0  -0.086987  0  3.621078  0  0  -0.122901  0  3.870917  0  0  -0.123021  0  3.884724  0  0  -0.051865  -0.122711  0  3.861488  0
C  C51  1  0.83027206  0.19779647  0.46648454  1  0  -0.086988  0  3.620996  0  0  -0.122998  0  3.87083  0  0  -0.123117  0  3.884634  0  0  -0.051876  -0.1228  0  3.861391  0
C  C52  1  0.53484446  0.19868923  0.89254086  1  0  0.113181  0  3.751846  0  0  0.117051  0  4.001917  0  0  0.117673  0  4.021369  0  0  0.126732  0.116165  0  3.991124  0
C  C53  1  0.03484491  0.80131245  0.60746308  1  0  0.113023  0  3.752071  0  0  0.117166  0  4.001762  0  0  0.117794  0  4.02121  0  0  0.126784  0.116283  0  3.99097  0
C  C54  1  0.46515342  0.80131190  0.10745835  1  0  0.113089  0  3.751916  0  0  0.117048  0  4.001871  0  0  0.117667  0  4.021324  0  0  0.126741  0.116163  0  3.991078  0
C  C55  1  0.96515435  0.19868700  0.39253747  1  0  0.11298  0  3.752108  0  0  0.117128  0  4.001804  0  0  0.117755  0  4.021254  0  0  0.126744  0.116238  0  3.991021  0
C  C56  1  0.52029983  0.48630584  0.82559512  1  0  0.681816  0  3.861574  0  0  0.631261  0  4.156173  0  0  0.666309  0  4.149762  0  0  0.238076  0.607561  0  4.163303  0
C  C57  1  0.02029806  0.51369415  0.67440567  1  0  0.68162  0  3.861838  0  0  0.631023  0  4.156518  0  0  0.666088  0  4.150081  0  0  0.237997  0.607309  0  4.163662  0
C  C58  1  0.47969942  0.51369446  0.17440327  1  0  0.681768  0  3.861452  0  0  0.631074  0  4.156288  0  0  0.666121  0  4.149885  0  0  0.238044  0.60736  0  4.16343  0
C  C59  1  0.97970120  0.48630530  0.32559487  1  0  0.681798  0  3.86153  0  0  0.631113  0  4.15635  0  0  0.666165  0  4.149938  0  0  0.238035  0.607399  0  4.163493  0
C  C60  1  0.91755241  0.29508862  0.06931983  1  0  0.656054  0  3.906813  0  0  0.606209  0  4.199093  0  0  0.639134  0  4.196811  0  0  0.214938  0.583348  0  4.204351  0
C  C61  1  0.41755068  0.70491683  0.43067586  1  0  0.655983  0  3.906907  0  0  0.606157  0  4.19916  0  0  0.639083  0  4.196875  0  0  0.214911  0.583294  0  4.204418  0
C  C62  1  0.08244823  0.70491167  0.93068004  1  0  0.656063  0  3.906805  0  0  0.60622  0  4.199087  0  0  0.639147  0  4.1968  0  0  0.214959  0.583364  0  4.204339  0
C  C63  1  0.58244996  0.29508178  0.56932460  1  0  0.655962  0  3.906849  0  0  0.606127  0  4.19912  0  0  0.639052  0  4.196835  0  0  0.214891  0.583264  0  4.204378  0
C  C64  1  0.43120277  0.09593396  0.84955795  1  0  0.640149  0  3.923476  0  0  0.586538  0  4.22618  0  0  0.620531  0  4.218758  0  0  0.226081  0.563628  0  4.232237  0
C  C65  1  0.93121331  0.90407395  0.65043759  1  0  0.640151  0  3.923556  0  0  0.586469  0  4.226223  0  0  0.620461  0  4.218805  0  0  0.226045  0.563553  0  4.232286  0
C  C66  1  0.56879787  0.90406717  0.15044126  1  0  0.64022  0  3.92344  0  0  0.586578  0  4.226154  0  0  0.620572  0  4.21873  0  0  0.226094  0.563672  0  4.232206  0
C  C67  1  0.06878733  0.09592634  0.34956228  1  0  0.640253  0  3.923366  0  0  0.586559  0  4.226053  0  0  0.62055  0  4.218634  0  0  0.226093  0.563648  0  4.232111  0
N  N68  1  0.48878356  0.29235525  0.85221361  1  0  -0.410124  0  3.317953  0  0  -0.363501  0  3.565939  0  0  -0.381452  0  3.585991  0  0  -0.385475  -0.356384  0  3.553786  0
N  N69  1  0.98878707  0.70764858  0.64778900  1  0  -0.410067  0  3.317983  0  0  -0.36353  0  3.565883  0  0  -0.381489  0  3.58594  0  0  -0.385506  -0.356423  0  3.55374  0
N  N70  1  0.51121294  0.70764504  0.14778627  1  0  -0.410055  0  3.317919  0  0  -0.363444  0  3.56585  0  0  -0.381398  0  3.585902  0  0  -0.385454  -0.356328  0  3.553697  0
N  N71  1  0.01120943  0.29235172  0.35221013  1  0  -0.410076  0  3.318063  0  0  -0.363527  0  3.565946  0  0  -0.381489  0  3.586  0  0  -0.385486  -0.356417  0  3.553803  0
O  O72  1  0.42885740  0.46425208  0.74482565  1  0  -0.694165  0  2.046489  0  0  -0.638014  0  2.284801  0  0  -0.671326  0  2.273617  0  0  -0.350601  -0.620107  0  2.290333  0
O  O73  1  0.92884991  0.53574912  0.75517150  1  0  -0.694069  0  2.0466  0  0  -0.637908  0  2.28494  0  0  -0.671226  0  2.273742  0  0  -0.350596  -0.620017  0  2.290518  0
O  O74  1  0.57114048  0.53574655  0.25517332  1  0  -0.694097  0  2.046377  0  0  -0.637904  0  2.284758  0  0  -0.671218  0  2.273574  0  0  -0.350574  -0.619997  0  2.290303  0
O  O75  1  0.07115073  0.46425117  0.24482838  1  0  -0.694121  0  2.046423  0  0  -0.637945  0  2.284822  0  0  -0.671264  0  2.273629  0  0  -0.35061  -0.620048  0  2.290386  0
O  O76  1  0.57486982  0.58258397  0.85938318  1  0  -0.710106  0  2.031522  0  0  -0.657534  0  2.286896  0  0  -0.692902  0  2.274256  0  0  -0.397998  -0.639879  0  2.292812  0
O  O77  1  0.07487007  0.41741535  0.64061605  1  0  -0.710022  0  2.031503  0  0  -0.65744  0  2.286904  0  0  -0.692813  0  2.274261  0  0  -0.397961  -0.639773  0  2.292813  0
O  O78  1  0.42512944  0.41741634  0.14061371  1  0  -0.71008  0  2.031418  0  0  -0.657452  0  2.286867  0  0  -0.692827  0  2.274229  0  0  -0.397988  -0.639788  0  2.292776  0
O  O79  1  0.92513057  0.58258327  0.35938367  1  0  -0.710124  0  2.031464  0  0  -0.6575  0  2.286896  0  0  -0.692868  0  2.274255  0  0  -0.398  -0.639834  0  2.292811  0
O  O80  1  0.07398130  0.33339518  0.04451622  1  0  -0.679858  0  1.986564  0  0  -0.619467  0  2.214815  0  0  -0.651793  0  2.204695  0  0  -0.336332  -0.601473  0  2.220949  0
O  O81  1  0.57398720  0.66660425  0.45548192  1  0  -0.679853  0  1.986349  0  0  -0.619462  0  2.214571  0  0  -0.651783  0  2.204451  0  0  -0.336331  -0.601471  0  2.220707  0
O  O82  1  0.92601795  0.66660428  0.95548283  1  0  -0.67986  0  1.986542  0  0  -0.619472  0  2.214797  0  0  -0.651793  0  2.204675  0  0  -0.33634  -0.601479  0  2.220927  0
O  O83  1  0.42601206  0.33339437  0.54451780  1  0  -0.67986  0  1.986284  0  0  -0.619475  0  2.21452  0  0  -0.651794  0  2.204399  0  0  -0.336348  -0.601484  0  2.220657  0
O  O84  1  0.89415737  0.25165354  0.15088055  1  0  -0.661035  0  1.992317  0  0  -0.607588  0  2.216761  0  0  -0.639819  0  2.208379  0  0  -0.328104  -0.589611  0  2.221448  0
O  O85  1  0.39415599  0.74834593  0.34912205  1  0  -0.660942  0  1.99255  0  0  -0.60752  0  2.216994  0  0  -0.639743  0  2.208616  0  0  -0.32807  -0.589544  0  2.221684  0
O  O86  1  0.10584465  0.74834509  0.84911768  1  0  -0.66106  0  1.99231  0  0  -0.607614  0  2.216747  0  0  -0.639843  0  2.208372  0  0  -0.328124  -0.589639  0  2.221436  0
O  O87  1  0.60584465  0.25165435  0.65087858  1  0  -0.660919  0  1.992553  0  0  -0.607489  0  2.217001  0  0  -0.639709  0  2.208625  0  0  -0.328055  -0.58951  0  2.221688  0
O  O88  1  0.47388351  0.00241147  0.87915406  1  0  -0.621046  0  2.034349  0  0  -0.558121  0  2.255309  0  0  -0.583178  0  2.242751  0  0  -0.295039  -0.540141  0  2.262718  0
O  O89  1  0.97388788  0.99758644  0.62085023  1  0  -0.620997  0  2.034891  0  0  -0.558012  0  2.255817  0  0  -0.583064  0  2.243259  0  0  -0.29499  -0.540026  0  2.263232  0
O  O90  1  0.52611713  0.99758963  0.12084738  1  0  -0.621054  0  2.034389  0  0  -0.558117  0  2.255348  0  0  -0.583177  0  2.242794  0  0  -0.295039  -0.540133  0  2.262759  0
O  O91  1  0.02611414  0.00241383  0.37915188  1  0  -0.621028  0  2.034828  0  0  -0.558042  0  2.255757  0  0  -0.583098  0  2.243209  0  0  -0.295014  -0.540054  0  2.263166  0
O  O92  1  0.30403837  0.11197748  0.78735326  1  0  -0.676389  0  1.975465  0  0  -0.625322  0  2.215473  0  0  -0.657858  0  2.2008  0  0  -0.384182  -0.608924  0  2.222913  0
O  O93  1  0.80402808  0.88802333  0.71264759  1  0  -0.676416  0  1.975061  0  0  -0.625376  0  2.215105  0  0  -0.657919  0  2.20043  0  0  -0.384186  -0.608967  0  2.222541  0
O  O94  1  0.69596227  0.88802282  0.21264587  1  0  -0.676442  0  1.97547  0  0  -0.625379  0  2.215501  0  0  -0.657917  0  2.200828  0  0  -0.38421  -0.608981  0  2.222943  0
O  O95  1  0.19596980  0.11197613  0.28735147  1  0  -0.676448  0  1.974975  0  0  -0.625399  0  2.215034  0  0  -0.657948  0  2.200357  0  0  -0.384211  -0.609  0  2.222476  0
O  O96  1  0.25428382  0.12303916  0.57371381  1  0  -0.915814  0  1.842273  0  0  -0.869516  0  2.030953  0  0  -0.896053  0  1.994893  0  0  -0.63089  -0.85733  0  2.051584  0
O  O97  1  0.75428306  0.87696404  0.92628354  1  0  -0.915684  0  1.842342  0  0  -0.869388  0  2.030998  0  0  -0.89593  0  1.994944  0  0  -0.630819  -0.857199  0  2.05162  0
O  O98  1  0.74571819  0.87696031  0.42628450  1  0  -0.915762  0  1.842254  0  0  -0.869464  0  2.030942  0  0  -0.896011  0  1.9949  0  0  -0.630877  -0.857279  0  2.05157  0
O  O99  1  0.24571895  0.12303538  0.07371924  1  0  -0.915625  0  1.842451  0  0  -0.869333  0  2.031087  0  0  -0.895885  0  1.995037  0  0  -0.630777  -0.857143  0  2.051708  0
O  O100  1  0.95544567  0.19949504  0.72048598  1  0  -0.924353  0  1.827958  0  0  -0.875262  0  2.013808  0  0  -0.902945  0  1.974652  0  0  -0.651848  -0.862312  0  2.036915  0
O  O101  1  0.45543780  0.80050204  0.77951227  1  0  -0.924482  0  1.82788  0  0  -0.87536  0  2.013759  0  0  -0.903048  0  1.974598  0  0  -0.651907  -0.862412  0  2.036858  0
O  O102  1  0.04455635  0.80050441  0.27951382  1  0  -0.924404  0  1.827947  0  0  -0.875314  0  2.013806  0  0  -0.902999  0  1.974646  0  0  -0.651889  -0.862363  0  2.036913  0
O  O103  1  0.54455870  0.19949658  0.22048671  1  0  -0.924466  0  1.82788  0  0  -0.875334  0  2.013775  0  0  -0.903027  0  1.974609  0  0  -0.651875  -0.862385  0  2.036875  0
O  O104  1  0.12301862  0.38626570  0.85483806  1  0  -0.928142  0  1.884671  0  0  -0.879391  0  2.078749  0  0  -0.907645  0  2.042357  0  0  -0.648099  -0.865532  0  2.09999  0
O  O105  1  0.62302003  0.61373294  0.64516036  1  0  -0.928106  0  1.884684  0  0  -0.879348  0  2.078784  0  0  -0.907605  0  2.04239  0  0  -0.648063  -0.865479  0  2.099996  0
O  O106  1  0.87698202  0.61373291  0.14516241  1  0  -0.92814  0  1.884696  0  0  -0.87938  0  2.078772  0  0  -0.907635  0  2.042386  0  0  -0.648081  -0.86552  0  2.10001  0
O  O107  1  0.37697923  0.38626734  0.35484026  1  0  -0.928118  0  1.884683  0  0  -0.879361  0  2.078773  0  0  -0.907625  0  2.042377  0  0  -0.648073  -0.865497  0  2.099992  0
