# generated using pymatgen
data_CuH5(C3N)2
_symmetry_space_group_name_H-M   'P 1'
_cell_length_a   7.62804435
_cell_length_b   9.18622208
_cell_length_c   9.72694400
_cell_angle_alpha   118.16607244
_cell_angle_beta   89.99963957
_cell_angle_gamma   89.99867484
_symmetry_Int_Tables_number   1
_chemical_formula_structural   CuH5(C3N)2
_chemical_formula_sum   'Cu4 H20 C24 N8'
_cell_volume   600.88287955
_cell_formula_units_Z   4
loop_
 _symmetry_equiv_pos_site_id
 _symmetry_equiv_pos_as_xyz
  1  'x, y, z'
loop_
 _atom_site_type_symbol
 _atom_site_label
 _atom_site_symmetry_multiplicity
 _atom_site_fract_x
 _atom_site_fract_y
 _atom_site_fract_z
 _atom_site_occupancy
 _atom_site_pbe_bader_spin_density
 _atom_site_pbe_cm5_charge
 _atom_site_pbe_ddec_charge
 _atom_site_pbe_ddec_spin_density
 _atom_site_pbe_ddec_sum_bond_order
 _atom_site_pbe_magmom
Cu  Cu0  1  0.82832525  0.57791801  0.59863760  1  0  0.5207  0.349159  0  2.659542  0
Cu  Cu1  1  0.32832581  0.42208817  0.40138095  1  0  0.52067  0.349113  0  2.659809  0
Cu  Cu2  1  0.82870839  0.97925641  0.40122567  1  0  0.520548  0.348902  0  2.661431  0
Cu  Cu3  1  0.32870695  0.02074736  0.59878357  1  0  0.520468  0.34889  0  2.661244  0
H  H4  1  0.54117082  0.51851569  0.70848300  1  0  0.100311  0.103552  0  1.059931  0
H  H5  1  0.04117183  0.48148513  0.29151613  1  0  0.100286  0.103515  0  1.059965  0
H  H6  1  0.54139111  0.81077631  0.29189185  1  0  0.100261  0.103471  0  1.059932  0
H  H7  1  0.04138023  0.18920220  0.70810644  1  0  0.100279  0.103486  0  1.059827  0
H  H8  1  0.28970519  0.49019626  0.85402863  1  0  0.10359  0.108921  0  1.00742  0
H  H9  1  0.78969671  0.50980353  0.14599444  1  0  0.103628  0.108967  0  1.007455  0
H  H10  1  0.28987088  0.63681425  0.14689036  1  0  0.103724  0.109058  0  1.006881  0
H  H11  1  0.78985351  0.36316820  0.85313001  1  0  0.103761  0.109108  0  1.006974  0
H  H12  1  0.23043054  0.85292495  0.88735229  1  0  0.091891  0.139444  0  1.021338  0
H  H13  1  0.73045212  0.14708801  0.11263386  1  0  0.091856  0.139435  0  1.021312  0
H  H14  1  0.23088407  0.96502888  0.11209680  1  0  0.092069  0.139411  0  1.020751  0
H  H15  1  0.73090446  0.03497170  0.88788683  1  0  0.092077  0.139398  0  1.020793  0
H  H16  1  0.07104936  0.85640381  0.75528051  1  0  0.098903  0.149701  0  1.008588  0
H  H17  1  0.57107008  0.14360494  0.24470970  1  0  0.098925  0.149791  0  1.008314  0
H  H18  1  0.07173168  0.10114837  0.24406227  1  0  0.098625  0.149106  0  1.008688  0
H  H19  1  0.57176295  0.89886285  0.75592701  1  0  0.098599  0.149039  0  1.008818  0
H  H20  1  0.15209647  0.66669421  0.73083759  1  0  0.097755  0.139521  0  1.026711  0
H  H21  1  0.65208286  0.33330977  0.26915108  1  0  0.09776  0.139506  0  1.026697  0
H  H22  1  0.15225038  0.93603413  0.26899123  1  0  0.097588  0.139433  0  1.026315  0
H  H23  1  0.65226979  0.06396992  0.73099028  1  0  0.097631  0.139435  0  1.026167  0
C  C24  1  0.82719949  0.20685932  0.48925609  1  0  -0.048485  -0.10936  0  3.874979  0
C  C25  1  0.32724655  0.79313589  0.51074517  1  0  -0.048435  -0.109295  0  3.875305  0
C  C26  1  0.82693794  0.71750657  0.51056856  1  0  -0.048146  -0.108484  0  3.874009  0
C  C27  1  0.32694701  0.28249489  0.48942731  1  0  -0.048223  -0.108599  0  3.874699  0
C  C28  1  0.96598561  0.78295627  0.91644227  1  0  0.128836  0.227744  0  3.884901  0
C  C29  1  0.46598372  0.21705474  0.08357261  1  0  0.129018  0.227966  0  3.884952  0
C  C30  1  0.96611331  0.86656092  0.08336184  1  0  0.128586  0.226986  0  3.884712  0
C  C31  1  0.46612214  0.13344162  0.91662968  1  0  0.128604  0.227049  0  3.884675  0
C  C32  1  0.68591656  0.68111062  0.91696530  1  0  0.104532  0.15023  0  4.019294  0
C  C33  1  0.18591838  0.31889103  0.08303859  1  0  0.104504  0.150258  0  4.019636  0
C  C34  1  0.68605738  0.76434832  0.08320080  1  0  0.104074  0.14962  0  4.020473  0
C  C35  1  0.18604761  0.23565568  0.91681649  1  0  0.104103  0.149735  0  4.02014  0
C  C36  1  0.54017444  0.58325255  0.83577292  1  0  -0.085532  -0.150842  0  3.945056  0
C  C37  1  0.04016901  0.41674582  0.16422716  1  0  -0.085532  -0.150828  0  3.945001  0
C  C38  1  0.54037253  0.74798609  0.16460196  1  0  -0.085645  -0.150484  0  3.943101  0
C  C39  1  0.04035372  0.25199981  0.83540584  1  0  -0.085696  -0.150636  0  3.943073  0
C  C40  1  0.40016075  0.56785885  0.91782168  1  0  -0.082727  -0.057452  0  3.964636  0
C  C41  1  0.90014443  0.43213549  0.08218499  1  0  -0.082793  -0.057653  0  3.964701  0
C  C42  1  0.40024915  0.65049073  0.08278500  1  0  -0.082861  -0.058054  0  3.963029  0
C  C43  1  0.90022514  0.34948752  0.91721850  1  0  -0.082841  -0.057873  0  3.963249  0
C  C44  1  0.11386311  0.79137789  0.81981564  1  0  -0.244698  -0.456841  0  3.952686  0
C  C45  1  0.61386805  0.20863466  0.18016888  1  0  -0.24467  -0.456937  0  3.952736  0
C  C46  1  0.11425226  0.97149246  0.17979382  1  0  -0.244018  -0.455135  0  3.949743  0
C  C47  1  0.61426678  0.02851870  0.82020549  1  0  -0.244025  -0.455072  0  3.949665  0
N  N48  1  0.82809599  0.69252041  0.83669628  1  0  -0.338662  -0.262731  0  3.553956  0
N  N49  1  0.32809231  0.30747975  0.16330311  1  0  -0.33872  -0.262911  0  3.554407  0
N  N50  1  0.82829410  0.85596937  0.16322661  1  0  -0.338464  -0.262583  0  3.556683  0
N  N51  1  0.32831108  0.14402208  0.83677603  1  0  -0.338541  -0.262769  0  3.556882  0
N  N52  1  0.83308744  0.34980161  0.53190788  1  0  -0.446149  -0.330627  0  3.680094  0
N  N53  1  0.33309686  0.65020087  0.46809356  1  0  -0.446153  -0.330645  0  3.680657  0
N  N54  1  0.83306932  0.81787944  0.46800445  1  0  -0.4466  -0.331598  0  3.680831  0
N  N55  1  0.33306516  0.18212432  0.53199243  1  0  -0.446549  -0.33154  0  3.680943  0
