# generated using pymatgen
data_CoH20C24(NO3)2
_symmetry_space_group_name_H-M   'P 1'
_cell_length_a   9.20038921
_cell_length_b   9.39056897
_cell_length_c   11.78440277
_cell_angle_alpha   98.13798717
_cell_angle_beta   92.13065269
_cell_angle_gamma   89.34120197
_symmetry_Int_Tables_number   1
_chemical_formula_structural   CoH20C24(NO3)2
_chemical_formula_sum   'Co2 H40 C48 N4 O12'
_cell_volume   1007.16633045
_cell_formula_units_Z   2
loop_
 _symmetry_equiv_pos_site_id
 _symmetry_equiv_pos_as_xyz
  1  'x, y, z'
loop_
 _atom_site_type_symbol
 _atom_site_label
 _atom_site_symmetry_multiplicity
 _atom_site_fract_x
 _atom_site_fract_y
 _atom_site_fract_z
 _atom_site_occupancy
 _atom_site_pbe_bader_charge
 _atom_site_pbe_bader_spin_density
 _atom_site_pbe_cm5_charge
 _atom_site_pbe_ddec_charge
 _atom_site_pbe_ddec_spin_density
 _atom_site_pbe_ddec_sum_bond_order
 _atom_site_pbe_magmom
Co  Co0  1  0.00000063  0.49999706  0.50000282  1  1.308032  2.633607  0.666429  0.945607  2.844536  2.416606  2.618
Co  Co1  1  0.49999952  0.49999988  0.00000177  1  1.145488  0.995272  0.633134  0.731208  1.059902  2.778686  0.987
H  H2  1  0.69488131  0.48779984  0.39113905  1  0.114921  0.001453  0.117902  0.09332  0.000216  1.030322  0.001
H  H3  1  0.21279671  0.49533441  0.09569988  1  0.141654  -4.7e-05  0.122121  0.101655  -0.000247  1.031943  0.0
H  H4  1  0.30512562  0.51219859  0.60886786  1  0.11487  0.001453  0.117883  0.093308  0.000216  1.030345  0.001
H  H5  1  0.78720249  0.50467158  0.90430354  1  0.141645  -4.7e-05  0.122129  0.10164  -0.000247  1.03202  0.0
H  H6  1  0.46175269  0.36074983  0.40471281  1  0.115554  0.001169  0.103531  0.106101  0.00055  1.035002  0.0
H  H7  1  0.98431473  0.63657391  0.08864667  1  0.089048  0.000173  0.105644  0.110474  5.7e-05  1.016052  0.0
H  H8  1  0.53824846  0.63925725  0.59528143  1  0.115394  0.001169  0.103539  0.106091  0.00055  1.035053  0.0
H  H9  1  0.01568442  0.36343209  0.91135505  1  0.089114  0.000173  0.105646  0.110451  5.7e-05  1.016045  0.0
H  H10  1  0.03688971  0.49576903  0.28948300  1  0.648955  0.000368  0.289418  0.380384  0.000128  0.964876  0.0
H  H11  1  0.53603415  0.50308689  0.21970630  1  0.661924  1.4e-05  0.290119  0.372396  -8.5e-05  0.97389  0.0
H  H12  1  0.96310838  0.50422837  0.71051772  1  0.648975  0.000368  0.28938  0.380396  0.000128  0.964869  0.0
H  H13  1  0.46396399  0.49691588  0.78029759  1  0.661962  1.4e-05  0.290147  0.372434  -8.5e-05  0.973823  0.0
H  H14  1  0.86342505  0.55369296  0.28803594  1  0.655938  0.001818  0.291885  0.391309  0.001298  0.945782  0.002
H  H15  1  0.36561804  0.45159297  0.22186092  1  0.641554  0.002179  0.290588  0.379941  0.001324  0.956857  0.002
H  H16  1  0.13657522  0.44630443  0.71196482  1  0.655941  0.001818  0.291866  0.39129  0.001298  0.945813  0.002
H  H17  1  0.63438121  0.54840765  0.77814359  1  0.641216  0.002179  0.290633  0.379996  0.001324  0.956773  0.002
H  H18  1  0.79757158  0.91784039  0.54541047  1  0.119182  0.000324  0.100512  0.100241  0.000179  1.054585  0.0
H  H19  1  0.30145477  0.08891067  0.96614395  1  0.083809  1.2e-05  0.100494  0.099596  -1.5e-05  1.06724  0.0
H  H20  1  0.20243410  0.08214623  0.45458659  1  0.119566  0.000324  0.100496  0.100231  0.000179  1.054687  0.0
H  H21  1  0.69854434  0.91109103  0.03385473  1  0.08379  1.2e-05  0.100486  0.099567  -1.5e-05  1.067254  0.0
H  H22  1  0.90960339  0.24051021  0.60970295  1  0.154229  0.001485  0.115187  0.092301  0.000443  1.025707  0.001
H  H23  1  0.41976540  0.75275713  0.89344493  1  0.151702  -0.000124  0.121263  0.105438  -0.000294  1.024145  0.0
H  H24  1  0.09039149  0.75947751  0.39029747  1  0.154233  0.001485  0.115172  0.092225  0.000443  1.025622  0.001
H  H25  1  0.58023487  0.24724564  0.10655729  1  0.151527  -0.000124  0.12124  0.105429  -0.000294  1.024132  0.0
H  H26  1  0.56735974  0.21203182  0.79089297  1  0.083155  -9.6e-05  0.101019  0.103057  -0.000194  1.037793  0.0
H  H27  1  0.07830921  0.78995360  0.70845780  1  0.06881  -0.000158  0.103673  0.107705  -0.00031  1.030806  0.0
H  H28  1  0.43263803  0.78795916  0.20909259  1  0.08375  -9.6e-05  0.101014  0.102954  -0.000194  1.03785  0.0
H  H29  1  0.92167900  0.21005566  0.29154159  1  0.068837  -0.000158  0.103677  0.107754  -0.00031  1.030671  0.0
H  H30  1  0.67471420  0.78441331  0.86153147  1  0.091807  5.5e-05  0.105644  0.114162  -3.7e-05  1.034583  0.0
H  H31  1  0.17576476  0.21627004  0.64008797  1  0.101674  0.0001  0.106371  0.112511  -3.5e-05  1.034696  0.0
H  H32  1  0.32529801  0.21559372  0.13847056  1  0.092717  5.5e-05  0.105674  0.114171  -3.7e-05  1.034551  0.0
H  H33  1  0.82422791  0.78373490  0.35991524  1  0.101741  0.0001  0.106368  0.112513  -3.5e-05  1.034655  0.0
H  H34  1  0.55939832  0.02594620  0.91867338  1  0.069073  7.8e-05  0.096136  0.086172  0.0  1.042185  0.0
H  H35  1  0.06602852  0.97419794  0.57898911  1  0.071893  -6.2e-05  0.098112  0.088984  -7.7e-05  1.035739  0.0
H  H36  1  0.44060400  0.97405872  0.08132403  1  0.069018  7.8e-05  0.09616  0.086219  0.0  1.042265  0.0
H  H37  1  0.93395989  0.02581346  0.42101902  1  0.071851  -6.2e-05  0.098204  0.089104  -7.7e-05  1.035642  0.0
H  H38  1  0.45182208  0.17068539  0.53474015  1  0.083419  -0.000148  0.105955  0.110096  -0.000243  1.009647  0.0
H  H39  1  0.96919454  0.83888319  0.96962279  1  0.099175  -0.000198  0.107083  0.111319  -0.000279  1.007378  0.0
H  H40  1  0.54817135  0.82931205  0.46524693  1  0.083068  -0.000148  0.10599  0.110157  -0.000243  1.009521  0.0
H  H41  1  0.03081004  0.16112064  0.03037792  1  0.099195  -0.000198  0.107085  0.111359  -0.000279  1.007365  0.0
C  C42  1  0.68850717  0.40160302  0.44347900  1  0.48221  -0.006944  0.040747  0.07642  -0.00782  3.945519  -0.005
C  C43  1  0.20602773  0.58704081  0.04884303  1  0.479678  -0.007408  0.040843  0.061478  -0.007923  3.917576  -0.005
C  C44  1  0.31149850  0.59839328  0.55652001  1  0.482184  -0.006939  0.040795  0.076476  -0.007815  3.945674  -0.005
C  C45  1  0.79397029  0.41295551  0.95115418  1  0.479404  -0.00741  0.040804  0.061474  -0.007924  3.91757  -0.005
C  C46  1  0.55808215  0.33135831  0.45258787  1  -0.047145  0.004931  -0.083575  -0.113754  0.002418  3.990226  0.004
C  C47  1  0.07776379  0.66568439  0.04311141  1  -0.101712  0.001553  -0.085352  -0.113103  0.000471  3.992134  0.001
C  C48  1  0.44191797  0.66863479  0.54740561  1  -0.046961  0.004928  -0.083674  -0.11392  0.002417  3.990267  0.004
C  C49  1  0.92223317  0.33431624  0.95688798  1  -0.101769  0.001554  -0.085317  -0.112989  0.000471  3.992137  0.001
C  C50  1  0.74362702  0.83741977  0.69999868  1  -0.072708  0.005104  -0.024004  -0.038619  0.002641  3.9975  0.004
C  C51  1  0.24478071  0.16774535  0.80773644  1  -0.0006  -0.000349  -0.021943  -0.039955  -0.000636  3.999508  0.0
C  C52  1  0.25638088  0.16257652  0.30000291  1  -0.072942  0.005104  -0.023882  -0.038483  0.002641  3.997103  0.004
C  C53  1  0.75522064  0.83225634  0.19226482  1  -0.000595  -0.00035  -0.021975  -0.040076  -0.000636  3.999474  0.0
C  C54  1  0.74595327  0.94317376  0.62747718  1  -0.017884  -0.000687  -0.083535  -0.147479  -0.000848  3.954192  0.0
C  C55  1  0.25009639  0.06271273  0.88132690  1  -0.071512  -0.001264  -0.083932  -0.148879  -0.001314  3.948602  -0.001
C  C56  1  0.25404579  0.05682041  0.37251725  1  -0.018101  -0.000687  -0.083542  -0.147477  -0.000848  3.954206  0.0
C  C57  1  0.74989735  0.93728790  0.11867414  1  -0.071511  -0.001263  -0.083907  -0.148757  -0.001314  3.948501  -0.001
C  C58  1  0.81491586  0.69444645  0.66475695  1  1.547998  -0.003914  0.205259  0.558444  -0.004937  4.206508  -0.003
C  C59  1  0.31405803  0.31164123  0.84221872  1  1.527923  -0.004386  0.21509  0.551955  -0.005376  4.18346  -0.003
C  C60  1  0.18509428  0.30555305  0.33524759  1  1.5483  -0.003917  0.205229  0.558355  -0.004936  4.206568  -0.003
C  C61  1  0.68593796  0.68836046  0.15778587  1  1.527932  -0.004386  0.215171  0.552062  -0.005375  4.183421  -0.003
C  C62  1  0.68167965  0.07780243  0.65872855  1  -0.068192  0.000815  -0.009339  0.065234  0.000381  4.019398  0.001
C  C63  1  0.19032407  0.92650695  0.84682904  1  -0.022439  0.000177  -0.007196  0.067324  6e-05  4.002386  0.0
C  C64  1  0.31832033  0.92219176  0.34125910  1  -0.068317  0.000815  -0.00934  0.065158  0.000381  4.019361  0.001
C  C65  1  0.80967295  0.07349368  0.15317289  1  -0.021968  0.000177  -0.007171  0.067375  6e-05  4.002375  0.0
C  C66  1  0.80797835  0.26324954  0.56520682  1  0.420921  -0.006181  0.046648  0.045796  -0.006602  3.902172  -0.004
C  C67  1  0.32099966  0.73205510  0.93603930  1  0.477536  -0.007357  0.052494  0.045475  -0.007874  3.847467  -0.005
C  C68  1  0.19202405  0.73674247  0.43479080  1  0.420968  -0.006179  0.046646  0.045899  -0.0066  3.901976  -0.004
C  C69  1  0.67900505  0.26794549  0.06396614  1  0.477864  -0.00736  0.052583  0.045644  -0.007877  3.847233  -0.005
C  C70  1  0.68112445  0.18925863  0.58128314  1  -0.000838  0.005085  -0.00089  0.030309  0.002448  3.997379  0.004
C  C71  1  0.19443297  0.81265613  0.92282543  1  -0.021035  0.001307  0.00066  0.031065  0.000353  3.989703  0.001
C  C72  1  0.31887776  0.81073447  0.41870697  1  -0.001128  0.005084  -0.000894  0.030322  0.002447  3.997098  0.004
C  C73  1  0.80557053  0.18734555  0.07717501  1  -0.021325  0.001308  0.000565  0.030926  0.000354  3.989857  0.001
C  C74  1  0.61493226  0.10644470  0.76456097  1  -0.032412  -0.001599  -0.083981  -0.11108  -0.001728  3.940663  -0.001
C  C75  1  0.12381163  0.89605106  0.73716272  1  0.00022  -0.001904  -0.080562  -0.105476  -0.002033  3.925349  -0.001
C  C76  1  0.38506887  0.89354733  0.23542900  1  -0.031864  -0.001598  -0.083948  -0.110909  -0.001728  3.940698  -0.001
C  C77  1  0.87617239  0.10395605  0.26284231  1  -0.000477  -0.001904  -0.080631  -0.10577  -0.002033  3.925333  -0.001
C  C78  1  0.67647634  0.86723887  0.80557168  1  -0.003535  -0.000572  -0.088743  -0.109226  -0.000775  3.962425  0.0
C  C79  1  0.17862207  0.13548401  0.69801605  1  -0.064716  -0.001394  -0.088109  -0.107997  -0.001419  3.962877  -0.001
C  C80  1  0.32354132  0.13276814  0.19443128  1  -0.004324  -0.000572  -0.088769  -0.109264  -0.000775  3.962237  0.0
C  C81  1  0.82137383  0.86452415  0.30198672  1  -0.064655  -0.001394  -0.088094  -0.108013  -0.001419  3.962856  -0.001
C  C82  1  0.61219858  0.00137664  0.83694012  1  -0.09597  0.000707  -0.094044  -0.077399  0.000294  4.024595  0.001
C  C83  1  0.11803656  0.00032404  0.66385458  1  -0.068224  0.000396  -0.092034  -0.074641  0.000114  4.020269  0.0
C  C84  1  0.38781036  0.99862395  0.16306028  1  -0.097111  0.000706  -0.094125  -0.077463  0.000294  4.02479  0.001
C  C85  1  0.88194856  0.99968844  0.33615277  1  -0.068055  0.000396  -0.092084  -0.07453  0.000114  4.020364  0.0
C  C86  1  0.55301433  0.22569716  0.52399726  1  -0.064992  -0.009693  -0.069115  -0.078687  -0.010305  3.918558  -0.006
C  C87  1  0.06998260  0.77830928  0.97791974  1  -0.025324  -0.008838  -0.066073  -0.078505  -0.009308  3.920853  -0.005
C  C88  1  0.44698575  0.77429809  0.47599477  1  -0.0644  -0.009688  -0.069108  -0.078693  -0.010301  3.918274  -0.006
C  C89  1  0.93001760  0.22169026  0.02207872  1  -0.025332  -0.008841  -0.066047  -0.078543  -0.009312  3.920895  -0.005
N  N90  1  0.81188163  0.36933097  0.49962788  1  -1.224236  0.055123  -0.325976  -0.250283  0.029177  3.590438  0.049
N  N91  1  0.32679996  0.61940683  0.99597145  1  -1.177031  -0.011271  -0.338041  -0.186278  -0.011071  3.645488  -0.008
N  N92  1  0.18812086  0.63067179  0.50037607  1  -1.224172  0.055121  -0.325966  -0.250278  0.029176  3.590516  0.049
N  N93  1  0.67319706  0.38059487  0.00403060  1  -1.176586  -0.01127  -0.338075  -0.186386  -0.01107  3.645231  -0.008
O  O94  1  0.87681846  0.67716420  0.56858362  1  -1.158905  0.065698  -0.313468  -0.55748  0.034183  2.349233  0.058
O  O95  1  0.38901791  0.32902836  0.93752889  1  -1.111705  -0.002548  -0.296457  -0.501423  -0.002866  2.427491  -0.001
O  O96  1  0.12319389  0.32283529  0.43142264  1  -1.159263  0.065698  -0.313434  -0.557443  0.034181  2.349258  0.058
O  O97  1  0.61097593  0.67097334  0.06247651  1  -1.111574  -0.002549  -0.296451  -0.50143  -0.002867  2.427513  -0.001
O  O98  1  0.81267906  0.60013867  0.73333485  1  -1.18317  -0.000354  -0.318881  -0.570556  -0.001583  2.217893  0.0
O  O99  1  0.29971853  0.40595159  0.77472830  1  -1.202627  -0.001347  -0.314712  -0.564591  -0.001874  2.258016  -0.001
O  O100  1  0.18733223  0.39986082  0.26667225  1  -1.183027  -0.000354  -0.318928  -0.57054  -0.001584  2.218142  0.0
O  O101  1  0.70027637  0.59405226  0.22527651  1  -1.20261  -0.001347  -0.314797  -0.564652  -0.001874  2.258136  -0.001
O  O102  1  0.95478371  0.54401361  0.33430647  1  -1.280821  0.06863  -0.577194  -0.788969  0.035776  2.231631  0.054
O  O103  1  0.45518632  0.44726145  0.17793498  1  -1.293124  0.045646  -0.576991  -0.774707  0.023376  2.192156  0.036
O  O104  1  0.04521442  0.45597948  0.66569461  1  -1.28081  0.068646  -0.577161  -0.788976  0.035782  2.231609  0.054
O  O105  1  0.54481185  0.55273809  0.82206938  1  -1.292811  0.045643  -0.577078  -0.774781  0.023376  2.192037  0.036
