# generated using pymatgen
data_Zn4H39C54N9(O8F)2
_symmetry_space_group_name_H-M   'P 1'
_cell_length_a   9.73911396
_cell_length_b   11.09561930
_cell_length_c   22.27627372
_cell_angle_alpha   89.95298249
_cell_angle_beta   89.16031198
_cell_angle_gamma   89.89747259
_symmetry_Int_Tables_number   1
_chemical_formula_structural   Zn4H39C54N9(O8F)2
_chemical_formula_sum   'Zn4 H39 C54 N9 O16 F2'
_cell_volume   2406.94445229
_cell_formula_units_Z   1
loop_
 _symmetry_equiv_pos_site_id
 _symmetry_equiv_pos_as_xyz
  1  'x, y, z'
loop_
 _atom_site_type_symbol
 _atom_site_label
 _atom_site_symmetry_multiplicity
 _atom_site_fract_x
 _atom_site_fract_y
 _atom_site_fract_z
 _atom_site_occupancy
 _atom_site_pbe_bader_charge
 _atom_site_pbe_bader_spin_density
 _atom_site_pbe_cm5_charge
 _atom_site_pbe_ddec_charge
 _atom_site_pbe_ddec_spin_density
 _atom_site_pbe_ddec_sum_bond_order
 _atom_site_pbe_magmom
Zn  Zn0  1  0.64423627  0.50517961  0.49658541  1  1.26883  0  0.665667  0.816376  0  2.411433  0
Zn  Zn1  1  0.35920098  0.50121570  0.50113427  1  1.286239  0  0.667001  0.810299  0  2.429099  0
Zn  Zn2  1  0.35273605  0.51011761  0.99425415  1  1.281768  0  0.666762  0.823499  0  2.412458  0
Zn  Zn3  1  0.63849110  0.50507008  0.99642405  1  1.273298  0  0.668298  0.806701  0  2.441168  0
H  H4  1  0.14215909  0.37015447  0.43157856  1  0.122536  0  0.12916  0.117158  0  0.99392  0
H  H5  1  0.11162769  0.60935979  0.63206815  1  0.091597  0  0.106066  0.123909  0  0.978157  0
H  H6  1  0.12874416  0.73247590  0.58050740  1  0.064153  0  0.102355  0.118177  0  1.00812  0
H  H7  1  0.86961143  0.74118153  0.57149759  1  0.07823  0  0.107492  0.126742  0  0.976707  0
H  H8  1  0.85281955  0.61887050  0.62319263  1  0.126988  0  0.110084  0.138002  0  0.975141  0
H  H9  1  0.71648557  0.88087501  0.49918375  1  0.065052  0  0.097651  0.110418  0  1.022201  0
H  H10  1  0.17641506  0.90147584  0.45565902  1  0.055248  0  0.088998  0.095175  0  0.992116  0
H  H11  1  0.17181823  0.90509974  0.53576827  1  0.025651  0  0.086065  0.087184  0  1.018694  0
H  H12  1  0.18619138  0.13102095  0.53367948  1  0.043401  0  0.092739  0.10283  0  0.984872  0
H  H13  1  0.19435528  0.12790243  0.45360299  1  0.022205  0  0.087052  0.091388  0  1.00088  0
H  H14  1  0.67877228  0.33089411  0.85903759  1  0.160305  0  0.115261  0.15388  0  1.001147  0
H  H15  1  0.68852144  0.33410064  0.63473227  1  0.14457  0  0.111823  0.148961  0  1.003266  0
H  H16  1  0.34581888  0.62715786  0.69042788  1  0.063399  0  0.104508  0.106072  0  1.000027  0
H  H17  1  0.34154894  0.62703067  0.80266899  1  0.052972  0  0.104233  0.105758  0  1.006812  0
H  H18  1  0.27584486  0.49664443  0.19088632  1  0.026439  0  0.096796  0.107439  0  1.021725  0
H  H19  1  0.82214493  0.42183264  0.18964390  1  0.011042  0  0.083105  0.083398  0  1.007663  0
H  H20  1  0.81302569  0.58246698  0.19114466  1  0.069354  0  0.092465  0.101949  0  0.986372  0
H  H21  1  0.80823337  0.57644725  0.30451800  1  0.060705  0  0.093559  0.104477  0  0.981435  0
H  H22  1  0.81652859  0.41609645  0.30171051  1  0.038942  0  0.084799  0.086312  0  1.022598  0
H  H23  1  0.85735630  0.38409699  0.06788115  1  0.122046  0  0.128853  0.115069  0  0.994342  0
H  H24  1  0.87768564  0.60613932  0.86193963  1  0.07661  0  0.106197  0.127278  0  0.973503  0
H  H25  1  0.86560015  0.73261666  0.91144346  1  0.067843  0  0.10333  0.119611  0  1.004496  0
H  H26  1  0.12546402  0.73945363  0.91690828  1  0.060423  0  0.106913  0.126225  0  0.976054  0
H  H27  1  0.13717475  0.61218158  0.86791678  1  0.07663  0  0.107143  0.130388  0  0.989644  0
H  H28  1  0.28323630  0.88646891  0.99496069  1  0.0715  0  0.097538  0.110735  0  1.021179  0
H  H29  1  0.82440597  0.90359681  0.03649464  1  0.04238  0  0.088987  0.095052  0  0.991918  0
H  H30  1  0.82741059  0.90607340  0.95636325  1  0.023435  0  0.08618  0.087383  0  1.017636  0
H  H31  1  0.81343378  0.13175958  0.95724531  1  0.050329  0  0.090206  0.100456  0  0.992645  0
H  H32  1  0.80901697  0.13062945  0.03734218  1  0.041827  0  0.085845  0.090385  0  1.000759  0
H  H33  1  0.76989657  0.37811289  0.40607559  1  0.524206  0  0.312748  0.336495  0  0.960814  0
H  H34  1  0.92652281  0.30586517  0.38923388  1  0.459188  0  0.328695  0.323697  0  0.913051  0
H  H35  1  0.76084056  0.20278971  0.51127676  1  0.492452  0  0.29054  0.301911  0  1.005208  0
H  H36  1  0.83876116  0.06164188  0.51630821  1  0.4347  0  0.304728  0.30074  0  0.946481  0
H  H37  1  0.24273762  0.51720997  0.35120278  1  0.499317  0  0.288324  0.296426  0  1.015391  0
H  H38  1  0.15973238  0.52170673  0.28277786  1  0.436888  0  0.301668  0.296595  0  0.949072  0
H  H39  1  0.23086149  0.39322686  0.09026218  1  0.520001  0  0.308858  0.33476  0  0.973512  0
H  H40  1  0.07475750  0.32212188  0.10996320  1  0.456962  0  0.326987  0.322072  0  0.918672  0
H  H41  1  0.24000292  0.20942306  0.98657555  1  0.488212  0  0.291055  0.304594  0  1.002995  0
H  H42  1  0.16034317  0.06876460  0.98210924  1  0.440022  0  0.304508  0.300293  0  0.948006  0
C  C43  1  0.49463582  0.73745098  0.49654854  1  1.535228  0  0.216311  0.599325  0  4.163298  0
C  C44  1  0.50661164  0.50285508  0.61634198  1  1.579949  0  0.217157  0.600244  0  4.171829  0
C  C45  1  0.50808554  0.26618847  0.49969602  1  1.545254  0  0.211039  0.606445  0  4.162999  0
C  C46  1  0.49495412  0.49277128  0.37880327  1  1.49001  0  0.215405  0.612206  0  4.148489  0
C  C47  1  0.50358807  0.74172828  0.99658863  1  1.500888  0  0.216774  0.600228  0  4.167054  0
C  C48  1  0.49472964  0.50414303  0.87750223  1  1.586488  0  0.21677  0.596252  0  4.170211  0
C  C49  1  0.49350839  0.27005426  0.99478440  1  1.456281  0  0.209165  0.603079  0  4.17192  0
C  C50  1  0.49732481  0.49761101  0.11499453  1  1.504941  0  0.220079  0.603979  0  4.162111  0
C  C51  1  0.07006332  0.56027425  0.53815336  1  0.559516  0  0.112297  0.141734  0  3.9121  0
C  C52  1  0.93482582  0.42961588  0.45691846  1  1.032297  0  0.241625  0.407818  0  4.059866  0
C  C53  1  0.92868053  0.56432999  0.53355053  1  0.49633  0  0.135661  0.208668  0  3.917333  0
C  C54  1  0.08082242  0.42664103  0.46176230  1  0.517002  0  0.049212  -0.073356  0  3.842457  0
C  C55  1  0.07442992  0.64787888  0.58991472  1  -0.051249  0  -0.1417  -0.218415  0  3.845869  0
C  C56  1  0.91171612  0.65325752  0.58450933  1  -0.046234  0  -0.139264  -0.224696  0  3.824452  0
C  C57  1  0.49698587  0.87208135  0.49757867  1  0.004054  0  -0.014767  -0.047448  0  4.013932  0
C  C58  1  0.50929586  0.13297547  0.49872244  1  -0.016207  0  -0.032313  -0.207453  0  3.933939  0
C  C59  1  0.37821648  0.94318590  0.49677791  1  0.075657  0  -0.027477  0.014432  0  3.922765  0
C  C60  1  0.63183749  0.06111033  0.50071550  1  0.495281  0  0.104839  0.301802  0  4.064259  0
C  C61  1  0.38641671  0.06825403  0.49654783  1  -0.075977  0  -0.008732  0.080895  0  3.929063  0
C  C62  1  0.62197153  0.93389502  0.49926733  1  -0.062891  0  -0.106764  -0.237321  0  3.950443  0
C  C63  1  0.22250753  0.94249534  0.49546985  1  -0.093383  0  -0.157489  -0.192005  0  3.913737  0
C  C64  1  0.23203921  0.08471221  0.49463775  1  -0.001876  0  -0.157337  -0.197338  0  3.903669  0
C  C65  1  0.50080693  0.49587346  0.81035451  1  -0.03353  0  -0.011422  -0.066393  0  3.926438  0
C  C66  1  0.59378633  0.41672037  0.77942147  1  0.075699  0  -0.000775  0.072085  0  3.960684  0
C  C67  1  0.41265943  0.56859389  0.77811913  1  -0.038627  0  -0.087453  -0.101199  0  4.022792  0
C  C68  1  0.67890934  0.33350880  0.81021631  1  0.016746  0  -0.100954  -0.244821  0  3.982854  0
C  C69  1  0.76172825  0.25577261  0.77849306  1  0.372187  0  0.085991  0.180773  0  4.121951  0
C  C70  1  0.50684092  0.49653972  0.68351817  1  -0.019746  0  -0.009166  -0.061492  0  3.934095  0
C  C71  1  0.41532716  0.56889767  0.71515229  1  0.052408  0  -0.089255  -0.104354  0  4.023361  0
C  C72  1  0.59692435  0.41744996  0.71473238  1  -0.089664  0  -0.001522  0.071177  0  3.964199  0
C  C73  1  0.68492826  0.33552440  0.68359166  1  0.061492  0  -0.102718  -0.248985  0  3.98524  0
C  C74  1  0.76486953  0.25671939  0.71508617  1  0.50204  0  0.085136  0.183035  0  4.121563  0
C  C75  1  0.49560385  0.49438126  0.18204117  1  0.039582  0  -0.01533  -0.050494  0  4.017348  0
C  C76  1  0.49166072  0.49068170  0.31229533  1  0.029389  0  -0.030158  -0.201151  0  3.922194  0
C  C77  1  0.61614016  0.49359906  0.21527131  1  -0.004335  0  -0.024828  0.023232  0  3.926377  0
C  C78  1  0.36691524  0.49314108  0.27869961  1  0.394597  0  0.103167  0.297332  0  4.054816  0
C  C79  1  0.61271120  0.49098954  0.27768055  1  -0.066585  0  -0.010404  0.072769  0  3.925535  0
C  C80  1  0.37241808  0.49387791  0.21517609  1  0.028982  0  -0.106164  -0.232117  0  3.945946  0
C  C81  1  0.77121103  0.49950312  0.21113704  1  0.049125  0  -0.157432  -0.192411  0  3.917675  0
C  C82  1  0.76797280  0.49600185  0.28205662  1  -0.093791  0  -0.158637  -0.199787  0  3.903583  0
C  C83  1  0.92518574  0.56318113  0.95625766  1  0.51889  0  0.111854  0.140024  0  3.912177  0
C  C84  1  0.06385299  0.43962047  0.03942331  1  1.029289  0  0.241339  0.407932  0  4.05989  0
C  C85  1  0.06667652  0.56661518  0.95946973  1  0.565222  0  0.135126  0.208097  0  3.917539  0
C  C86  1  0.91775307  0.43665751  0.03570788  1  0.490956  0  0.052225  -0.06887  0  3.846425  0
C  C87  1  0.91839669  0.64680267  0.90286927  1  9.6e-05  0  -0.141897  -0.217959  0  3.844056  0
C  C88  1  0.08143554  0.65102875  0.90643292  1  -0.032337  0  -0.140472  -0.22663  0  3.83233  0
C  C89  1  0.50262894  0.87625632  0.99570877  1  0.028493  0  -0.016551  -0.050837  0  4.018578  0
C  C90  1  0.49172681  0.13694544  0.99538962  1  0.054407  0  -0.033273  -0.207748  0  3.939805  0
C  C91  1  0.62196522  0.94629392  0.99622506  1  0.050194  0  -0.026737  0.016995  0  3.921591  0
C  C92  1  0.36861086  0.06621839  0.99442289  1  0.380506  0  0.104629  0.301156  0  4.071193  0
C  C93  1  0.61446829  0.07142595  0.99636094  1  0.018388  0  -0.010116  0.078071  0  3.931421  0
C  C94  1  0.37792307  0.93895392  0.99479506  1  0.012085  0  -0.10706  -0.23698  0  3.952931  0
C  C95  1  0.77773774  0.94440351  0.99669174  1  -0.055682  0  -0.157244  -0.191157  0  3.9107  0
C  C96  1  0.76905305  0.08672082  0.99698109  1  -0.062979  0  -0.15767  -0.197537  0  3.903292  0
N  N97  1  0.14890596  0.49251232  0.50191734  1  -1.231359  0  -0.297634  -0.164434  0  3.554287  0
N  N98  1  0.85635715  0.50179841  0.49388376  1  -1.207804  0  -0.311067  -0.311281  0  3.393711  0
N  N99  1  0.84811178  0.49857174  0.99452527  1  -1.212156  0  -0.298115  -0.160504  0  3.557581  0
N  N100  1  0.14084042  0.50703403  0.99974464  1  -1.215492  0  -0.311016  -0.31063  0  3.386979  0
N  N101  1  0.87083108  0.36154349  0.41595303  1  -1.288602  0  -0.563858  -0.61714  0  3.356363  0
N  N102  1  0.75993956  0.11300990  0.50174953  1  -1.262401  0  -0.604112  -0.63  0  3.350354  0
N  N103  1  0.24000271  0.49189008  0.30718515  1  -1.240451  0  -0.606242  -0.634107  0  3.33223  0
N  N104  1  0.12906216  0.37640455  0.08208036  1  -1.281754  0  -0.566298  -0.619607  0  3.344992  0
N  N105  1  0.24094669  0.11923825  0.99524576  1  -1.262579  0  -0.604213  -0.630639  0  3.349179  0
O  O106  1  0.60919182  0.68344592  0.48754040  1  -1.164089  0  -0.322335  -0.550562  0  2.333964  0
O  O107  1  0.37885253  0.68636759  0.50472078  1  -1.154901  0  -0.312668  -0.534272  0  2.293627  0
O  O108  1  0.39003277  0.49337080  0.59177119  1  -1.157327  0  -0.314001  -0.539815  0  2.309361  0
O  O109  1  0.62141345  0.51861734  0.58940907  1  -1.167752  0  -0.311641  -0.548208  0  2.325759  0
O  O110  1  0.39324684  0.31902452  0.49217374  1  -1.161553  0  -0.315312  -0.54322  0  2.322764  0
O  O111  1  0.62204959  0.32193193  0.50823157  1  -1.177756  0  -0.318838  -0.560563  0  2.361121  0
O  O112  1  0.61066433  0.47431723  0.40408689  1  -1.178746  0  -0.314852  -0.561931  0  2.325749  0
O  O113  1  0.38325252  0.51430185  0.40790597  1  -1.176267  0  -0.308654  -0.543461  0  2.342435  0
O  O114  1  0.38718246  0.68890485  0.99967030  1  -1.166936  0  -0.322616  -0.552222  0  2.341516  0
O  O115  1  0.62011542  0.68954826  0.99443302  1  -1.159285  0  -0.311364  -0.531617  0  2.298967  0
O  O116  1  0.60834044  0.49979760  0.90505118  1  -1.167296  0  -0.310871  -0.54417  0  2.347456  0
O  O117  1  0.37639518  0.51697206  0.90171077  1  -1.15879  0  -0.315666  -0.545907  0  2.312185  0
O  O118  1  0.60983416  0.32159482  0.99948305  1  -1.159075  0  -0.316735  -0.5456  0  2.327144  0
O  O119  1  0.37895733  0.32667545  0.98930091  1  -1.171458  0  -0.318169  -0.555574  0  2.364496  0
O  O120  1  0.38247405  0.48985309  0.08799397  1  -1.184402  0  -0.317053  -0.570491  0  2.358016  0
O  O121  1  0.61384945  0.50829869  0.08922091  1  -1.157648  0  -0.30644  -0.528481  0  2.304103  0
F  F122  1  0.84269355  0.17516968  0.80750848  1  -0.631991  0  -0.110428  -0.139845  0  1.323946  0
F  F123  1  0.84846229  0.17699008  0.68592017  1  -0.624883  0  -0.113767  -0.142819  0  1.321579  0
