# generated using pymatgen
data_ZnH18C32(NO)4
_symmetry_space_group_name_H-M   'P 1'
_cell_length_a   8.66828925
_cell_length_b   8.66821305
_cell_length_c   17.99947594
_cell_angle_alpha   78.63500332
_cell_angle_beta   78.63511475
_cell_angle_gamma   71.30804915
_symmetry_Int_Tables_number   1
_chemical_formula_structural   ZnH18C32(NO)4
_chemical_formula_sum   'Zn2 H36 C64 N8 O8'
_cell_volume   1242.87515309
_cell_formula_units_Z   2
loop_
 _symmetry_equiv_pos_site_id
 _symmetry_equiv_pos_as_xyz
  1  'x, y, z'
loop_
 _atom_site_type_symbol
 _atom_site_label
 _atom_site_symmetry_multiplicity
 _atom_site_fract_x
 _atom_site_fract_y
 _atom_site_fract_z
 _atom_site_occupancy
 _atom_site_hle17_bader_spin_density
 _atom_site_hle17_ddec_charge
 _atom_site_hle17_ddec_spin_density
 _atom_site_hle17_ddec_sum_bond_order
 _atom_site_hle17_magmom
 _atom_site_hse06_10hf_bader_spin_density
 _atom_site_hse06_10hf_ddec_charge
 _atom_site_hse06_10hf_ddec_spin_density
 _atom_site_hse06_10hf_ddec_sum_bond_order
 _atom_site_hse06_10hf_magmom
 _atom_site_hse06_bader_spin_density
 _atom_site_hse06_ddec_charge
 _atom_site_hse06_ddec_spin_density
 _atom_site_hse06_ddec_sum_bond_order
 _atom_site_hse06_magmom
 _atom_site_pbe_bader_spin_density
 _atom_site_pbe_cm5_charge
 _atom_site_pbe_ddec_charge
 _atom_site_pbe_ddec_spin_density
 _atom_site_pbe_ddec_sum_bond_order
 _atom_site_pbe_magmom
Zn  Zn0  1  0.96684810  0.03315614  0.74999583  1  0  0.969  0  1.838084  0  0  0.783898  0  2.28858  0  0  0.836032  0  2.235122  0  0  0.68024  0.747627  0  2.325044  0
Zn  Zn1  1  0.03314873  0.96684196  0.25000008  1  0  0.969048  0  1.838064  0  0  0.783974  0  2.288555  0  0  0.836107  0  2.235097  0  0  0.680269  0.747703  0  2.325014  0
H  H2  1  0.73750909  0.35082305  0.92925095  1  0  0.11225  0  0.976573  0  0  0.11566  0  1.05171  0  0  0.120575  0  1.047419  0  0  0.106084  0.112165  0  1.054804  0
H  H3  1  0.64916801  0.26249619  0.57074959  1  0  0.112253  0  0.976658  0  0  0.115664  0  1.051773  0  0  0.120569  0  1.047495  0  0  0.106073  0.112168  0  1.054873  0
H  H4  1  0.26248558  0.64916637  0.07075042  1  0  0.112334  0  0.976499  0  0  0.115662  0  1.051709  0  0  0.120554  0  1.047444  0  0  0.10608  0.112168  0  1.054806  0
H  H5  1  0.35083178  0.73751546  0.42924924  1  0  0.112312  0  0.976564  0  0  0.11564  0  1.051768  0  0  0.120525  0  1.047515  0  0  0.106078  0.112145  0  1.054863  0
H  H6  1  0.48624820  0.96842922  0.87085511  1  0  0.103935  0  0.970089  0  0  0.112674  0  1.032135  0  0  0.115999  0  1.030839  0  0  0.099142  0.110276  0  1.033126  0
H  H7  1  0.03156605  0.51375909  0.62913981  1  0  0.103907  0  0.969993  0  0  0.112652  0  1.032041  0  0  0.115978  0  1.030741  0  0  0.099167  0.110255  0  1.033038  0
H  H8  1  0.51375319  0.03156151  0.12914052  1  0  0.103903  0  0.97002  0  0  0.112664  0  1.032047  0  0  0.115984  0  1.030751  0  0  0.099166  0.110267  0  1.033039  0
H  H9  1  0.96843683  0.48625011  0.37085784  1  0  0.103919  0  0.97003  0  0  0.112674  0  1.032066  0  0  0.115997  0  1.030771  0  0  0.09917  0.110282  0  1.033055  0
H  H10  1  0.20266655  0.94370576  0.90455910  1  0  0.090861  0  0.940946  0  0  0.104322  0  0.995885  0  0  0.106968  0  0.995403  0  0  0.100881  0.102415  0  0.99637  0
H  H11  1  0.05628454  0.79734606  0.59543467  1  0  0.090826  0  0.940849  0  0  0.104307  0  0.995765  0  0  0.106935  0  0.995313  0  0  0.100895  0.102401  0  0.996237  0
H  H12  1  0.79733639  0.05628375  0.09543538  1  0  0.09089  0  0.940763  0  0  0.104368  0  0.995697  0  0  0.106996  0  0.995233  0  0  0.100908  0.102459  0  0.996173  0
H  H13  1  0.94371598  0.20266312  0.40456432  1  0  0.090912  0  0.940798  0  0  0.104384  0  0.995732  0  0  0.107012  0  0.995267  0  0  0.100914  0.102461  0  0.996222  0
H  H14  1  0.98714224  0.13759648  0.98205018  1  0  0.095081  0  0.960803  0  0  0.10585  0  1.022755  0  0  0.108585  0  1.021098  0  0  0.103411  0.103888  0  1.02395  0
H  H15  1  0.86238860  0.01286875  0.51794597  1  0  0.095166  0  0.960613  0  0  0.105856  0  1.02267  0  0  0.108582  0  1.021012  0  0  0.103396  0.103897  0  1.023873  0
H  H16  1  0.01285856  0.86238438  0.01794641  1  0  0.09517  0  0.9607  0  0  0.105889  0  1.022705  0  0  0.108624  0  1.021048  0  0  0.103411  0.103933  0  1.023891  0
H  H17  1  0.13761155  0.98714166  0.48205461  1  0  0.095162  0  0.960746  0  0  0.105885  0  1.022739  0  0  0.108618  0  1.021085  0  0  0.103413  0.103922  0  1.023936  0
H  H18  1  0.05732621  0.35367467  0.03110355  1  0  0.102748  0  0.95324  0  0  0.111831  0  1.016925  0  0  0.114991  0  1.015852  0  0  0.10191  0.109569  0  1.017803  0
H  H19  1  0.64630461  0.94268612  0.46889959  1  0  0.102709  0  0.953412  0  0  0.111844  0  1.017053  0  0  0.115004  0  1.01598  0  0  0.101923  0.109579  0  1.017939  0
H  H20  1  0.94267106  0.64630615  0.96889560  1  0  0.102705  0  0.953429  0  0  0.111954  0  1.016954  0  0  0.115114  0  1.015879  0  0  0.101992  0.109683  0  1.017846  0
H  H21  1  0.35368934  0.05732915  0.53110556  1  0  0.10261  0  0.953469  0  0  0.111813  0  1.01704  0  0  0.114973  0  1.015968  0  0  0.101951  0.109551  0  1.01792  0
H  H22  1  0.79423766  0.74867878  0.80974322  1  0  0.086771  0  0.932434  0  0  0.095298  0  0.994981  0  0  0.097982  0  0.99264  0  0  0.121456  0.093301  0  0.996729  0
H  H23  1  0.25132244  0.20576689  0.69025532  1  0  0.086756  0  0.932376  0  0  0.09529  0  0.994924  0  0  0.097974  0  0.992583  0  0  0.121439  0.093291  0  0.996676  0
H  H24  1  0.20576926  0.25131688  0.19025643  1  0  0.086731  0  0.932308  0  0  0.095255  0  0.99487  0  0  0.097938  0  0.992529  0  0  0.121451  0.093259  0  0.996616  0
H  H25  1  0.74866473  0.79423974  0.30974515  1  0  0.086835  0  0.932513  0  0  0.09536  0  0.995054  0  0  0.098041  0  0.992718  0  0  0.121485  0.093367  0  0.996798  0
H  H26  1  0.89851251  0.43766177  0.83413020  1  0  0.120412  0  0.94515  0  0  0.130498  0  1.003149  0  0  0.133867  0  1.001639  0  0  0.115122  0.128009  0  1.004459  0
H  H27  1  0.56233825  0.10148573  0.66587684  1  0  0.120418  0  0.945162  0  0  0.13052  0  1.003153  0  0  0.133889  0  1.001645  0  0  0.115103  0.128032  0  1.00446  0
H  H28  1  0.10148657  0.56233624  0.16587885  1  0  0.120464  0  0.945295  0  0  0.130565  0  1.003241  0  0  0.133954  0  1.001705  0  0  0.115101  0.128067  0  1.004569  0
H  H29  1  0.43765049  0.89852333  0.33412992  1  0  0.120239  0  0.945149  0  0  0.130334  0  1.003147  0  0  0.133744  0  1.001585  0  0  0.115032  0.127837  0  1.00448  0
H  H30  1  0.20004128  0.30119716  0.81371154  1  0  0.0985  0  0.96213  0  0  0.110267  0  1.023394  0  0  0.111988  0  1.023789  0  0  0.110137  0.108995  0  1.023197  0
H  H31  1  0.69880036  0.79995396  0.68629320  1  0  0.09853  0  0.962235  0  0  0.11029  0  1.023503  0  0  0.11201  0  1.023899  0  0  0.110181  0.109015  0  1.023308  0
H  H32  1  0.79996134  0.69880089  0.18629551  1  0  0.098554  0  0.962161  0  0  0.110329  0  1.023423  0  0  0.112051  0  1.023815  0  0  0.110187  0.109056  0  1.023227  0
H  H33  1  0.30119589  0.20005765  0.31370874  1  0  0.098455  0  0.962134  0  0  0.110241  0  1.023393  0  0  0.111952  0  1.023799  0  0  0.110146  0.108967  0  1.023199  0
H  H34  1  0.48965662  0.32992722  0.77105934  1  0  0.110651  0  0.964586  0  0  0.119179  0  1.027819  0  0  0.122048  0  1.027377  0  0  0.106033  0.117017  0  1.028307  0
H  H35  1  0.67006676  0.51033669  0.72894093  1  0  0.110565  0  0.964397  0  0  0.119095  0  1.027658  0  0  0.121952  0  1.027229  0  0  0.105988  0.116929  0  1.028142  0
H  H36  1  0.51034727  0.67007457  0.22894336  1  0  0.110685  0  0.964487  0  0  0.11917  0  1.027792  0  0  0.122034  0  1.027359  0  0  0.106026  0.117005  0  1.028275  0
H  H37  1  0.32993524  0.48966758  0.27105783  1  0  0.110588  0  0.964309  0  0  0.119068  0  1.02764  0  0  0.121931  0  1.027197  0  0  0.105999  0.116905  0  1.028127  0
C  C38  1  0.48707198  0.43040673  0.98625215  1  0  0.185844  0  3.783026  0  0  0.188821  0  4.024393  0  0  0.195411  0  4.040989  0  0  0.120527  0.184435  0  4.012925  0
C  C39  1  0.56958727  0.51293175  0.51374769  1  0  0.185886  0  3.782971  0  0  0.188876  0  4.024327  0  0  0.195464  0  4.040924  0  0  0.120546  0.184487  0  4.012854  0
C  C40  1  0.51291963  0.56958516  0.01374538  1  0  0.185786  0  3.783038  0  0  0.18884  0  4.024328  0  0  0.195438  0  4.040918  0  0  0.120442  0.184444  0  4.012868  0
C  C41  1  0.43041015  0.48707985  0.48625525  1  0  0.185801  0  3.782964  0  0  0.188805  0  4.024299  0  0  0.195405  0  4.040885  0  0  0.120435  0.184412  0  4.012836  0
C  C42  1  0.61847047  0.32742004  0.94175888  1  0  -0.145062  0  3.696475  0  0  -0.178894  0  3.948914  0  0  -0.182451  0  3.966313  0  0  -0.07944  -0.17647  0  3.937215  0
C  C43  1  0.67257228  0.38153056  0.55823971  1  0  -0.145158  0  3.696452  0  0  -0.178965  0  3.948906  0  0  -0.182522  0  3.966312  0  0  -0.079413  -0.176537  0  3.937211  0
C  C44  1  0.38152349  0.67257186  0.05824010  1  0  -0.145146  0  3.69671  0  0  -0.178963  0  3.949118  0  0  -0.182515  0  3.966538  0  0  -0.079452  -0.176534  0  3.937416  0
C  C45  1  0.32742707  0.61847861  0.44176050  1  0  -0.145156  0  3.696681  0  0  -0.178935  0  3.949099  0  0  -0.182485  0  3.966525  0  0  -0.079455  -0.1765  0  3.937392  0
C  C46  1  0.59316270  0.20365386  0.91236400  1  0  -0.043365  0  3.713305  0  0  -0.027223  0  3.946621  0  0  -0.030631  0  3.966138  0  0  0.001912  -0.025059  0  3.933528  0
C  C47  1  0.79634373  0.40684302  0.58763367  1  0  -0.043281  0  3.713194  0  0  -0.027197  0  3.946557  0  0  -0.030597  0  3.96606  0  0  0.001888  -0.025047  0  3.933469  0
C  C48  1  0.40683471  0.79633436  0.08763500  1  0  -0.043368  0  3.713842  0  0  -0.027071  0  3.946935  0  0  -0.03046  0  3.966441  0  0  0.001952  -0.024914  0  3.933842  0
C  C49  1  0.20366385  0.59316622  0.41236355  1  0  -0.043416  0  3.713718  0  0  -0.02714  0  3.94684  0  0  -0.030544  0  3.966359  0  0  0.001958  -0.024987  0  3.933757  0
C  C50  1  0.43476325  0.17647708  0.93084477  1  0  0.00151  0  3.741603  0  0  0.011941  0  3.969254  0  0  0.010064  0  3.994016  0  0  -0.002724  0.013147  0  3.952629  0
C  C51  1  0.82351134  0.56524123  0.56915164  1  0  0.001457  0  3.741611  0  0  0.011922  0  3.969272  0  0  0.01004  0  3.994036  0  0  -0.002742  0.013139  0  3.952633  0
C  C52  1  0.56523453  0.82350992  0.06915209  1  0  0.001446  0  3.741753  0  0  0.011817  0  3.969388  0  0  0.00993  0  3.994157  0  0  -0.00274  0.013021  0  3.952761  0
C  C53  1  0.17648839  0.43476672  0.43084642  1  0  0.001456  0  3.741714  0  0  0.011869  0  3.969353  0  0  0.009985  0  3.994123  0  0  -0.002718  0.013073  0  3.952736  0
C  C54  1  0.39253810  0.05160432  0.90602244  1  0  -0.113075  0  3.747172  0  0  -0.136686  0  4.0058  0  0  -0.139252  0  4.027297  0  0  -0.093465  -0.1348  0  3.991177  0
C  C55  1  0.94839209  0.60746775  0.59397477  1  0  -0.113025  0  3.746979  0  0  -0.136654  0  4.00561  0  0  -0.139215  0  4.027103  0  0  -0.09346  -0.134773  0  3.99099  0
C  C56  1  0.60746438  0.94838271  0.09397398  1  0  -0.113122  0  3.747211  0  0  -0.136751  0  4.005877  0  0  -0.139304  0  4.027363  0  0  -0.093539  -0.134867  0  3.991251  0
C  C57  1  0.05161695  0.39253656  0.40602499  1  0  -0.113111  0  3.747212  0  0  -0.136733  0  4.005855  0  0  -0.139291  0  4.027344  0  0  -0.093526  -0.134856  0  3.991232  0
C  C58  1  0.23442459  0.03850256  0.92491952  1  0  -0.062424  0  3.75744  0  0  -0.079212  0  4.017446  0  0  -0.081798  0  4.038928  0  0  -0.089361  -0.07746  0  4.002811  0
C  C59  1  0.96148175  0.76558700  0.57507439  1  0  -0.062528  0  3.757672  0  0  -0.079305  0  4.01765  0  0  -0.081892  0  4.039133  0  0  -0.089485  -0.077547  0  4.003006  0
C  C60  1  0.76557739  0.96147831  0.07507696  1  0  -0.062511  0  3.757506  0  0  -0.079309  0  4.017528  0  0  -0.081884  0  4.038992  0  0  -0.089407  -0.077549  0  4.002882  0
C  C61  1  0.03852041  0.23442469  0.42492088  1  0  -0.062534  0  3.757549  0  0  -0.079319  0  4.017535  0  0  -0.081896  0  4.03901  0  0  -0.089404  -0.077543  0  4.00289  0
C  C62  1  0.11178317  0.14773795  0.96981975  1  0  -0.037836  0  3.752839  0  0  -0.055597  0  4.006635  0  0  -0.055453  0  4.026653  0  0  -0.084176  -0.055542  0  3.992966  0
C  C63  1  0.85224954  0.88822573  0.53017854  1  0  -0.037714  0  3.752641  0  0  -0.055405  0  4.006442  0  0  -0.055252  0  4.02646  0  0  -0.084029  -0.055361  0  3.992783  0
C  C64  1  0.88821572  0.85224535  0.03017846  1  0  -0.037701  0  3.752536  0  0  -0.055412  0  4.006375  0  0  -0.055267  0  4.026391  0  0  -0.084108  -0.055362  0  3.992712  0
C  C65  1  0.14775295  0.11178469  0.46982181  1  0  -0.037698  0  3.7526  0  0  -0.055397  0  4.006385  0  0  -0.055257  0  4.026413  0  0  -0.084111  -0.055345  0  3.992712  0
C  C66  1  0.14948201  0.26776626  0.99642667  1  0  -0.14633  0  3.720513  0  0  -0.16566  0  3.970426  0  0  -0.170449  0  3.991445  0  0  -0.089041  -0.162394  0  3.95617  0
C  C67  1  0.73221247  0.85053009  0.50356992  1  0  -0.146326  0  3.720218  0  0  -0.165705  0  3.970118  0  0  -0.170497  0  3.99114  0  0  -0.089089  -0.162445  0  3.955874  0
C  C68  1  0.85052033  0.73221337  0.00357045  1  0  -0.146381  0  3.72032  0  0  -0.165908  0  3.970254  0  0  -0.170698  0  3.991273  0  0  -0.089168  -0.162641  0  3.955998  0
C  C69  1  0.26778262  0.14948153  0.49642935  1  0  -0.146346  0  3.72039  0  0  -0.165801  0  3.970339  0  0  -0.170592  0  3.991364  0  0  -0.08915  -0.162543  0  3.956086  0
C  C70  1  0.31036116  0.28569809  0.97773889  1  0  0.192141  0  3.801858  0  0  0.194413  0  4.046179  0  0  0.198664  0  4.068511  0  0  0.104045  0.191479  0  4.031082  0
C  C71  1  0.71429007  0.68964488  0.52226183  1  0  0.192055  0  3.801633  0  0  0.194292  0  4.046035  0  0  0.198542  0  4.068373  0  0  0.104044  0.191366  0  4.030923  0
C  C72  1  0.68963384  0.71428642  0.02225957  1  0  0.192172  0  3.801837  0  0  0.194475  0  4.046195  0  0  0.198726  0  4.068534  0  0  0.104033  0.191555  0  4.031071  0
C  C73  1  0.28571124  0.31036553  0.47773974  1  0  0.192254  0  3.801612  0  0  0.19448  0  4.046052  0  0  0.198733  0  4.068388  0  0  0.104051  0.191565  0  4.030934  0
C  C74  1  0.72772902  0.11770682  0.85503940  1  0  0.627615  0  3.899914  0  0  0.581527  0  4.184452  0  0  0.615336  0  4.177947  0  0  0.199773  0.558674  0  4.18794  0
C  C75  1  0.88229235  0.27226928  0.64495383  1  0  0.627732  0  3.899693  0  0  0.581708  0  4.184149  0  0  0.615516  0  4.177646  0  0  0.199827  0.558855  0  4.187645  0
C  C76  1  0.27227118  0.88228390  0.14495744  1  0  0.62756  0  3.89986  0  0  0.581438  0  4.184395  0  0  0.615236  0  4.177898  0  0  0.199758  0.558584  0  4.187884  0
C  C77  1  0.11771474  0.72773381  0.35504123  1  0  0.627668  0  3.899711  0  0  0.581542  0  4.184254  0  0  0.615348  0  4.177759  0  0  0.199793  0.558686  0  4.187752  0
C  C78  1  0.92512557  0.68289985  0.80010029  1  0  0.151118  0  3.672517  0  0  0.115308  0  3.933896  0  0  0.124014  0  3.949563  0  0  0.064367  0.109668  0  3.923238  0
C  C79  1  0.31709861  0.07487339  0.69990237  1  0  0.151196  0  3.672587  0  0  0.115371  0  3.933964  0  0  0.124077  0  3.949633  0  0  0.064428  0.109731  0  3.923308  0
C  C80  1  0.07487392  0.31709698  0.19990327  1  0  0.15129  0  3.672692  0  0  0.11548  0  3.934047  0  0  0.124185  0  3.949721  0  0  0.064451  0.109842  0  3.923383  0
C  C81  1  0.68289501  0.92512340  0.30010175  1  0  0.151094  0  3.672512  0  0  0.115268  0  3.933909  0  0  0.123973  0  3.949586  0  0  0.06437  0.109627  0  3.923258  0
C  C82  1  0.98399998  0.51054301  0.81433496  1  0  -0.088847  0  3.689718  0  0  -0.105889  0  3.951567  0  0  -0.11168  0  3.969699  0  0  -0.070157  -0.102277  0  3.939644  0
C  C83  1  0.48945560  0.01600412  0.68566999  1  0  -0.088887  0  3.689323  0  0  -0.105952  0  3.951175  0  0  -0.111747  0  3.969306  0  0  -0.070162  -0.102336  0  3.939248  0
C  C84  1  0.01601160  0.48945264  0.18566981  1  0  -0.089032  0  3.689481  0  0  -0.106053  0  3.951319  0  0  -0.11186  0  3.96944  0  0  -0.07012  -0.102445  0  3.939396  0
C  C85  1  0.51053175  0.98401358  0.31433387  1  0  -0.088708  0  3.689648  0  0  -0.105732  0  3.951501  0  0  -0.111557  0  3.969621  0  0  -0.070048  -0.102122  0  3.939567  0
C  C86  1  0.15169848  0.43473500  0.80214179  1  0  -0.027159  0  3.652773  0  0  -0.054483  0  3.900457  0  0  -0.051166  0  3.917971  0  0  -0.053258  -0.056537  0  3.888659  0
C  C87  1  0.56526433  0.84829282  0.69786480  1  0  -0.027097  0  3.65275  0  0  -0.054482  0  3.900396  0  0  -0.051165  0  3.917913  0  0  -0.053283  -0.056531  0  3.888589  0
C  C88  1  0.84829481  0.56526670  0.19786467  1  0  -0.027123  0  3.652598  0  0  -0.054536  0  3.900299  0  0  -0.051218  0  3.917817  0  0  -0.053321  -0.056588  0  3.888497  0
C  C89  1  0.43473750  0.15170402  0.30213854  1  0  -0.027062  0  3.652933  0  0  -0.054434  0  3.900583  0  0  -0.051113  0  3.918123  0  0  -0.053318  -0.05648  0  3.888781  0
C  C90  1  0.26128867  0.53092754  0.77564555  1  0  0.027158  0  3.788202  0  0  0.044866  0  4.017245  0  0  0.042371  0  4.041365  0  0  0.00148  0.046366  0  4.001037  0
C  C91  1  0.46907306  0.73870980  0.72435860  1  0  0.026907  0  3.788328  0  0  0.044813  0  4.01713  0  0  0.042319  0  4.041245  0  0  0.001538  0.046309  0  4.000912  0
C  C92  1  0.73871910  0.46907303  0.22435746  1  0  0.027087  0  3.788339  0  0  0.044937  0  4.017211  0  0  0.042442  0  4.041327  0  0  0.001489  0.046433  0  4.001  0
C  C93  1  0.53092584  0.26129690  0.27564299  1  0  0.027019  0  3.788169  0  0  0.044831  0  4.017094  0  0  0.042339  0  4.041206  0  0  0.001574  0.046325  0  4.000888  0
C  C94  1  0.43669015  0.46339837  0.76193047  1  0  -0.09536  0  3.714459  0  0  -0.117496  0  3.966451  0  0  -0.121371  0  3.990503  0  0  -0.082986  -0.114793  0  3.950279  0
C  C95  1  0.53659549  0.56330294  0.73807259  1  0  -0.095205  0  3.714208  0  0  -0.117403  0  3.966112  0  0  -0.121269  0  3.990172  0  0  -0.083031  -0.114693  0  3.949937  0
C  C96  1  0.56331059  0.53660216  0.23807208  1  0  -0.095447  0  3.714371  0  0  -0.117602  0  3.966325  0  0  -0.121477  0  3.990389  0  0  -0.083019  -0.114885  0  3.950135  0
C  C97  1  0.46340724  0.43669885  0.26192799  1  0  -0.095167  0  3.714247  0  0  -0.117306  0  3.966186  0  0  -0.121173  0  3.99024  0  0  -0.083025  -0.114602  0  3.950015  0
C  C98  1  0.19072170  0.70411674  0.76294939  1  0  0.126976  0  3.766078  0  0  0.121095  0  3.99717  0  0  0.125272  0  4.019314  0  0  0.11589  0.118276  0  3.982296  0
C  C99  1  0.29588460  0.80927363  0.73705441  1  0  0.12707  0  3.765865  0  0  0.12113  0  3.996911  0  0  0.125304  0  4.019055  0  0  0.115874  0.118314  0  3.982033  0
C  C100  1  0.80927243  0.29588622  0.23705355  1  0  0.127023  0  3.765912  0  0  0.12113  0  3.996939  0  0  0.125308  0  4.01908  0  0  0.115884  0.118309  0  3.982067  0
C  C101  1  0.70412034  0.19072078  0.26294665  1  0  0.126983  0  3.766065  0  0  0.121078  0  3.997135  0  0  0.125251  0  4.019279  0  0  0.115865  0.118266  0  3.982258  0
N  N102  1  0.33759833  0.41064152  0.00373385  1  0  -0.369748  0  3.033866  0  0  -0.341969  0  3.292304  0  0  -0.351529  0  3.305391  0  0  -0.310601  -0.335211  0  3.283212  0
N  N103  1  0.58934484  0.66240794  0.49626699  1  0  -0.369707  0  3.033629  0  0  -0.341909  0  3.29206  0  0  -0.351466  0  3.305148  0  0  -0.310618  -0.335152  0  3.282961  0
N  N104  1  0.66239249  0.58934913  0.99626332  1  0  -0.36968  0  3.033917  0  0  -0.341922  0  3.292339  0  0  -0.351486  0  3.30543  0  0  -0.310448  -0.335167  0  3.283243  0
N  N105  1  0.41064948  0.33760610  0.50373657  1  0  -0.369709  0  3.033749  0  0  -0.341909  0  3.2922  0  0  -0.351473  0  3.305289  0  0  -0.31046  -0.335157  0  3.283109  0
N  N106  1  0.02575261  0.77643189  0.77456435  1  0  -0.348438  0  3.300949  0  0  -0.274364  0  3.573355  0  0  -0.293318  0  3.588488  0  0  -0.321651  -0.261662  0  3.563055  0
N  N107  1  0.22357008  0.97425213  0.72543573  1  0  -0.34854  0  3.301067  0  0  -0.27444  0  3.573457  0  0  -0.293394  0  3.58859  0  0  -0.321715  -0.261742  0  3.563157  0
N  N108  1  0.97425673  0.22356749  0.22543418  1  0  -0.348541  0  3.301036  0  0  -0.274474  0  3.573439  0  0  -0.293429  0  3.58857  0  0  -0.321725  -0.261773  0  3.563136  0
N  N109  1  0.77642649  0.02575456  0.27456330  1  0  -0.348495  0  3.30119  0  0  -0.274427  0  3.573636  0  0  -0.293379  0  3.588765  0  0  -0.321694  -0.261727  0  3.563338  0
O  O110  1  0.69017022  0.06552191  0.80188899  1  0  -0.623108  0  1.959113  0  0  -0.5647  0  2.192765  0  0  -0.590635  0  2.184573  0  0  -0.315052  -0.546409  0  2.197688  0
O  O111  1  0.93448316  0.30983255  0.69810717  1  0  -0.623252  0  1.958713  0  0  -0.564865  0  2.192354  0  0  -0.5908  0  2.184152  0  0  -0.315134  -0.54657  0  2.197281  0
O  O112  1  0.30983445  0.93447746  0.19810775  1  0  -0.623081  0  1.958807  0  0  -0.564695  0  2.192481  0  0  -0.590629  0  2.184299  0  0  -0.315073  -0.5464  0  2.197401  0
O  O113  1  0.06552405  0.69017792  0.30189052  1  0  -0.623055  0  1.958849  0  0  -0.564673  0  2.192559  0  0  -0.590617  0  2.184382  0  0  -0.315024  -0.546376  0  2.197483  0
O  O114  1  0.87683668  0.11117855  0.85734153  1  0  -0.617268  0  1.979333  0  0  -0.553292  0  2.231385  0  0  -0.582385  0  2.221967  0  0  -0.320324  -0.53285  0  2.237041  0
O  O115  1  0.88882782  0.12316788  0.64265212  1  0  -0.617229  0  1.979529  0  0  -0.553332  0  2.231661  0  0  -0.582386  0  2.222164  0  0  -0.320316  -0.53288  0  2.237294  0
O  O116  1  0.12316321  0.88881708  0.14265711  1  0  -0.617283  0  1.979505  0  0  -0.553307  0  2.231552  0  0  -0.5824  0  2.22214  0  0  -0.320357  -0.532865  0  2.237207  0
O  O117  1  0.11117903  0.87684382  0.35734438  1  0  -0.617317  0  1.979254  0  0  -0.553411  0  2.231451  0  0  -0.582448  0  2.22192  0  0  -0.320433  -0.532951  0  2.237079  0
