# generated using pymatgen
data_SnH24C16SCl2O5
_symmetry_space_group_name_H-M   'P 1'
_cell_length_a   8.93638273
_cell_length_b   9.68625800
_cell_length_c   12.51760860
_cell_angle_alpha   86.13142403
_cell_angle_beta   87.07780671
_cell_angle_gamma   73.58834648
_symmetry_Int_Tables_number   1
_chemical_formula_structural   SnH24C16SCl2O5
_chemical_formula_sum   'Sn2 H48 C32 S2 Cl4 O10'
_cell_volume   1036.43384479
_cell_formula_units_Z   2
loop_
 _symmetry_equiv_pos_site_id
 _symmetry_equiv_pos_as_xyz
  1  'x, y, z'
loop_
 _atom_site_type_symbol
 _atom_site_label
 _atom_site_symmetry_multiplicity
 _atom_site_fract_x
 _atom_site_fract_y
 _atom_site_fract_z
 _atom_site_occupancy
 _atom_site_pbe_bader_spin_density
 _atom_site_pbe_cm5_charge
 _atom_site_pbe_ddec_charge
 _atom_site_pbe_ddec_spin_density
 _atom_site_pbe_ddec_sum_bond_order
 _atom_site_pbe_magmom
Sn  Sn0  1  0.65005839  0.67535446  0.76425121  1  0  0.59503  1.22476  0  3.307692  0
Sn  Sn1  1  0.34992992  0.32465218  0.23574494  1  0  0.59505  1.224833  0  3.307676  0
H  H2  1  0.70155778  0.51029995  0.94468465  1  0  0.082889  0.113854  0  1.060825  0
H  H3  1  0.29844542  0.48970549  0.05531348  1  0  0.082883  0.113852  0  1.060812  0
H  H4  1  0.49976100  0.56712602  0.91832744  1  0  0.088631  0.128851  0  1.049824  0
H  H5  1  0.50023963  0.43288048  0.08167312  1  0  0.088651  0.128901  0  1.049808  0
H  H6  1  0.57519395  0.30636036  0.90898567  1  0  0.080705  0.072541  0  0.990645  0
H  H7  1  0.42480222  0.69364624  0.09100944  1  0  0.080704  0.07248  0  0.990647  0
H  H8  1  0.55490643  0.37517089  0.77556328  1  0  0.084301  0.073354  0  0.999269  0
H  H9  1  0.44509246  0.62483784  0.22443245  1  0  0.084314  0.073361  0  0.999254  0
H  H10  1  0.86034725  0.25694244  0.89389701  1  0  0.072185  0.061912  0  1.024833  0
H  H11  1  0.13965210  0.74306085  0.10610293  1  0  0.072176  0.061896  0  1.024838  0
H  H12  1  0.85005042  0.33863766  0.76300766  1  0  0.087288  0.086329  0  1.021003  0
H  H13  1  0.14994991  0.66136244  0.23698919  1  0  0.087283  0.086335  0  1.021007  0
H  H14  1  0.74070273  0.07002971  0.82894776  1  0  0.072871  0.097915  0  1.056385  0
H  H15  1  0.25928217  0.92997683  0.17105730  1  0  0.072916  0.09802  0  1.056387  0
H  H16  1  0.91778263  0.06842849  0.75725068  1  0  0.080479  0.110302  0  1.033188  0
H  H17  1  0.08221063  0.93156517  0.24274907  1  0  0.080526  0.110418  0  1.033219  0
H  H18  1  0.73666302  0.15247958  0.69766647  1  0  0.081611  0.110872  0  1.015398  0
H  H19  1  0.26332397  0.84752375  0.30233626  1  0  0.081571  0.110877  0  1.015447  0
H  H20  1  0.56009271  0.93857722  0.66939664  1  0  0.09183  0.133567  0  1.030767  0
H  H21  1  0.43991096  0.06142281  0.33060411  1  0  0.091818  0.133574  0  1.030761  0
H  H22  1  0.76242756  0.88985861  0.69736520  1  0  0.093615  0.136327  0  1.035137  0
H  H23  1  0.23757338  0.11013927  0.30263652  1  0  0.093609  0.136336  0  1.035116  0
H  H24  1  0.62064281  0.79113445  0.50637246  1  0  0.080426  0.066735  0  1.006213  0
H  H25  1  0.37935845  0.20886234  0.49363010  1  0  0.080437  0.066761  0  1.00619  0
H  H26  1  0.81947054  0.73144053  0.53727758  1  0  0.085373  0.085482  0  1.000977  0
H  H27  1  0.18053408  0.26855623  0.46272568  1  0  0.085335  0.085418  0  1.001015  0
H  H28  1  0.83468428  0.98769148  0.51491738  1  0  0.080051  0.069027  0  1.000703  0
H  H29  1  0.16531699  0.01230534  0.48508278  1  0  0.080055  0.069001  0  1.000675  0
H  H30  1  0.63613751  0.04637653  0.48407057  1  0  0.082125  0.076242  0  0.994125  0
H  H31  1  0.36386150  0.95362026  0.51593286  1  0  0.082111  0.076174  0  0.994157  0
H  H32  1  0.89493756  0.83740321  0.35383495  1  0  0.079906  0.110343  0  1.023017  0
H  H33  1  0.10505698  0.16259367  0.64616463  1  0  0.079922  0.110347  0  1.023061  0
H  H34  1  0.79861052  0.02029525  0.31483994  1  0  0.079409  0.111718  0  1.03957  0
H  H35  1  0.20138402  0.97970161  0.68516044  1  0  0.07941  0.11171  0  1.039473  0
H  H36  1  0.69431032  0.88948944  0.32307611  1  0  0.075303  0.101679  0  1.019865  0
H  H37  1  0.30568340  0.11050632  0.67692673  1  0  0.075337  0.101671  0  1.019905  0
H  H38  1  0.15356798  0.32967485  0.81338248  1  0  0.102314  0.160635  0  1.017639  0
H  H39  1  0.84642269  0.67032738  0.18662018  1  0  0.102305  0.160669  0  1.017645  0
H  H40  1  0.28132877  0.41264956  0.87403697  1  0  0.105129  0.167047  0  0.993207  0
H  H41  1  0.71866318  0.58735587  0.12596711  1  0  0.105094  0.167022  0  0.993238  0
H  H42  1  0.23164401  0.45887958  0.73503615  1  0  0.106192  0.170608  0  0.990647  0
H  H43  1  0.76834988  0.54112695  0.26496542  1  0  0.106181  0.170611  0  0.990624  0
H  H44  1  0.16701117  0.72341524  0.76941787  1  0  0.102789  0.170157  0  1.02275  0
H  H45  1  0.83299056  0.27658369  0.23058538  1  0  0.102771  0.170131  0  1.022747  0
H  H46  1  0.19888787  0.69440511  0.91115774  1  0  0.103315  0.168129  0  0.991793  0
H  H47  1  0.80110891  0.30559172  0.08884416  1  0  0.103329  0.168142  0  0.991787  0
H  H48  1  0.01771100  0.81185231  0.86626101  1  0  0.099247  0.157928  0  1.031088  0
H  H49  1  0.98229219  0.18815308  0.13374112  1  0  0.099259  0.157914  0  1.031127  0
C  C50  1  0.62412242  0.50212702  0.56729846  1  0  0.121172  0.236352  0  4.114761  0
C  C51  1  0.37588546  0.49787417  0.43269411  1  0  0.121141  0.236403  0  4.114977  0
C  C52  1  0.54422487  0.40891666  0.41003129  1  0  0.111465  0.218041  0  4.150967  0
C  C53  1  0.45578897  0.59107595  0.58995667  1  0  0.111364  0.217947  0  4.150839  0
C  C54  1  0.66050973  0.41341031  0.47966150  1  0  -0.040473  -0.151455  0  4.119538  0
C  C55  1  0.33949530  0.58659312  0.52032548  1  0  -0.040408  -0.151543  0  4.119703  0
C  C56  1  0.45652542  0.91843601  0.91991576  1  0  0.116826  0.24155  0  4.117528  0
C  C57  1  0.54348256  0.08156072  0.08008819  1  0  0.116641  0.241297  0  4.117699  0
C  C58  1  0.37490184  0.11206575  0.04514390  1  0  0.111982  0.234707  0  4.134653  0
C  C59  1  0.62510790  0.88792129  0.95486041  1  0  0.112024  0.234859  0  4.13458  0
C  C60  1  0.34015029  0.02991838  0.96677606  1  0  -0.042265  -0.151547  0  4.106679  0
C  C61  1  0.65985301  0.97007506  0.03323456  1  0  -0.04233  -0.151598  0  4.106713  0
C  C62  1  0.61563862  0.51510425  0.88365598  1  0  -0.238339  -0.494416  0  3.859559  0
C  C63  1  0.38436169  0.48489581  0.11634408  1  0  -0.238349  -0.494467  0  3.859657  0
C  C64  1  0.62688422  0.36625632  0.84599551  1  0  -0.171055  -0.08192  0  3.995584  0
C  C65  1  0.37311628  0.63374702  0.15400040  1  0  -0.171061  -0.081879  0  3.995486  0
C  C66  1  0.79336818  0.27641641  0.82013546  1  0  -0.17923  -0.113791  0  3.963336  0
C  C67  1  0.20663070  0.72358475  0.17986299  1  0  -0.179211  -0.113729  0  3.963368  0
C  C68  1  0.79778299  0.13392144  0.77368309  1  0  -0.254172  -0.355584  0  3.963024  0
C  C69  1  0.20220897  0.86607650  0.22631891  1  0  -0.254265  -0.355875  0  3.963361  0
C  C70  1  0.67162083  0.85501165  0.66016220  1  0  -0.229949  -0.47921  0  3.833216  0
C  C71  1  0.32838091  0.14498730  0.33983945  1  0  -0.229956  -0.479291  0  3.833166  0
C  C72  1  0.71425342  0.82339134  0.54335082  1  0  -0.172316  -0.096845  0  3.988748  0
C  C73  1  0.28574848  0.17660329  0.45665261  1  0  -0.172364  -0.096888  0  3.98895  0
C  C74  1  0.74167079  0.95432521  0.47833949  1  0  -0.170507  -0.09167  0  3.951183  0
C  C75  1  0.25832935  0.04567158  0.52166310  1  0  -0.170408  -0.091456  0  3.951136  0
C  C76  1  0.78519764  0.92398957  0.36113600  1  0  -0.254261  -0.3689  0  3.985693  0
C  C77  1  0.21479689  0.07600729  0.63886517  1  0  -0.254322  -0.368898  0  3.985696  0
C  C78  1  0.19086861  0.42801862  0.81476861  1  0  -0.226284  -0.484919  0  3.792566  0
C  C79  1  0.80912802  0.57198253  0.18523152  1  0  -0.226239  -0.484963  0  3.792557  0
C  C80  1  0.11182111  0.71486840  0.84896089  1  0  -0.234229  -0.500611  0  3.810822  0
C  C81  1  0.88817679  0.28513595  0.15104065  1  0  -0.234232  -0.500591  0  3.810796  0
S  S82  1  0.02403238  0.56902827  0.85641537  1  0  0.296043  0.64467  0  4.032455  0
S  S83  1  0.97596504  0.43097394  0.14358628  1  0  0.296077  0.644725  0  4.032335  0
Cl  Cl84  1  0.85065120  0.31338981  0.45675815  1  0  0.031095  0.006393  0  1.641053  0
Cl  Cl85  1  0.14935207  0.68661580  0.54322799  1  0  0.031081  0.006421  0  1.641005  0
Cl  Cl86  1  0.14938624  0.06326758  0.93004535  1  0  0.029309  -0.01306  0  1.731714  0
Cl  Cl87  1  0.85061806  0.93673024  0.06995867  1  0  0.029305  -0.013073  0  1.73182  0
O  O88  1  0.72492835  0.51377934  0.63101134  1  0  -0.232579  -0.384434  0  2.365571  0
O  O89  1  0.27508304  0.48620995  0.36898483  1  0  -0.232519  -0.384349  0  2.365776  0
O  O90  1  0.56822208  0.33553812  0.32712755  1  0  -0.245195  -0.396988  0  2.300448  0
O  O91  1  0.43178742  0.66445773  0.67286200  1  0  -0.245132  -0.396889  0  2.300199  0
O  O92  1  0.43148045  0.83944237  0.85031314  1  0  -0.244418  -0.403249  0  2.302671  0
O  O93  1  0.56852559  0.16056078  0.14969379  1  0  -0.244254  -0.40306  0  2.302548  0
O  O94  1  0.27412488  0.21243619  0.09077756  1  0  -0.258771  -0.443492  0  2.371029  0
O  O95  1  0.72588233  0.78756705  0.90922293  1  0  -0.258727  -0.443486  0  2.371187  0
O  O96  1  0.91805782  0.59605998  0.76002629  1  0  -0.316881  -0.536001  0  2.26069  0
O  O97  1  0.08194378  0.40394330  0.23997359  1  0  -0.316888  -0.536004  0  2.26074  0
