# generated using pymatgen
data_YbH14(C6O5)2
_symmetry_space_group_name_H-M   'P 1'
_cell_length_a   7.39277999
_cell_length_b   9.75255455
_cell_length_c   10.44873386
_cell_angle_alpha   88.77440286
_cell_angle_beta   80.82979372
_cell_angle_gamma   84.89418489
_symmetry_Int_Tables_number   1
_chemical_formula_structural   YbH14(C6O5)2
_chemical_formula_sum   'Yb2 H28 C24 O20'
_cell_volume   740.73882176
_cell_formula_units_Z   2
loop_
 _symmetry_equiv_pos_site_id
 _symmetry_equiv_pos_as_xyz
  1  'x, y, z'
loop_
 _atom_site_type_symbol
 _atom_site_label
 _atom_site_symmetry_multiplicity
 _atom_site_fract_x
 _atom_site_fract_y
 _atom_site_fract_z
 _atom_site_occupancy
 _atom_site_pbe_bader_spin_density
 _atom_site_pbe_cm5_charge
 _atom_site_pbe_ddec_charge
 _atom_site_pbe_ddec_spin_density
 _atom_site_pbe_ddec_sum_bond_order
 _atom_site_pbe_magmom
Yb  Yb0  1  0.78836947  0.74098114  0.96357066  1  0  1.579807  2.135572  0  2.101797  0
Yb  Yb1  1  0.21163221  0.25901416  0.03643123  1  0  1.579769  2.135438  0  2.101967  0
H  H2  1  0.95613880  0.88859877  0.73402682  1  0  0.323559  0.406583  0  0.888103  0
H  H3  1  0.04386555  0.11139145  0.26597113  1  0  0.323482  0.406451  0  0.888228  0
H  H4  1  0.14046465  0.83470809  0.79221705  1  0  0.299152  0.399866  0  0.940693  0
H  H5  1  0.85953895  0.16528933  0.20778097  1  0  0.299152  0.399825  0  0.940733  0
H  H6  1  0.87410094  0.02984610  0.94142223  1  0  0.337236  0.426803  0  0.856399  0
H  H7  1  0.12585028  0.97015629  0.05855805  1  0  0.337273  0.426778  0  0.856379  0
H  H8  1  0.74705733  0.02712546  0.07735193  1  0  0.312835  0.410644  0  0.917939  0
H  H9  1  0.25294948  0.97287080  0.92265088  1  0  0.312818  0.410572  0  0.918029  0
H  H10  1  0.15025557  0.59080658  0.93852909  1  0  0.306911  0.416754  0  0.911787  0
H  H11  1  0.84974656  0.40919174  0.06147573  1  0  0.306889  0.416753  0  0.91179  0
H  H12  1  0.12790510  0.65728218  0.07869701  1  0  0.299736  0.394388  0  0.945092  0
H  H13  1  0.87209847  0.34271717  0.92130683  1  0  0.299662  0.39417  0  0.945388  0
H  H14  1  0.41028172  0.77630710  0.95719778  1  0  0.298389  0.390136  0  0.956209  0
H  H15  1  0.58971889  0.22368942  0.04279543  1  0  0.298377  0.390119  0  0.956248  0
H  H16  1  0.40384033  0.70531555  0.09947771  1  0  0.305848  0.42219  0  0.897922  0
H  H17  1  0.59615786  0.29467999  0.90051455  1  0  0.305837  0.42211  0  0.898031  0
H  H18  1  0.84377024  0.78825380  0.40272958  1  0  0.099974  0.102492  0  1.01598  0
H  H19  1  0.15621672  0.21174878  0.59727448  1  0  0.100022  0.102507  0  1.015964  0
H  H20  1  0.85372935  0.71861968  0.63432675  1  0  0.10219  0.097245  0  1.066293  0
H  H21  1  0.14625688  0.28137882  0.36567631  1  0  0.102178  0.097231  0  1.066355  0
H  H22  1  0.68106344  0.32458144  0.56087978  1  0  0.099051  0.093739  0  1.04637  0
H  H23  1  0.31892599  0.67541812  0.43912035  1  0  0.09903  0.093769  0  1.046357  0
H  H24  1  0.67569110  0.39176171  0.32778031  1  0  0.103182  0.10673  0  1.012928  0
H  H25  1  0.32430823  0.60823572  0.67221873  1  0  0.103164  0.106716  0  1.012935  0
H  H26  1  0.26844548  0.84064509  0.59217763  1  0  0.105982  0.099216  0  1.042325  0
H  H27  1  0.73157284  0.15936347  0.40782226  1  0  0.10601  0.09926  0  1.042302  0
H  H28  1  0.73269314  0.06429228  0.63088919  1  0  0.109185  0.110975  0  0.992571  0
H  H29  1  0.26732202  0.93571329  0.36910781  1  0  0.109169  0.110962  0  0.992515  0
C  C30  1  0.75977514  0.59433903  0.35173096  1  0  -0.012947  -0.023234  0  3.946124  0
C  C31  1  0.24021808  0.40565943  0.64827105  1  0  -0.012995  -0.023402  0  3.946351  0
C  C32  1  0.80840963  0.68687723  0.43854932  1  0  -0.082265  -0.086461  0  3.967569  0
C  C33  1  0.19157772  0.31312540  0.56145280  1  0  -0.082265  -0.086389  0  3.967622  0
C  C34  1  0.81304079  0.64872630  0.56679054  1  0  -0.085419  -0.093714  0  3.97617  0
C  C35  1  0.18694309  0.35127434  0.43320966  1  0  -0.085389  -0.093717  0  3.97627  0
C  C36  1  0.76728419  0.51782231  0.61128979  1  0  -0.010542  -0.035784  0  3.944771  0
C  C37  1  0.23270301  0.48217614  0.38871519  1  0  -0.010565  -0.035701  0  3.94469  0
C  C38  1  0.71888825  0.42510397  0.52442645  1  0  -0.083908  -0.093955  0  3.980612  0
C  C39  1  0.28109766  0.57489762  0.47557665  1  0  -0.083883  -0.094021  0  3.980489  0
C  C40  1  0.71555813  0.46257916  0.39540011  1  0  -0.080975  -0.087836  0  3.947254  0
C  C41  1  0.28443364  0.53741826  0.60460288  1  0  -0.080997  -0.087792  0  3.94724  0
C  C42  1  0.75771224  0.64024810  0.21498720  1  0  0.196272  0.583649  0  4.196811  0
C  C43  1  0.24228349  0.35975032  0.78501575  1  0  0.19625  0.583636  0  4.196697  0
C  C44  1  0.77252776  0.47871130  0.75039779  1  0  0.235403  0.64406  0  4.129782  0
C  C45  1  0.22746691  0.52128611  0.24960420  1  0  0.235438  0.644061  0  4.129793  0
C  C46  1  0.50135387  0.94585998  0.62480781  1  0  -0.006382  -0.023658  0  3.962421  0
C  C47  1  0.49865881  0.05415069  0.37519216  1  0  -0.006409  -0.023584  0  3.962382  0
C  C48  1  0.36833976  0.91196656  0.55195275  1  0  -0.081969  -0.101154  0  3.970779  0
C  C49  1  0.63167487  0.08804208  0.44804525  1  0  -0.08203  -0.101182  0  3.97043  0
C  C50  1  0.63285686  0.03485392  0.57235319  1  0  -0.077001  -0.082441  0  3.951659  0
C  C51  1  0.36715861  0.96515778  0.42764579  1  0  -0.07698  -0.08237  0  3.95183  0
C  C52  1  0.50532434  0.88481545  0.75639779  1  0  0.238158  0.622738  0  4.130944  0
C  C53  1  0.49468536  0.11519210  0.24360508  1  0  0.238223  0.622765  0  4.130776  0
O  O54  1  0.77473938  0.76690840  0.18566601  1  0  -0.403858  -0.632156  0  2.19936  0
O  O55  1  0.22526219  0.23308793  0.81433589  1  0  -0.403779  -0.632058  0  2.199347  0
O  O56  1  0.74099048  0.55564623  0.12589851  1  0  -0.364243  -0.644187  0  2.24682  0
O  O57  1  0.25900963  0.44435114  0.87410342  1  0  -0.364265  -0.6442  0  2.246804  0
O  O58  1  0.78646314  0.57449541  0.82905951  1  0  -0.452124  -0.721847  0  2.356417  0
O  O59  1  0.21353423  0.42550406  0.17094150  1  0  -0.452114  -0.721838  0  2.356486  0
O  O60  1  0.76668177  0.35301537  0.78451550  1  0  -0.310863  -0.5568  0  2.141077  0
O  O61  1  0.23332406  0.64698094  0.21548539  1  0  -0.310903  -0.556901  0  2.141131  0
O  O62  1  0.65580741  0.87245347  0.79988730  1  0  -0.364567  -0.639088  0  2.326043  0
O  O63  1  0.34419703  0.12755608  0.20012049  1  0  -0.364544  -0.63906  0  2.326069  0
O  O64  1  0.35365616  0.84617384  0.81988166  1  0  -0.301882  -0.568179  0  2.266296  0
O  O65  1  0.64635419  0.15382767  0.18011438  1  0  -0.301941  -0.568271  0  2.266193  0
O  O66  1  0.00815357  0.82139305  0.79102704  1  0  -0.634074  -0.83867  0  2.135393  0
O  O67  1  0.99185485  0.17859713  0.20897086  1  0  -0.633988  -0.838456  0  2.135572  0
O  O68  1  0.81702242  0.96800928  0.00684446  1  0  -0.651488  -0.859384  0  2.147454  0
O  O69  1  0.18299746  0.03198786  0.99316015  1  0  -0.651549  -0.859237  0  2.147575  0
O  O70  1  0.08249101  0.66757962  0.99341806  1  0  -0.666014  -0.875422  0  2.096452  0
O  O71  1  0.91751151  0.33241874  0.00658482  1  0  -0.665899  -0.875205  0  2.096681  0
O  O72  1  0.48199955  0.75290855  0.02923375  1  0  -0.682306  -0.899828  0  2.105656  0
O  O73  1  0.51800002  0.24708490  0.97075944  1  0  -0.682287  -0.899722  0  2.105796  0
