# generated using pymatgen
data_Zn2H14C18N8O5
_symmetry_space_group_name_H-M   'P 1'
_cell_length_a   12.12387259
_cell_length_b   13.71574417
_cell_length_c   17.31269015
_cell_angle_alpha   89.99996991
_cell_angle_beta   92.45852018
_cell_angle_gamma   89.99990710
_symmetry_Int_Tables_number   1
_chemical_formula_structural   Zn2H14C18N8O5
_chemical_formula_sum   'Zn8 H56 C72 N32 O20'
_cell_volume   2876.24158190
_cell_formula_units_Z   4
loop_
 _symmetry_equiv_pos_site_id
 _symmetry_equiv_pos_as_xyz
  1  'x, y, z'
loop_
 _atom_site_type_symbol
 _atom_site_label
 _atom_site_symmetry_multiplicity
 _atom_site_fract_x
 _atom_site_fract_y
 _atom_site_fract_z
 _atom_site_occupancy
 _atom_site_pbe_bader_charge
 _atom_site_pbe_bader_spin_density
 _atom_site_pbe_cm5_charge
 _atom_site_pbe_ddec_charge
 _atom_site_pbe_ddec_spin_density
 _atom_site_pbe_ddec_sum_bond_order
 _atom_site_pbe_magmom
Zn  Zn0  1  0.44145854  0.47528968  0.90154003  1  1.235802  0  0.719798  0.709047  0  2.489861  0
Zn  Zn1  1  0.05854111  0.97528933  0.09846090  1  1.235782  0  0.719769  0.709014  0  2.48996  0
Zn  Zn2  1  0.55854076  0.52471116  0.09846042  1  1.2358  0  0.719784  0.709023  0  2.489876  0
Zn  Zn3  1  0.94145903  0.02471151  0.90153899  1  1.235802  0  0.719764  0.70901  0  2.489943  0
Zn  Zn4  1  0.46278065  0.90519414  0.92701980  1  1.217215  0  0.716979  0.701646  0  2.549985  0
Zn  Zn5  1  0.03721995  0.40519342  0.07298061  1  1.217216  0  0.716934  0.701561  0  2.550133  0
Zn  Zn6  1  0.53721866  0.09480670  0.07298006  1  1.217201  0  0.716938  0.701576  0  2.550151  0
Zn  Zn7  1  0.96278018  0.59480523  0.92701929  1  1.217202  0  0.716931  0.701543  0  2.550185  0
H  H8  1  0.47380114  0.69836689  0.84074360  1  0.158253  0  0.142877  0.119997  0  1.003066  0
H  H9  1  0.02620068  0.19836685  0.15925635  1  0.158246  0  0.142888  0.119994  0  1.003093  0
H  H10  1  0.52619982  0.30163322  0.15925632  1  0.158258  0  0.142887  0.119999  0  1.003073  0
H  H11  1  0.97380028  0.80163326  0.84074414  1  0.157973  0  0.142887  0.120007  0  1.003062  0
H  H12  1  0.27737949  0.38045309  0.01647312  1  0.156547  0  0.140672  0.110152  0  0.985264  0
H  H13  1  0.22262117  0.88045411  0.98352614  1  0.156554  0  0.140669  0.11015  0  0.985258  0
H  H14  1  0.72261982  0.61954702  0.98352617  1  0.156538  0  0.140668  0.110145  0  0.985255  0
H  H15  1  0.77737897  0.11954600  0.01647433  1  0.156549  0  0.14066  0.110133  0  0.985272  0
H  H16  1  0.54755166  0.29279501  0.70591379  1  0.067806  0  0.104921  0.107558  0  0.995679  0
H  H17  1  0.95244846  0.79279543  0.29408667  1  0.067838  0  0.104904  0.107592  0  0.995621  0
H  H18  1  0.45245013  0.70720583  0.29408615  1  0.067824  0  0.104935  0.107607  0  0.995642  0
H  H19  1  0.04754837  0.20720468  0.70591370  1  0.067856  0  0.104919  0.107613  0  0.995638  0
H  H20  1  0.54619540  0.21915632  0.57346690  1  0.084867  0  0.110386  0.126786  0  0.98414  0
H  H21  1  0.95380403  0.71915666  0.42653415  1  0.084858  0  0.110359  0.126739  0  0.984099  0
H  H22  1  0.45380556  0.78084452  0.42653244  1  0.084856  0  0.110377  0.126756  0  0.984129  0
H  H23  1  0.04619363  0.28084418  0.57346624  1  0.084882  0  0.110394  0.126773  0  0.984093  0
H  H24  1  0.34715310  0.45823284  0.48581234  1  0.101756  0  0.108838  0.126372  0  0.996829  0
H  H25  1  0.15284576  0.95823209  0.51418915  1  0.101716  0  0.108831  0.126365  0  0.996964  0
H  H26  1  0.65284621  0.54176946  0.51418753  1  0.10175  0  0.108852  0.126387  0  0.996949  0
H  H27  1  0.84715520  0.04176729  0.48581134  1  0.101547  0  0.108804  0.126336  0  0.996828  0
H  H28  1  0.34970992  0.53145084  0.61799759  1  0.093437  0  0.10678  0.109529  0  0.993965  0
H  H29  1  0.15028725  0.03145194  0.38200518  1  0.093753  0  0.106765  0.109514  0  0.994014  0
H  H30  1  0.65028773  0.46854781  0.38200396  1  0.093377  0  0.106765  0.10949  0  0.994031  0
H  H31  1  0.84971123  0.96854744  0.61799466  1  0.093729  0  0.106772  0.109558  0  0.993941  0
H  H32  1  0.23326818  0.26042594  0.46656036  1  0.081603  0  0.106464  0.120621  0  0.995781  0
H  H33  1  0.26673022  0.76042647  0.53344062  1  0.081633  0  0.106445  0.120596  0  0.995754  0
H  H34  1  0.76673361  0.73957490  0.53343958  1  0.081588  0  0.106441  0.120591  0  0.995804  0
H  H35  1  0.73326826  0.23957582  0.46655922  1  0.081636  0  0.106465  0.120625  0  0.995734  0
H  H36  1  0.08744325  0.29385846  0.36300197  1  0.136986  0  0.103357  0.108246  0  1.032779  0
H  H37  1  0.41255674  0.79386090  0.63699731  1  0.137001  0  0.103348  0.108248  0  1.032741  0
H  H38  1  0.91255771  0.70614019  0.63699679  1  0.136922  0  0.103354  0.108278  0  1.032809  0
H  H39  1  0.58744257  0.20613920  0.36300256  1  0.136967  0  0.103354  0.108264  0  1.03277  0
H  H40  1  0.33602875  0.39366189  0.21210843  1  0.110677  0  0.100532  0.102469  0  1.01683  0
H  H41  1  0.16397187  0.89366167  0.78789256  1  0.110657  0  0.100536  0.102485  0  1.016813  0
H  H42  1  0.66397386  0.60633458  0.78789038  1  0.110771  0  0.100571  0.102545  0  1.016761  0
H  H43  1  0.83602908  0.10633479  0.21210909  1  0.110818  0  0.100547  0.102526  0  1.016776  0
H  H44  1  0.48273833  0.36001356  0.31491618  1  0.116546  0  0.105549  0.125716  0  1.032052  0
H  H45  1  0.01726153  0.86001289  0.68508538  1  0.116563  0  0.105533  0.125726  0  1.032016  0
H  H46  1  0.51726345  0.63998655  0.68508261  1  0.116579  0  0.105545  0.125743  0  1.032022  0
H  H47  1  0.98273860  0.13998649  0.31491567  1  0.116554  0  0.10555  0.125726  0  1.032031  0
H  H48  1  0.26768740  0.58820751  0.79482828  1  0.515689  0  0.302098  0.330214  0  0.977507  0
H  H49  1  0.23231215  0.08820789  0.20517165  1  0.515693  0  0.302084  0.330211  0  0.97751  0
H  H50  1  0.73231273  0.41179332  0.20517103  1  0.515714  0  0.3021  0.330181  0  0.977505  0
H  H51  1  0.76768634  0.91179295  0.79482819  1  0.515722  0  0.302095  0.330203  0  0.97754  0
H  H52  1  0.12733012  0.62179164  0.80284013  1  0.521737  0  0.298163  0.330034  0  0.982235  0
H  H53  1  0.37267019  0.12179182  0.19715923  1  0.52166  0  0.298164  0.33004  0  0.982242  0
H  H54  1  0.87267001  0.37820846  0.19715976  1  0.521549  0  0.298132  0.329951  0  0.982222  0
H  H55  1  0.62732995  0.87820975  0.80284008  1  0.521657  0  0.298194  0.330061  0  0.982177  0
H  H56  1  0.52363497  0.72647638  0.14124824  1  0.518051  0  0.306017  0.329733  0  0.964242  0
H  H57  1  0.97636445  0.22647598  0.85875165  1  0.51805  0  0.306017  0.32972  0  0.964239  0
H  H58  1  0.47636517  0.27352445  0.85875165  1  0.518059  0  0.306012  0.329708  0  0.964278  0
H  H59  1  0.02363321  0.77352413  0.14124759  1  0.518046  0  0.30603  0.329762  0  0.964211  0
H  H60  1  0.50401411  0.83854762  0.09571504  1  0.47494  0  0.312954  0.319132  0  0.94926  0
H  H61  1  0.99598510  0.33854715  0.90428422  1  0.475072  0  0.312941  0.319111  0  0.949325  0
H  H62  1  0.49598520  0.16145249  0.90428483  1  0.47496  0  0.312965  0.319132  0  0.949275  0
H  H63  1  0.00401339  0.66145223  0.09571562  1  0.475061  0  0.312962  0.319146  0  0.949204  0
C  C64  1  0.48671747  0.68977235  0.90278432  1  1.038692  0  0.152318  0.169106  0  3.972068  0
C  C65  1  0.01328271  0.18977238  0.09721559  1  1.038702  0  0.152301  0.169107  0  3.972143  0
C  C66  1  0.51328266  0.31022848  0.09721558  1  1.038692  0  0.152325  0.169137  0  3.97218  0
C  C67  1  0.98671825  0.81022846  0.90278490  1  1.038971  0  0.15233  0.16914  0  3.972224  0
C  C68  1  0.51005832  0.72111471  0.02409208  1  1.569048  0  0.32567  0.529127  0  4.11406  0
C  C69  1  0.98994193  0.22111421  0.97590727  1  1.56905  0  0.325718  0.529139  0  4.114063  0
C  C70  1  0.48994182  0.27888759  0.97590839  1  1.569043  0  0.325749  0.529261  0  4.113902  0
C  C71  1  0.01005820  0.77888590  0.02409263  1  1.569058  0  0.325722  0.529209  0  4.113974  0
C  C72  1  0.19202905  0.53245920  0.88658159  1  1.537812  0  0.329913  0.545991  0  4.097612  0
C  C73  1  0.30797142  0.03246025  0.11341839  1  1.5377  0  0.329939  0.545998  0  4.097683  0
C  C74  1  0.80797025  0.46754164  0.11341770  1  1.537695  0  0.3299  0.54597  0  4.097779  0
C  C75  1  0.69202871  0.96754132  0.88658150  1  1.537812  0  0.329859  0.545941  0  4.097606  0
C  C76  1  0.23248266  0.42982745  0.97758595  1  1.02082  0  0.145711  0.16468  0  4.005483  0
C  C77  1  0.26751790  0.92982977  0.02241214  1  1.020829  0  0.14569  0.164626  0  4.005449  0
C  C78  1  0.76751747  0.57017193  0.02241336  1  1.020819  0  0.145664  0.164632  0  4.005449  0
C  C79  1  0.73248141  0.07017180  0.97758715  1  1.020823  0  0.145711  0.164672  0  4.005455  0
C  C80  1  0.44240650  0.45767712  0.74933881  1  1.523013  0  0.204047  0.572244  0  4.193683  0
C  C81  1  0.05759483  0.95768105  0.25066333  1  1.522991  0  0.203988  0.57229  0  4.19377  0
C  C82  1  0.55759446  0.54232007  0.25065937  1  1.522941  0  0.204011  0.572284  0  4.193664  0
C  C83  1  0.94240448  0.04231906  0.74933827  1  1.523008  0  0.204003  0.572295  0  4.193683  0
C  C84  1  0.44698694  0.41590835  0.67055643  1  0.007078  0  -0.034164  -0.076425  0  4.027619  0
C  C85  1  0.05301448  0.91591151  0.32944285  1  0.007211  0  -0.034087  -0.076346  0  4.027394  0
C  C86  1  0.55301320  0.58409103  0.32944231  1  0.007095  0  -0.034136  -0.076422  0  4.027435  0
C  C87  1  0.94698318  0.08408787  0.67055697  1  0.00721  0  -0.034047  -0.076189  0  4.027321  0
C  C88  1  0.50358083  0.32843804  0.65755177  1  -0.036951  0  -0.08325  -0.067223  0  4.003799  0
C  C89  1  0.99641840  0.82843982  0.34244981  1  -0.03681  0  -0.083241  -0.067344  0  4.003664  0
C  C90  1  0.49642096  0.67156207  0.34244933  1  -0.036914  0  -0.083266  -0.067322  0  4.003834  0
C  C91  1  0.00357926  0.17156102  0.65755001  1  -0.036775  0  -0.083291  -0.067478  0  4.003702  0
C  C92  1  0.50340019  0.28740638  0.58418277  1  0.000634  0  -0.102991  -0.208821  0  4.002684  0
C  C93  1  0.99659994  0.78740739  0.41581943  1  0.00059  0  -0.102986  -0.20874  0  4.002678  0
C  C94  1  0.49660077  0.71259518  0.41581773  1  0.000523  0  -0.103023  -0.208797  0  4.00279  0
C  C95  1  0.00339855  0.21259272  0.58418041  1  0.00051  0  -0.103001  -0.208719  0  4.002659  0
C  C96  1  0.44511952  0.33357893  0.52284222  1  0.400835  0  0.091302  0.272506  0  4.047836  0
C  C97  1  0.05488039  0.83357761  0.47715820  1  0.40078  0  0.091287  0.272518  0  4.047835  0
C  C98  1  0.55488061  0.66642264  0.47715710  1  0.400907  0  0.091321  0.272517  0  4.047836  0
C  C99  1  0.94511892  0.16642177  0.52284167  1  0.400836  0  0.091301  0.272485  0  4.047784  0
C  C100  1  0.39024047  0.42207726  0.53430179  1  -0.004296  0  -0.105277  -0.218242  0  4.00995  0
C  C101  1  0.10975680  0.92207733  0.46570083  1  -0.004321  0  -0.105206  -0.218183  0  4.00992  0
C  C102  1  0.60975966  0.57792285  0.46570042  1  -0.004358  0  -0.105264  -0.218232  0  4.010002  0
C  C103  1  0.89024416  0.07792278  0.53430082  1  -0.004089  0  -0.10523  -0.218166  0  4.009797  0
C  C104  1  0.39192437  0.46267948  0.60792316  1  -0.060822  0  -0.078986  -0.059881  0  3.984735  0
C  C105  1  0.10807365  0.96268033  0.39208003  1  -0.061243  0  -0.079037  -0.059915  0  3.984678  0
C  C106  1  0.60807412  0.53732063  0.39207957  1  -0.060694  0  -0.079018  -0.059859  0  3.984702  0
C  C107  1  0.89192565  0.03731905  0.60792157  1  -0.061298  0  -0.079024  -0.059997  0  3.984748  0
C  C108  1  0.36520957  0.30986395  0.39616022  1  0.339963  0  0.084208  0.256554  0  4.039256  0
C  C109  1  0.13479039  0.80986389  0.60384136  1  0.339976  0  0.084185  0.25648  0  4.039343  0
C  C110  1  0.63479222  0.69013616  0.60383914  1  0.339972  0  0.084176  0.256564  0  4.039307  0
C  C111  1  0.86520974  0.19013622  0.39615969  1  0.339974  0  0.084196  0.256524  0  4.039392  0
C  C112  1  0.25485471  0.28990958  0.41069577  1  0.016533  0  -0.101771  -0.206158  0  4.005948  0
C  C113  1  0.24514446  0.78990938  0.58930522  1  0.016551  0  -0.101741  -0.206051  0  4.00598  0
C  C114  1  0.74514625  0.71009053  0.58930357  1  0.016555  0  -0.10175  -0.206126  0  4.005898  0
C  C115  1  0.75485485  0.21009073  0.41069349  1  0.016508  0  -0.101796  -0.206175  0  4.006055  0
C  C116  1  0.17397042  0.30851893  0.35310173  1  -0.022706  0  -0.083582  -0.071435  0  3.975899  0
C  C117  1  0.32602872  0.80852003  0.64689809  1  -0.022727  0  -0.083579  -0.071496  0  3.975978  0
C  C118  1  0.82603384  0.69148045  0.64689828  1  -0.022789  0  -0.083595  -0.071544  0  3.975865  0
C  C119  1  0.67396977  0.19147935  0.35310117  1  -0.022744  0  -0.083588  -0.071495  0  3.976095  0
C  C120  1  0.20315089  0.34656645  0.28152306  1  -0.038262  0  -0.027842  -0.056347  0  3.988653  0
C  C121  1  0.29684900  0.84656536  0.71847735  1  -0.038317  0  -0.027823  -0.056309  0  3.988702  0
C  C122  1  0.79685090  0.65343366  0.71847457  1  -0.038539  0  -0.027768  -0.056145  0  3.988451  0
C  C123  1  0.70315113  0.15343257  0.28152370  1  -0.038225  0  -0.027794  -0.056267  0  3.988622  0
C  C124  1  0.31455368  0.36439916  0.26797121  1  -0.10476  0  -0.081992  -0.060527  0  3.960246  0
C  C125  1  0.18544618  0.86439822  0.73202977  1  -0.10477  0  -0.082028  -0.060576  0  3.960271  0
C  C126  1  0.68544810  0.63559876  0.73202758  1  -0.104913  0  -0.082059  -0.060658  0  3.960215  0
C  C127  1  0.81455313  0.13559824  0.26797067  1  -0.104799  0  -0.082018  -0.060578  0  3.960172  0
C  C128  1  0.39617468  0.34594657  0.32508506  1  0.030158  0  -0.098256  -0.191492  0  3.982212  0
C  C129  1  0.10382439  0.84594651  0.67491648  1  0.030104  0  -0.098222  -0.191446  0  3.982096  0
C  C130  1  0.60382711  0.65405208  0.67491430  1  0.030263  0  -0.098285  -0.191564  0  3.982216  0
C  C131  1  0.89617410  0.15405287  0.32508509  1  0.030036  0  -0.098263  -0.191509  0  3.982204  0
C  C132  1  0.11604314  0.36621694  0.21995001  1  1.525919  0  0.198992  0.567542  0  4.217338  0
C  C133  1  0.38395672  0.86621641  0.78005039  1  1.525978  0  0.199012  0.567563  0  4.21729  0
C  C134  1  0.88395947  0.63378098  0.78004938  1  1.526235  0  0.198984  0.567493  0  4.217364  0
C  C135  1  0.61604094  0.13378224  0.21995058  1  1.525951  0  0.199008  0.567635  0  4.217272  0
N  N136  1  0.27702624  0.47728822  0.91785040  1  -1.253776  0  -0.370734  -0.422917  0  3.459982  0
N  N137  1  0.22297258  0.97729057  0.08214877  1  -1.253636  0  -0.370731  -0.422894  0  3.459886  0
N  N138  1  0.72297389  0.52271116  0.08214891  1  -1.253676  0  -0.370704  -0.422901  0  3.460025  0
N  N139  1  0.77702673  0.02271173  0.91785110  1  -1.253741  0  -0.370717  -0.422903  0  3.459817  0
N  N140  1  0.09931670  0.51701641  0.92574144  1  -0.813164  0  -0.295813  -0.344656  0  3.463782  0
N  N141  1  0.40068215  0.01701809  0.07425792  1  -0.813177  0  -0.295808  -0.344697  0  3.463832  0
N  N142  1  0.90068343  0.48298443  0.07425845  1  -0.813155  0  -0.295792  -0.344695  0  3.463834  0
N  N143  1  0.59931633  0.98298421  0.92574134  1  -0.813179  0  -0.295817  -0.344739  0  3.463691  0
N  N144  1  0.12727892  0.45149095  0.98460125  1  -0.854994  0  -0.281507  -0.221988  0  3.58821  0
N  N145  1  0.37272077  0.95149312  0.01539796  1  -0.854998  0  -0.281522  -0.221932  0  3.588266  0
N  N146  1  0.87272204  0.54850916  0.01539867  1  -0.855021  0  -0.28151  -0.221919  0  3.588232  0
N  N147  1  0.62727771  0.04850917  0.98460189  1  -0.855033  0  -0.281516  -0.221916  0  3.588114  0
N  N148  1  0.19991991  0.59530159  0.82768969  1  -1.327105  0  -0.579796  -0.663636  0  3.276543  0
N  N149  1  0.30007963  0.09530261  0.17230909  1  -1.327038  0  -0.579785  -0.663637  0  3.276613  0
N  N150  1  0.80008023  0.40469925  0.17230847  1  -1.326886  0  -0.579769  -0.663505  0  3.276545  0
N  N151  1  0.69991885  0.90469895  0.82769018  1  -1.327026  0  -0.579771  -0.663575  0  3.276595  0
N  N152  1  0.51028812  0.62357206  0.01672066  1  -0.869463  0  -0.284883  -0.332264  0  3.419909  0
N  N153  1  0.98971231  0.12357228  0.98327815  1  -0.869311  0  -0.284873  -0.332244  0  3.419902  0
N  N154  1  0.48971201  0.37642732  0.98327923  1  -0.869347  0  -0.28489  -0.332293  0  3.419932  0
N  N155  1  0.01028865  0.87642782  0.01672119  1  -0.869308  0  -0.2849  -0.332308  0  3.419949  0
N  N156  1  0.49532989  0.76493267  0.95361245  1  -1.256088  0  -0.370546  -0.420822  0  3.476812  0
N  N157  1  0.00466933  0.26493274  0.04638798  1  -1.256077  0  -0.370577  -0.420857  0  3.476854  0
N  N158  1  0.50466942  0.23506744  0.04638742  1  -1.256072  0  -0.370588  -0.420906  0  3.476843  0
N  N159  1  0.99532915  0.73506591  0.95361186  1  -1.256046  0  -0.370582  -0.420912  0  3.476859  0
N  N160  1  0.49621176  0.60451119  0.93814827  1  -0.824982  0  -0.277218  -0.213855  0  3.59209  0
N  N161  1  0.00378858  0.10451126  0.06185225  1  -0.825121  0  -0.277211  -0.213838  0  3.592054  0
N  N162  1  0.50378837  0.39548819  0.06185162  1  -0.825145  0  -0.277239  -0.213879  0  3.592193  0
N  N163  1  0.99621238  0.89548812  0.93814824  1  -0.825139  0  -0.277233  -0.213861  0  3.592197  0
N  N164  1  0.52823407  0.76804687  0.09241265  1  -1.301605  0  -0.583396  -0.660011  0  3.260123  0
N  N165  1  0.97176774  0.26804717  0.90758730  1  -1.301729  0  -0.583413  -0.659966  0  3.260182  0
N  N166  1  0.47176689  0.23195397  0.90758727  1  -1.301573  0  -0.583433  -0.660031  0  3.260041  0
N  N167  1  0.02823074  0.73195294  0.09241370  1  -1.301717  0  -0.583435  -0.66005  0  3.260014  0
O  O168  1  0.44877991  0.28933345  0.45167603  1  -1.097364  0  -0.151383  -0.216723  0  2.554107  0
O  O169  1  0.05121761  0.78933355  0.54832491  1  -1.097384  0  -0.151391  -0.216778  0  2.554111  0
O  O170  1  0.55122188  0.71066885  0.54832507  1  -1.09737  0  -0.151363  -0.216733  0  2.554075  0
O  O171  1  0.94877922  0.21066729  0.45167488  1  -1.097385  0  -0.151388  -0.216732  0  2.554086  0
O  O172  1  0.01669597  0.34524695  0.23016268  1  -1.190163  0  -0.322377  -0.5637  0  2.161143  0
O  O173  1  0.48330474  0.84524920  0.76983660  1  -1.190161  0  -0.322396  -0.563738  0  2.161095  0
O  O174  1  0.98330581  0.65475170  0.76983726  1  -1.190222  0  -0.322349  -0.563692  0  2.161225  0
O  O175  1  0.51669456  0.15475237  0.23016269  1  -1.190214  0  -0.322377  -0.563755  0  2.161222  0
O  O176  1  0.15067377  0.40336038  0.15609813  1  -1.164802  0  -0.348515  -0.558531  0  2.321865  0
O  O177  1  0.34932519  0.90335695  0.84390281  1  -1.164801  0  -0.348554  -0.558583  0  2.321822  0
O  O178  1  0.84932719  0.59663681  0.84390121  1  -1.16476  0  -0.348529  -0.558534  0  2.321838  0
O  O179  1  0.65067247  0.09663879  0.15609759  1  -1.164775  0  -0.348541  -0.558619  0  2.321737  0
O  O180  1  0.40317261  0.54146042  0.76052138  1  -1.20461  0  -0.315675  -0.560177  0  2.17865  0
O  O181  1  0.09682950  0.04146169  0.23948153  1  -1.204728  0  -0.31557  -0.560097  0  2.178611  0
O  O182  1  0.59683000  0.45853823  0.23947974  1  -1.20459  0  -0.315611  -0.560126  0  2.178564  0
O  O183  1  0.90317064  0.95853623  0.76051836  1  -1.204757  0  -0.315609  -0.560149  0  2.178617  0
O  O184  1  0.47977210  0.40381124  0.80699298  1  -1.176534  0  -0.338536  -0.559066  0  2.304298  0
O  O185  1  0.02022768  0.90381453  0.19300856  1  -1.17639  0  -0.338547  -0.559157  0  2.304397  0
O  O186  1  0.52022968  0.59618668  0.19300812  1  -1.176476  0  -0.33853  -0.55909  0  2.304436  0
O  O187  1  0.97976998  0.09618630  0.80699126  1  -1.176408  0  -0.338538  -0.559157  0  2.304403  0
