# generated using pymatgen
data_Al2H22(C11O4)3
_symmetry_space_group_name_H-M   'P 1'
_cell_length_a   6.65342118
_cell_length_b   19.59703019
_cell_length_c   22.42534620
_cell_angle_alpha   83.71886314
_cell_angle_beta   86.07557514
_cell_angle_gamma   87.39140265
_symmetry_Int_Tables_number   1
_chemical_formula_structural   Al2H22(C11O4)3
_chemical_formula_sum   'Al4 H44 C66 O24'
_cell_volume   2897.48022834
_cell_formula_units_Z   2
loop_
 _symmetry_equiv_pos_site_id
 _symmetry_equiv_pos_as_xyz
  1  'x, y, z'
loop_
 _atom_site_type_symbol
 _atom_site_label
 _atom_site_symmetry_multiplicity
 _atom_site_fract_x
 _atom_site_fract_y
 _atom_site_fract_z
 _atom_site_occupancy
 _atom_site_pbe_bader_charge
 _atom_site_pbe_bader_spin_density
 _atom_site_pbe_cm5_charge
 _atom_site_pbe_ddec_charge
 _atom_site_pbe_ddec_spin_density
 _atom_site_pbe_ddec_sum_bond_order
 _atom_site_pbe_magmom
Al  Al0  1  0.75528261  0.25193045  0.74967758  1  2.500279  0  0.401045  1.638395  0  2.579631  0
Al  Al1  1  0.27364272  0.75319336  0.25305257  1  2.498649  0  0.401155  1.639277  0  2.577073  0
Al  Al2  1  0.25593563  0.24908466  0.74855112  1  2.502588  0  0.401716  1.640121  0  2.573338  0
Al  Al3  1  0.77476474  0.75342069  0.25074597  1  2.502112  0  0.403009  1.644067  0  2.57201  0
H  H4  1  0.00746033  0.85248472  0.61158061  1  0.087498  0  0.109916  0.127846  0  0.988841  0
H  H5  1  0.81632422  0.14598720  0.39584160  1  0.118341  0  0.110388  0.12464  0  0.994606  0
H  H6  1  0.04243650  0.86837764  0.41464132  1  0.11416  0  0.109668  0.109961  0  1.051921  0
H  H7  1  0.91555479  0.13643903  0.59284435  1  0.118839  0  0.109719  0.106264  0  1.080763  0
H  H8  1  0.88661811  0.98499989  0.24950650  1  0.080821  0  0.110767  0.114636  0  0.9812  0
H  H9  1  0.15982183  0.01590178  0.74404624  1  0.067068  0  0.10888  0.112451  0  0.984613  0
H  H10  1  0.12636970  0.90951868  0.69405351  1  0.052218  0  0.10213  0.102528  0  0.993907  0
H  H11  1  0.84033771  0.09083683  0.30248774  1  0.080569  0  0.103842  0.104716  0  0.991456  0
H  H12  1  0.21316033  0.62655112  0.91100562  1  0.05085  0  0.100407  0.100966  0  0.996757  0
H  H13  1  0.65233813  0.35874249  0.10887004  1  0.061633  0  0.101929  0.101482  0  0.993567  0
H  H14  1  0.62946819  0.52150068  0.25149064  1  0.056715  0  0.111696  0.116256  0  0.976957  0
H  H15  1  0.23325980  0.46114572  0.77082992  1  0.107816  0  0.112  0.117206  0  0.983046  0
H  H16  1  0.17152420  0.56570615  0.82498827  1  0.066357  0  0.102836  0.104908  0  0.995157  0
H  H17  1  0.66229556  0.41524894  0.19889534  1  0.033205  0  0.103196  0.10427  0  0.996096  0
H  H18  1  0.34367616  0.63308709  0.00993135  1  0.115096  0  0.104702  0.107932  0  1.041178  0
H  H19  1  0.60581279  0.36128885  0.00127970  1  0.154491  0  0.106389  0.111543  0  1.043984  0
H  H20  1  0.76411593  0.78448779  0.45802864  1  0.071156  0  0.107183  0.079552  0  0.958337  0
H  H21  1  0.69127309  0.87322624  0.44777587  1  0.058997  0  0.095845  0.059115  0  1.016039  0
H  H22  1  0.60487506  0.77807269  0.56378798  1  0.042769  0  0.091026  0.086246  0  0.971157  0
H  H23  1  0.52825415  0.86609530  0.55134282  1  0.026396  0  0.088997  0.083687  0  0.980488  0
H  H24  1  0.32793629  0.84199692  0.46559702  1  0.023377  0  0.08369  0.110969  0  1.016686  0
H  H25  1  0.24553546  0.79048327  0.53153786  1  0.04883  0  0.08687  0.120422  0  1.029583  0
H  H26  1  0.40453406  0.75380519  0.47579408  1  0.035032  0  0.08676  0.112765  0  0.998741  0
H  H27  1  0.64410898  0.21089636  0.55940114  1  0.046474  0  0.110636  0.08427  0  0.950684  0
H  H28  1  0.58561697  0.12243361  0.56363641  1  0.033325  0  0.098138  0.060536  0  0.983387  0
H  H29  1  0.53026659  0.22790267  0.45364941  1  0.024939  0  0.090654  0.084049  0  0.974215  0
H  H30  1  0.45796942  0.14126556  0.46103375  1  0.014355  0  0.088591  0.082278  0  0.988171  0
H  H31  1  0.22000922  0.16397768  0.54997151  1  0.016205  0  0.081242  0.109599  0  1.039655  0
H  H32  1  0.15592615  0.21706123  0.48481288  1  0.056654  0  0.087442  0.122996  0  1.015248  0
H  H33  1  0.28475986  0.25144586  0.54106787  1  0.028855  0  0.083705  0.111032  0  1.007215  0
H  H34  1  0.73451387  0.64165677  0.00865131  1  0.028925  0  0.093773  0.049279  0  1.002642  0
H  H35  1  0.83022274  0.67277131  0.07269016  1  0.043549  0  0.099659  0.061247  0  0.966365  0
H  H36  1  0.64230640  0.78572146  0.04975936  1  0.04854  0  0.088196  0.12544  0  1.033211  0
H  H37  1  0.80584590  0.76642818  0.98737670  1  0.031125  0  0.095634  0.128473  0  0.989431  0
H  H38  1  0.54217622  0.75472196  0.98645744  1  0.053791  0  0.091623  0.124062  0  0.996486  0
H  H39  1  0.88982615  0.43268453  0.91115242  1  0.050438  0  0.092949  0.049066  0  0.995126  0
H  H40  1  0.90653611  0.38368310  0.84780847  1  0.074669  0  0.10147  0.069984  0  0.991626  0
H  H41  1  0.97053186  0.27583485  0.91934893  1  0.020886  0  0.092514  0.122985  0  0.999804  0
H  H42  1  0.15954030  0.33736686  0.91913856  1  0.062335  0  0.092584  0.129991  0  1.013924  0
H  H43  1  0.97152485  0.32788427  0.97959191  1  0.049875  0  0.090169  0.121352  0  1.003597  0
H  H44  1  0.53346546  0.20525740  0.68641135  1  0.613549  0  0.351125  0.429737  0  0.862231  0
H  H45  1  0.50507060  0.78677245  0.32187443  1  0.628897  0  0.356272  0.434873  0  0.846845  0
H  H46  1  0.99218470  0.23864602  0.82779915  1  0.634585  0  0.350129  0.427333  0  0.865773  0
H  H47  1  0.05173512  0.71354707  0.18572909  1  0.616952  0  0.355673  0.434947  0  0.848321  0
C  C48  1  0.46968609  0.35199629  0.79974462  1  1.58774  0  0.27397  0.664644  0  4.074401  0
C  C49  1  0.55545970  0.65138724  0.20097384  1  1.602792  0  0.280529  0.68453  0  4.06759  0
C  C50  1  0.50332896  0.17065933  0.84033400  1  1.693979  0  0.272893  0.697623  0  4.182567  0
C  C51  1  0.52180882  0.83630696  0.16454172  1  1.707138  0  0.274321  0.688076  0  4.197308  0
C  C52  1  0.03424105  0.14648214  0.69988928  1  1.591751  0  0.272519  0.660557  0  4.071879  0
C  C53  1  0.99222021  0.85662648  0.30016066  1  1.563731  0  0.27865  0.663717  0  4.071592  0
C  C54  1  0.00737934  0.33120845  0.66104273  1  1.703167  0  0.277995  0.692917  0  4.189029  0
C  C55  1  0.02063575  0.67167008  0.34094302  1  1.689741  0  0.272071  0.691085  0  4.195737  0
C  C56  1  0.01650761  0.38246507  0.60984049  1  0.218956  0  0.003428  -0.13222  0  3.826588  0
C  C57  1  0.00989099  0.61876385  0.39096796  1  0.20975  0  0.001698  -0.128612  0  3.824745  0
C  C58  1  0.01554175  0.42751757  0.56732587  1  -0.307947  0  -0.007102  0.026763  0  4.255967  0
C  C59  1  0.00909062  0.57300745  0.43294732  1  -0.298159  0  -0.010624  0.020843  0  4.260496  0
C  C60  1  0.01320831  0.47708671  0.52110225  1  0.06725  0  -0.001  -0.004757  0  4.191119  0
C  C61  1  0.01011218  0.52299513  0.47883319  1  -0.119104  0  -0.000242  -0.001826  0  4.192824  0
C  C62  1  0.03304826  0.08187306  0.67067788  1  -0.024744  0  -0.019657  -0.040123  0  4.008664  0
C  C63  1  0.96956197  0.92100797  0.33001057  1  -0.02139  0  -0.016311  -0.037557  0  4.009442  0
C  C64  1  0.08398948  0.95984884  0.67159425  1  -0.065633  0  -0.092785  -0.136725  0  3.997385  0
C  C65  1  0.87814767  0.04124959  0.32706382  1  -0.1059  0  -0.089279  -0.13144  0  3.997448  0
C  C66  1  0.10098696  0.01836826  0.69963598  1  -0.052047  0  -0.087057  -0.100188  0  4.01266  0
C  C67  1  0.90694347  0.98326255  0.29747560  1  -0.001255  0  -0.085908  -0.101738  0  4.009694  0
C  C68  1  0.96155350  0.08628048  0.61367449  1  -0.060354  0  -0.088707  -0.160455  0  3.974776  0
C  C69  1  0.99131676  0.91685598  0.39126299  1  -0.026902  0  -0.08675  -0.158496  0  3.968834  0
C  C70  1  0.95925886  0.02831197  0.58136432  1  0.010061  0  -0.006046  0.039243  0  3.945815  0
C  C71  1  0.93782628  0.97348839  0.42409778  1  -0.019912  0  -0.007095  0.036781  0  3.957829  0
C  C72  1  0.01410427  0.96326478  0.61297390  1  0.046659  0  -0.007927  0.095191  0  4.041666  0
C  C73  1  0.89172803  0.03769411  0.39016608  1  -0.00653  0  -0.008996  0.094278  0  4.046682  0
C  C74  1  0.91568740  0.03126574  0.51843024  1  0.027484  0  -0.004001  -0.051551  0  3.915376  0
C  C75  1  0.93252970  0.96971428  0.48907111  1  -0.000967  0  -0.006827  -0.057957  0  3.926507  0
C  C76  1  0.94479118  0.90501915  0.52674656  1  0.460531  0  0.085233  0.216937  0  4.046335  0
C  C77  1  0.86585625  0.09438787  0.48186180  1  0.495574  0  0.08474  0.218628  0  4.039026  0
C  C78  1  0.99123264  0.90257219  0.58556968  1  -0.037212  0  -0.102209  -0.258775  0  4.006536  0
C  C79  1  0.85466936  0.09675742  0.42082969  1  -0.075534  0  -0.099549  -0.253476  0  4.009813  0
C  C80  1  0.43770639  0.41251885  0.83462133  1  -0.052417  0  -0.022006  -0.152802  0  3.97829  0
C  C81  1  0.56565150  0.58717340  0.17041677  1  0.03599  0  -0.020986  -0.140629  0  3.995376  0
C  C82  1  0.26649074  0.52263803  0.84321150  1  -0.030736  0  -0.097251  -0.154056  0  4.030337  0
C  C83  1  0.62398033  0.46486706  0.17449051  1  -0.006314  0  -0.095207  -0.146702  0  4.0201  0
C  C84  1  0.30262993  0.46573679  0.81275778  1  -0.029644  0  -0.083904  -0.079969  0  4.035828  0
C  C85  1  0.60697772  0.52338836  0.20362866  1  -0.009434  0  -0.085672  -0.086181  0  4.0292  0
C  C86  1  0.52560940  0.41545222  0.88920848  1  0.510886  0  0.098107  0.200718  0  3.996703  0
C  C87  1  0.53918558  0.59165757  0.10909368  1  0.471302  0  0.088083  0.183686  0  4.003844  0
C  C88  1  0.46878302  0.46955192  0.92582171  1  0.003845  0  -0.008254  -0.073661  0  3.909763  0
C  C89  1  0.53916959  0.53147317  0.07855052  1  -0.002931  0  -0.007304  -0.066309  0  3.919613  0
C  C90  1  0.34744217  0.52569495  0.89958272  1  -0.027587  0  -0.008198  0.09322  0  4.044754  0
C  C91  1  0.59257079  0.46777552  0.11247169  1  -0.03133  0  -0.008604  0.090194  0  4.041514  0
C  C92  1  0.52108517  0.46986219  0.98772391  1  0.015025  0  -0.001252  0.05161  0  3.934603  0
C  C93  1  0.48543165  0.53075639  0.01691186  1  -0.026727  0  -0.005044  0.039078  0  3.946877  0
C  C94  1  0.37756141  0.58766871  0.98673708  1  -0.063106  0  -0.095485  -0.131847  0  4.029314  0
C  C95  1  0.58677485  0.40843079  0.02262964  1  -0.07245  0  -0.095878  -0.13433  0  4.020269  0
C  C96  1  0.30566990  0.58407843  0.93155074  1  -0.07304  0  -0.095807  -0.140147  0  4.035685  0
C  C97  1  0.61346794  0.40719730  0.08261539  1  -0.046869  0  -0.092825  -0.13247  0  4.029642  0
C  C98  1  0.49705293  0.12039492  0.89222642  1  0.203846  0  -0.001375  -0.136098  0  3.831734  0
C  C99  1  0.52665280  0.89030934  0.11537834  1  0.149565  0  0.005782  -0.126182  0  3.831165  0
C  C100  1  0.50073238  0.07701028  0.93596400  1  -0.311478  0  -0.010621  0.024859  0  4.265981  0
C  C101  1  0.52126109  0.93582191  0.07331930  1  -0.281067  0  -0.008604  0.020746  0  4.258715  0
C  C102  1  0.50658340  0.02915226  0.98339384  1  0.101028  0  -0.002324  -0.006449  0  4.200102  0
C  C103  1  0.51410785  0.98470873  0.02670476  1  -0.094373  0  -0.00033  -0.001965  0  4.198003  0
C  C104  1  0.73225757  0.83063676  0.48148884  1  0.366421  0  -0.068127  0.028739  0  3.899997  0
C  C105  1  0.56045463  0.81903201  0.52905574  1  -0.041564  0  -0.17193  -0.139884  0  4.002001  0
C  C106  1  0.37445408  0.80010608  0.49915024  1  -0.073641  0  -0.247553  -0.353592  0  3.970198  0
C  C107  1  0.62998227  0.16772547  0.53261648  1  0.384282  0  -0.064292  0.033565  0  3.882224  0
C  C108  1  0.47493373  0.18565200  0.48619460  1  0.015149  0  -0.17251  -0.140829  0  4.009732  0
C  C109  1  0.27291978  0.20596283  0.51697920  1  -0.07289  0  -0.24959  -0.350953  0  3.955271  0
C  C110  1  0.70307728  0.67734726  0.04320227  1  0.408489  0  -0.06723  0.085872  0  3.910186  0
C  C111  1  0.67033132  0.75033588  0.01520374  1  -0.068191  0  -0.244295  -0.392159  0  3.97561  0
C  C112  1  0.87051154  0.38155751  0.89659863  1  0.383087  0  -0.066756  0.087882  0  3.878121  0
C  C113  1  0.99984297  0.32741248  0.93082167  1  -0.087415  0  -0.24202  -0.383369  0  3.953537  0
O  O114  1  0.33513411  0.19746181  0.82396324  1  -1.227452  0  -0.227777  -0.583258  0  2.28302  0
O  O115  1  0.68925310  0.80604333  0.17726841  1  -1.228292  0  -0.225416  -0.57424  0  2.282516  0
O  O116  1  0.64343193  0.32267981  0.79479776  1  -1.257631  0  -0.226376  -0.585765  0  2.376327  0
O  O117  1  0.38460379  0.68244276  0.20670937  1  -1.260858  0  -0.227471  -0.592296  0  2.338234  0
O  O118  1  0.83309508  0.32165887  0.68675005  1  -1.21502  0  -0.218117  -0.554828  0  2.278064  0
O  O119  1  0.19691963  0.68346067  0.31745135  1  -1.208653  0  -0.224044  -0.567157  0  2.282217  0
O  O120  1  0.67851378  0.18326821  0.81617864  1  -1.220724  0  -0.22682  -0.576663  0  2.278619  0
O  O121  1  0.34790639  0.82415957  0.18953895  1  -1.217723  0  -0.220731  -0.560842  0  2.282405  0
O  O122  1  0.86819562  0.18178916  0.70165181  1  -1.272332  0  -0.238974  -0.611875  0  2.342295  0
O  O123  1  0.16097150  0.82321726  0.30029648  1  -1.263624  0  -0.233577  -0.595556  0  2.315337  0
O  O124  1  0.31263785  0.33341387  0.77713127  1  -1.255788  0  -0.23273  -0.587973  0  2.330895  0
O  O125  1  0.71881598  0.66963225  0.21996571  1  -1.263685  0  -0.231604  -0.593436  0  2.304642  0
O  O126  1  0.51581281  0.24030659  0.71395365  1  -1.416668  0  -0.446001  -0.989866  0  2.185281  0
O  O127  1  0.51671132  0.76048671  0.28753000  1  -1.429604  0  -0.445227  -0.989761  0  2.193392  0
O  O128  1  0.19911040  0.16272951  0.71958864  1  -1.259519  0  -0.239338  -0.599889  0  2.297358  0
O  O129  1  0.83398095  0.83862849  0.27801020  1  -1.260706  0  -0.23167  -0.590534  0  2.319345  0
O  O130  1  0.17224199  0.30035616  0.67549191  1  -1.226308  0  -0.22173  -0.569175  0  2.291575  0
O  O131  1  0.85491028  0.70139840  0.32563049  1  -1.229352  0  -0.230587  -0.584547  0  2.283998  0
O  O132  1  0.99783073  0.25526116  0.78539120  1  -1.43785  0  -0.4478  -0.990466  0  2.201865  0
O  O133  1  0.03457424  0.74519778  0.21622891  1  -1.416597  0  -0.446129  -0.989029  0  2.185183  0
O  O134  1  0.92214143  0.84257541  0.50567356  1  -1.07873  0  -0.19666  -0.235682  0  2.567965  0
O  O135  1  0.83194471  0.15594942  0.50615944  1  -1.070124  0  -0.203698  -0.245231  0  2.554268  0
O  O136  1  0.52152543  0.65734877  0.07959299  1  -1.063085  0  -0.202496  -0.239766  0  2.498049  0
O  O137  1  0.66001620  0.36373030  0.90848659  1  -1.072887  0  -0.203674  -0.243413  0  2.527499  0
