# generated using pymatgen
data_NdP4H20Ru2(CO5)4
_symmetry_space_group_name_H-M   'P 1'
_cell_length_a   9.62259443
_cell_length_b   9.62436194
_cell_length_c   15.62500000
_cell_angle_alpha   92.91613153
_cell_angle_beta   92.91666764
_cell_angle_gamma   99.10316044
_symmetry_Int_Tables_number   1
_chemical_formula_structural   NdP4H20Ru2(CO5)4
_chemical_formula_sum   'Nd2 P8 H40 Ru4 C8 O40'
_cell_volume   1424.42587020
_cell_formula_units_Z   2
loop_
 _symmetry_equiv_pos_site_id
 _symmetry_equiv_pos_as_xyz
  1  'x, y, z'
loop_
 _atom_site_type_symbol
 _atom_site_label
 _atom_site_symmetry_multiplicity
 _atom_site_fract_x
 _atom_site_fract_y
 _atom_site_fract_z
 _atom_site_occupancy
 _atom_site_pbe_bader_charge
 _atom_site_pbe_bader_spin_density
 _atom_site_pbe_cm5_charge
 _atom_site_pbe_ddec_charge
 _atom_site_pbe_ddec_spin_density
 _atom_site_pbe_ddec_sum_bond_order
 _atom_site_pbe_magmom
Nd  Nd0  1  0.99197395  0.00802643  0.74998216  1  2.293785  -0.000189  1.514811  2.282721  -0.000344  1.972151  0.0
Nd  Nd1  1  0.00803086  0.99197955  0.25001703  1  2.293902  -0.000189  1.514797  2.282667  -0.000345  1.972246  0.0
P  P2  1  0.05987339  0.34522809  0.63944898  1  3.258538  0.00314  0.321223  1.163439  0.00241  5.453185  0.005
P  P3  1  0.65479431  0.94012824  0.86055447  1  3.259044  0.00314  0.321403  1.16396  0.002409  5.452878  0.005
P  P4  1  0.94012311  0.65477157  0.36054911  1  3.258702  0.00314  0.321289  1.1639  0.002409  5.452916  0.005
P  P5  1  0.34520689  0.05986825  0.13944559  1  3.258844  0.003141  0.32131  1.163769  0.002409  5.453234  0.005
P  P6  1  0.99726449  0.64640570  0.65846604  1  3.301888  0.003175  0.324835  1.175958  0.002571  5.444839  0.005
P  P7  1  0.35358255  0.00273873  0.84153062  1  3.302845  0.00317  0.324797  1.176096  0.00257  5.445016  0.005
P  P8  1  0.00273096  0.35359396  0.34152945  1  3.30204  0.003176  0.324876  1.176196  0.002572  5.444475  0.005
P  P9  1  0.64641916  0.99726093  0.15847211  1  3.302366  0.003171  0.324765  1.176051  0.00257  5.444916  0.005
H  H10  1  0.16791091  0.43624065  0.81919753  1  0.055769  0.000288  0.103436  0.144852  0.000115  0.985315  0.0
H  H11  1  0.56378490  0.83211302  0.68080799  1  0.055446  0.000288  0.103491  0.144823  0.000115  0.985342  0.0
H  H12  1  0.83210133  0.56377271  0.18079700  1  0.055738  0.000287  0.103448  0.144865  0.000115  0.985318  0.0
H  H13  1  0.43621869  0.16789190  0.31919176  1  0.055757  0.000288  0.103484  0.144893  0.000115  0.985321  0.0
H  H14  1  0.13873714  0.61718630  0.82558295  1  0.074734  0.000161  0.10047  0.144879  2.5e-05  0.994156  0.0
H  H15  1  0.38279571  0.86128182  0.67441977  1  0.073915  0.000162  0.100447  0.144855  2.6e-05  0.994116  0.0
H  H16  1  0.86127424  0.38282179  0.17441331  1  0.074622  0.00016  0.100456  0.144888  2.5e-05  0.994107  0.0
H  H17  1  0.61720977  0.13872837  0.32557893  1  0.073883  0.000159  0.100446  0.144905  2.4e-05  0.99414  0.0
H  H18  1  0.25498732  0.56017168  0.75067246  1  0.084355  0.000291  0.099082  0.137045  0.000148  1.00014  0.0
H  H19  1  0.43983022  0.74505886  0.74932470  1  0.084864  0.000292  0.099102  0.137069  0.000148  1.00018  0.0
H  H20  1  0.74501192  0.43983852  0.24931837  1  0.084537  0.00029  0.099111  0.137076  0.000147  1.000064  0.0
H  H21  1  0.56016594  0.25493869  0.25066819  1  0.084913  0.00029  0.099119  0.137114  0.000147  1.000181  0.0
H  H22  1  0.82733279  0.44240963  0.71959650  1  0.6123  0.000301  0.332115  0.362557  0.000241  0.884111  0.0
H  H23  1  0.55759145  0.17262722  0.78041009  1  0.612339  0.000301  0.332081  0.362627  0.000241  0.884116  0.0
H  H24  1  0.17266976  0.55759529  0.28040643  1  0.612263  0.000302  0.332115  0.362567  0.000241  0.884071  0.0
H  H25  1  0.44240957  0.82736822  0.21960016  1  0.612054  0.000302  0.332057  0.362565  0.000242  0.884176  0.0
H  H26  1  0.38716099  0.51328655  0.53825645  1  0.634227  0.000615  0.324158  0.409346  0.000189  0.878909  0.0
H  H27  1  0.48672220  0.61289584  0.96175789  1  0.633873  0.000615  0.324231  0.409601  0.000189  0.878575  0.0
H  H28  1  0.61280831  0.48670573  0.46177447  1  0.634883  0.000615  0.32425  0.409521  0.000189  0.878682  0.0
H  H29  1  0.51328534  0.38712068  0.03822059  1  0.634357  0.000615  0.324147  0.409517  0.000189  0.878818  0.0
H  H30  1  0.40833041  0.67668243  0.54527014  1  0.589704  0.000615  0.332299  0.408535  0.000146  0.867489  0.001
H  H31  1  0.32329348  0.59170919  0.95473176  1  0.589575  0.000614  0.332325  0.408659  0.000146  0.867386  0.001
H  H32  1  0.59169333  0.32331196  0.45472480  1  0.589711  0.000614  0.332293  0.408561  0.000146  0.867584  0.001
H  H33  1  0.67671226  0.40827676  0.04527323  1  0.589457  0.000614  0.332352  0.408657  0.000146  0.867285  0.001
H  H34  1  0.82195507  0.15113065  0.62073875  1  0.639221  8.5e-05  0.298015  0.405464  -0.000124  0.921704  0.0
H  H35  1  0.84888549  0.17803721  0.87924820  1  0.639014  8.5e-05  0.297869  0.405275  -0.000123  0.922047  0.0
H  H36  1  0.17803935  0.84886901  0.37926375  1  0.639201  8.5e-05  0.298  0.405438  -0.000123  0.921724  0.0
H  H37  1  0.15111084  0.82196139  0.12075113  1  0.639023  8.5e-05  0.297859  0.405257  -0.000123  0.922069  0.0
H  H38  1  0.70646372  0.08157355  0.68234992  1  0.647409  2.7e-05  0.294336  0.38658  1.8e-05  0.952237  0.0
H  H39  1  0.91843360  0.29350855  0.81762844  1  0.647272  2.7e-05  0.294408  0.386518  1.8e-05  0.952281  0.0
H  H40  1  0.29353571  0.91843138  0.31765291  1  0.647459  2.7e-05  0.294377  0.386657  1.9e-05  0.952104  0.0
H  H41  1  0.08156586  0.70649005  0.18237034  1  0.64728  2.7e-05  0.294424  0.386531  1.9e-05  0.952261  0.0
H  H42  1  0.12855377  0.90928859  0.92060415  1  0.654728  0.000154  0.307473  0.404278  -8e-05  0.917765  0.0
H  H43  1  0.09072515  0.87144188  0.57939180  1  0.65473  0.000154  0.30753  0.404628  -8e-05  0.917293  0.0
H  H44  1  0.87144464  0.09071001  0.07939845  1  0.654724  0.000154  0.307514  0.404324  -8e-05  0.917684  0.0
H  H45  1  0.90926856  0.12855988  0.42060691  1  0.655107  0.000154  0.3075  0.404553  -8e-05  0.917386  0.0
H  H46  1  0.96689406  0.89983376  0.93928242  1  0.618448  -2.8e-05  0.33476  0.426276  -3.5e-05  0.858147  0.0
H  H47  1  0.10018159  0.03306500  0.56069707  1  0.618203  -2.8e-05  0.334764  0.426381  -3.5e-05  0.858016  0.0
H  H48  1  0.03310605  0.10017538  0.06072376  1  0.61847  -2.8e-05  0.334734  0.426243  -3.6e-05  0.858191  0.0
H  H49  1  0.89978301  0.96693044  0.43928581  1  0.618096  -2.9e-05  0.334737  0.426342  -3.6e-05  0.858059  0.0
Ru  Ru50  1  0.12003328  0.54194408  0.49725470  1  1.263995  1.332381  0.779745  0.88722  1.402081  3.802539  1.312
Ru  Ru51  1  0.45804765  0.87998380  0.00274443  1  1.267506  1.332578  0.779783  0.887194  1.402198  3.802593  1.312
Ru  Ru52  1  0.87996218  0.45805558  0.50274336  1  1.26747  1.332413  0.779727  0.887139  1.402055  3.802674  1.312
Ru  Ru53  1  0.54195337  0.12001164  0.99725687  1  1.263935  1.332251  0.779719  0.886983  1.401945  3.802513  1.312
C  C54  1  0.03409970  0.49183952  0.71575527  1  -0.422097  5e-05  0.051814  -0.136572  -0.000913  3.908938  -0.001
C  C55  1  0.50816868  0.96590157  0.78424515  1  -0.422544  5e-05  0.05173  -0.136648  -0.000913  3.90898  -0.001
C  C56  1  0.96589644  0.50816435  0.28424358  1  -0.422011  5e-05  0.051773  -0.136907  -0.000913  3.909402  -0.001
C  C57  1  0.49183685  0.03409598  0.21575443  1  -0.422723  5e-05  0.051792  -0.136618  -0.000913  3.90904  -0.001
C  C58  1  0.15688181  0.52881126  0.78254634  1  -0.104445  0.001186  -0.234374  -0.385193  0.000882  3.936641  0.001
C  C59  1  0.47119442  0.84314382  0.71745093  1  -0.10312  0.001187  -0.234382  -0.385127  0.000883  3.936561  0.001
C  C60  1  0.84312159  0.47119893  0.21744845  1  -0.104517  0.001186  -0.234397  -0.385214  0.000881  3.936758  0.001
C  C61  1  0.52880779  0.15685899  0.28254744  1  -0.103442  0.001186  -0.234395  -0.385302  0.000882  3.9366  0.001
O  O62  1  0.17833130  0.40054234  0.57974877  1  -1.339194  0.037041  -0.368259  -0.650752  0.022287  2.323824  0.023
O  O63  1  0.59947769  0.82169258  0.92025850  1  -1.339247  0.037064  -0.368279  -0.650781  0.022302  2.323738  0.023
O  O64  1  0.82166466  0.59946048  0.42024812  1  -1.339259  0.037041  -0.368263  -0.650862  0.022286  2.323805  0.023
O  O65  1  0.40052108  0.17830180  0.07974462  1  -1.33918  0.037037  -0.368248  -0.650711  0.022283  2.323937  0.023
O  O66  1  0.91537079  0.30674150  0.58456538  1  -1.349311  0.036949  -0.366584  -0.684099  0.022915  2.403842  0.023
O  O67  1  0.69330105  0.08459690  0.91543699  1  -1.349563  0.03695  -0.366534  -0.684164  0.022906  2.403844  0.023
O  O68  1  0.08462484  0.69325920  0.41543271  1  -1.349276  0.036949  -0.366575  -0.68425  0.022915  2.403811  0.023
O  O69  1  0.30669912  0.91539327  0.08456284  1  -1.349399  0.036971  -0.366495  -0.684109  0.022921  2.403787  0.023
O  O70  1  0.09125051  0.22367420  0.68984812  1  -1.453338  -0.001094  -0.444592  -0.788827  -0.001809  2.261255  -0.001
O  O71  1  0.77635538  0.90873831  0.81014938  1  -1.453671  -0.001095  -0.444742  -0.789059  -0.00181  2.261465  -0.001
O  O72  1  0.90874701  0.77633178  0.31015596  1  -1.453412  -0.001095  -0.444603  -0.788916  -0.00181  2.261091  -0.001
O  O73  1  0.22364893  0.09125818  0.18985205  1  -1.453679  -0.001094  -0.444731  -0.789006  -0.001808  2.261615  -0.001
O  O74  1  0.12001952  0.68814017  0.59744576  1  -1.346644  0.034032  -0.362126  -0.677163  0.020758  2.367468  0.021
O  O75  1  0.31184059  0.87999750  0.90254534  1  -1.346755  0.034039  -0.362016  -0.677047  0.020767  2.367562  0.021
O  O76  1  0.87997698  0.31185949  0.40255232  1  -1.34662  0.034032  -0.362085  -0.677158  0.020758  2.367378  0.021
O  O77  1  0.68816460  0.11999793  0.09745801  1  -1.346609  0.034005  -0.361925  -0.676943  0.020749  2.367475  0.021
O  O78  1  0.85657854  0.59197273  0.60414564  1  -1.326595  0.041485  -0.367427  -0.64856  0.025369  2.29676  0.027
O  O79  1  0.40801525  0.14338990  0.89585312  1  -1.326729  0.041465  -0.367344  -0.648595  0.02536  2.296976  0.027
O  O80  1  0.14341518  0.40802903  0.39585435  1  -1.32669  0.041492  -0.367428  -0.648668  0.025375  2.296831  0.027
O  O81  1  0.59198110  0.85660237  0.10415049  1  -1.326694  0.04149  -0.367408  -0.648626  0.025377  2.296799  0.027
O  O82  1  0.98498502  0.76337185  0.72376702  1  -1.448611  -0.001238  -0.453987  -0.796577  -0.001984  2.266414  -0.002
O  O83  1  0.23661367  0.01502820  0.77621899  1  -1.449032  -0.001238  -0.454267  -0.796724  -0.001983  2.266658  -0.002
O  O84  1  0.01501044  0.23662781  0.27622719  1  -1.448693  -0.001238  -0.454063  -0.79661  -0.001984  2.266307  -0.002
O  O85  1  0.76338873  0.98496934  0.22378434  1  -1.448797  -0.00124  -0.454254  -0.796728  -0.001985  2.266582  -0.002
O  O86  1  0.90779978  0.44400880  0.76086191  1  -1.084076  0.003621  -0.35682  -0.428615  0.002238  2.248589  0.003
O  O87  1  0.55600911  0.09218374  0.73914018  1  -1.084304  0.003622  -0.356698  -0.428725  0.002238  2.248629  0.003
O  O88  1  0.09220382  0.55599612  0.23913848  1  -1.084229  0.003623  -0.356784  -0.428534  0.002239  2.248549  0.003
O  O89  1  0.44399501  0.90781802  0.26086717  1  -1.083849  0.003624  -0.35672  -0.428701  0.002239  2.248708  0.003
O  O90  1  0.37665427  0.59534501  0.50528198  1  -1.159635  0.006057  -0.552533  -0.693407  0.002446  1.980439  -0.002
O  O91  1  0.40463940  0.62339112  0.99472420  1  -1.159052  0.006044  -0.552626  -0.693811  0.00244  1.979939  -0.002
O  O92  1  0.62336397  0.40463461  0.49472576  1  -1.160257  0.006061  -0.552552  -0.693526  0.002447  1.98059  -0.002
O  O93  1  0.59537829  0.37659799  0.00527102  1  -1.159367  0.006044  -0.552576  -0.693694  0.002441  1.980119  -0.002
O  O94  1  0.79362521  0.06762376  0.65415131  1  -1.291045  0.000343  -0.645919  -0.874287  0.000138  2.000195  0.0
O  O95  1  0.93238945  0.20635635  0.84581922  1  -1.290792  0.000345  -0.645852  -0.874096  0.000139  2.000643  0.0
O  O96  1  0.20637059  0.93237800  0.34585130  1  -1.291011  0.000348  -0.645962  -0.87434  0.000141  2.000121  0.0
O  O97  1  0.06760601  0.79364331  0.15418140  1  -1.290824  0.000347  -0.645849  -0.874064  0.00014  2.000635  0.0
O  O98  1  0.04217132  0.94971378  0.90785329  1  -1.259064  0.000492  -0.608594  -0.833738  0.000207  2.011998  0.0
O  O99  1  0.05030585  0.95781505  0.59214190  1  -1.258842  0.000492  -0.608596  -0.834169  0.000207  2.011441  0.0
O  O100  1  0.95782830  0.05028587  0.09214681  1  -1.259069  0.000492  -0.608608  -0.833736  0.000207  2.012036  0.0
O  O101  1  0.94969445  0.04218882  0.40786411  1  -1.259205  0.000491  -0.608531  -0.834058  0.000207  2.011514  0.0
