# generated using pymatgen
data_Zn2H17C32N3O10
_symmetry_space_group_name_H-M   'P 1'
_cell_length_a   10.94654271
_cell_length_b   11.83442023
_cell_length_c   13.14457635
_cell_angle_alpha   86.82670905
_cell_angle_beta   89.98786879
_cell_angle_gamma   85.12011302
_symmetry_Int_Tables_number   1
_chemical_formula_structural   Zn2H17C32N3O10
_chemical_formula_sum   'Zn2 H17 C32 N3 O10'
_cell_volume   1694.03590605
_cell_formula_units_Z   1
loop_
 _symmetry_equiv_pos_site_id
 _symmetry_equiv_pos_as_xyz
  1  'x, y, z'
loop_
 _atom_site_type_symbol
 _atom_site_label
 _atom_site_symmetry_multiplicity
 _atom_site_fract_x
 _atom_site_fract_y
 _atom_site_fract_z
 _atom_site_occupancy
 _atom_site_pbe_bader_charge
 _atom_site_pbe_bader_spin_density
 _atom_site_pbe_cm5_charge
 _atom_site_pbe_ddec_charge
 _atom_site_pbe_ddec_spin_density
 _atom_site_pbe_ddec_sum_bond_order
 _atom_site_pbe_magmom
Zn  Zn0  1  0.48902888  0.61771151  0.50312498  1  1.275755  0  0.670115  0.817101  0  2.436457  0
Zn  Zn1  1  0.51641872  0.37981591  0.49789023  1  1.284866  0  0.666924  0.818199  0  2.41482  0
H  H2  1  0.13787966  0.39684360  0.38795204  1  0.065365  0  0.106505  0.1126  0  0.983774  0
H  H3  1  0.20800108  0.57048858  0.70013056  1  0.02781  0  0.098631  0.104605  0  1.014688  0
H  H4  1  0.07533055  0.64871330  0.83625820  1  0.06986  0  0.097899  0.094128  0  0.997962  0
H  H5  1  0.84721400  0.66051545  0.81745335  1  0.035212  0  0.099109  0.096146  0  0.994915  0
H  H6  1  0.75290134  0.59417086  0.66418187  1  0.069538  0  0.098517  0.111423  0  1.03484  0
H  H7  1  0.90960057  0.40272857  0.37139522  1  0.05495  0  0.102846  0.105522  0  0.992751  0
H  H8  1  0.54626462  0.36254217  0.17744134  1  0.082563  0  0.110115  0.118087  0  0.99198  0
H  H9  1  0.60433786  0.27892323  0.01142086  1  0.067612  0  0.105681  0.106285  0  0.989823  0
H  H10  1  0.38669373  0.72352491  0.99170095  1  0.061596  0  0.116167  0.128907  0  0.979677  0
H  H11  1  0.61146659  0.29903961  0.82118851  1  0.093528  0  0.108055  0.114927  0  0.993034  0
H  H12  1  0.44807769  0.64114473  0.82498139  1  0.098005  0  0.106056  0.11383  0  1.002697  0
H  H13  1  0.63166698  0.80535381  0.42724180  1  0.128581  0  0.137151  0.116283  0  0.960078  0
H  H14  1  0.30654785  0.78694758  0.58606606  1  0.130709  0  0.131772  0.110855  0  0.977566  0
H  H15  1  0.71839629  0.99996697  0.38637141  1  0.10863  0  0.125596  0.133365  0  0.967722  0
H  H16  1  0.28081967  0.99830411  0.60446911  1  0.117266  0  0.124946  0.132679  0  0.969633  0
H  H17  1  0.69532412  0.21079866  0.40903613  1  0.139676  0  0.129445  0.110386  0  0.980738  0
H  H18  1  0.36904931  0.19258690  0.56575356  1  0.15736  0  0.133613  0.114889  0  0.977663  0
C  C19  1  0.52910479  0.48268684  0.69878224  1  1.545275  0  0.211741  0.582008  0  4.185513  0
C  C20  1  0.26784098  0.48880158  0.52598057  1  1.583586  0  0.221185  0.607574  0  4.170924  0
C  C21  1  0.46871585  0.51897223  0.30425406  1  1.616264  0  0.214791  0.601032  0  4.18535  0
C  C22  1  0.73902928  0.49990430  0.48860459  1  1.562287  0  0.218514  0.606948  0  4.160069  0
C  C23  1  0.10844912  0.57618497  0.69182450  1  -0.093312  0  -0.096565  -0.138745  0  3.99805  0
C  C24  1  0.03446271  0.61987444  0.76761396  1  0.016348  0  -0.10125  -0.094043  0  4.069266  0
C  C25  1  0.90543411  0.62622237  0.75714421  1  -0.037088  0  -0.099349  -0.091161  0  4.060155  0
C  C26  1  0.85226108  0.58839584  0.67168225  1  -0.06377  0  -0.094964  -0.131556  0  3.97193  0
C  C27  1  0.92555376  0.54133216  0.59246813  1  0.031171  0  -0.000737  0.063517  0  3.938921  0
C  C28  1  0.05677253  0.53559420  0.60297242  1  0.065717  0  -0.002863  0.055657  0  3.961966  0
C  C29  1  0.13135300  0.48542488  0.52576294  1  -0.089995  0  -0.007934  -0.056171  0  3.942027  0
C  C30  1  0.07889617  0.43638670  0.44521719  1  0.010866  0  -0.089838  -0.107742  0  4.011539  0
C  C31  1  0.95063643  0.44045328  0.43560414  1  -0.005517  0  -0.088653  -0.099959  0  4.022763  0
C  C32  1  0.87463225  0.49440707  0.50541886  1  -0.047182  0  -0.014581  -0.075146  0  3.942962  0
C  C33  1  0.46007687  0.52883436  0.19005823  1  0.04575  0  -0.007507  -0.065293  0  3.95403  0
C  C34  1  0.52912247  0.47166552  0.81304150  1  0.043665  0  -0.013964  -0.020652  0  3.971404  0
C  C35  1  0.56954184  0.35792877  0.97061044  1  -0.083449  0  -0.08553  -0.130036  0  3.991557  0
C  C36  1  0.57396106  0.36866797  0.86576931  1  0.017831  0  -0.081277  -0.090717  0  3.984922  0
C  C37  1  0.48133978  0.56243122  0.86684819  1  -0.078642  0  -0.076308  -0.135154  0  3.921876  0
C  C38  1  0.47411805  0.55330427  0.97426347  1  0.006832  0  -0.002928  0.086584  0  4.010955  0
C  C39  1  0.51862014  0.44879842  0.02759724  1  0.055742  0  -0.000514  0.078513  0  4.004658  0
C  C40  1  0.51049776  0.44023976  0.13523105  1  -0.058671  0  -0.071332  -0.122226  0  3.92341  0
C  C41  1  0.41473830  0.63055917  0.13511272  1  0.158385  0  0.080791  0.059314  0  3.938383  0
C  C42  1  0.42246876  0.64398689  0.03087421  1  0.058777  0  -0.075145  -0.172938  0  3.943748  0
C  C43  1  0.64039517  0.03897606  0.42707056  1  -0.028259  0  -0.063491  -0.152185  0  3.950413  0
C  C44  1  0.62836023  0.15422941  0.43834834  1  0.45933  0  0.052522  0.081125  0  3.915945  0
C  C45  1  0.44491053  0.14555789  0.52821020  1  0.562152  0  0.084109  0.075456  0  3.833036  0
C  C46  1  0.44940845  0.02620237  0.52188199  1  0.014279  0  0.014534  0.054437  0  4.005163  0
C  C47  1  0.55041743  0.97172135  0.46971248  1  -0.016824  0  0.015938  0.05619  0  4.000892  0
C  C48  1  0.55577719  0.85215615  0.46486387  1  0.550676  0  0.088728  0.083523  0  3.827843  0
C  C49  1  0.37288421  0.84350697  0.55559342  1  0.43631  0  0.055551  0.088469  0  3.908128  0
C  C50  1  0.35945051  0.95905917  0.56473684  1  -0.018421  0  -0.06393  -0.153903  0  3.95428  0
N  N51  1  0.47075084  0.79162751  0.50678144  1  -1.217821  0  -0.306688  -0.174168  0  3.511277  0
N  N52  1  0.53138865  0.20600689  0.48841866  1  -1.246586  0  -0.307342  -0.176215  0  3.516434  0
N  N53  1  0.34770218  0.72349802  0.18798861  1  0.385732  0  0.055501  0.524451  0  4.225875  0
O  O54  1  0.50017892  0.58166706  0.65823476  1  -1.178749  0  -0.320804  -0.555527  0  2.339563  0
O  O55  1  0.55629209  0.39307400  0.65132469  1  -1.16373  0  -0.317678  -0.544167  0  2.294474  0
O  O56  1  0.30752645  0.58658706  0.51472996  1  -1.153802  0  -0.309413  -0.538852  0  2.319237  0
O  O57  1  0.33276060  0.39414329  0.53357162  1  -1.165151  0  -0.317334  -0.555342  0  2.320863  0
O  O58  1  0.48358792  0.61020145  0.34765395  1  -1.154681  0  -0.315801  -0.540602  0  2.332441  0
O  O59  1  0.46598856  0.42025644  0.34689071  1  -1.163984  0  -0.318242  -0.547167  0  2.303749  0
O  O60  1  0.67764276  0.59475470  0.49959840  1  -1.166827  0  -0.314038  -0.55149  0  2.342843  0
O  O61  1  0.69450281  0.40866170  0.46447694  1  -1.171355  0  -0.323045  -0.560364  0  2.313135  0
O  O62  1  0.37875963  0.82098059  0.16993154  1  -0.4628  0  -0.158808  -0.35947  0  1.851004  0
O  O63  1  0.26164682  0.69784810  0.24322979  1  -0.429243  0  -0.135196  -0.324026  0  1.877643  0
