# generated using pymatgen
data_ZnH9C15N3O4
_symmetry_space_group_name_H-M   'P 1'
_cell_length_a   8.37648037
_cell_length_b   10.97992459
_cell_length_c   14.77118510
_cell_angle_alpha   89.99986753
_cell_angle_beta   90.05649334
_cell_angle_gamma   90.00007491
_symmetry_Int_Tables_number   1
_chemical_formula_structural   ZnH9C15N3O4
_chemical_formula_sum   'Zn4 H36 C60 N12 O16'
_cell_volume   1358.55135934
_cell_formula_units_Z   4
loop_
 _symmetry_equiv_pos_site_id
 _symmetry_equiv_pos_as_xyz
  1  'x, y, z'
loop_
 _atom_site_type_symbol
 _atom_site_label
 _atom_site_symmetry_multiplicity
 _atom_site_fract_x
 _atom_site_fract_y
 _atom_site_fract_z
 _atom_site_occupancy
 _atom_site_hle17_bader_spin_density
 _atom_site_hle17_ddec_charge
 _atom_site_hle17_ddec_spin_density
 _atom_site_hle17_ddec_sum_bond_order
 _atom_site_hle17_magmom
 _atom_site_hse06_10hf_bader_charge
 _atom_site_hse06_10hf_bader_spin_density
 _atom_site_hse06_10hf_ddec_charge
 _atom_site_hse06_10hf_ddec_spin_density
 _atom_site_hse06_10hf_ddec_sum_bond_order
 _atom_site_hse06_10hf_magmom
 _atom_site_hse06_bader_spin_density
 _atom_site_hse06_ddec_charge
 _atom_site_hse06_ddec_spin_density
 _atom_site_hse06_ddec_sum_bond_order
 _atom_site_hse06_magmom
 _atom_site_pbe_bader_spin_density
 _atom_site_pbe_cm5_charge
 _atom_site_pbe_ddec_charge
 _atom_site_pbe_ddec_spin_density
 _atom_site_pbe_ddec_sum_bond_order
 _atom_site_pbe_magmom
Zn  Zn0  1  0.39940151  0.65063871  0.48071796  1  0  1.07002  0  1.782068  0  1.334366  0  0.892367  0  2.25178  0  0  0.941496  0  2.192245  0  0  0.699618  0.857805  0  2.292993  0
Zn  Zn1  1  0.10060069  0.15063949  0.01928208  1  0  1.070041  0  1.782051  0  1.334352  0  0.892398  0  2.251753  0  0  0.941528  0  2.192217  0  0  0.699637  0.857839  0  2.292967  0
Zn  Zn2  1  0.60059880  0.34936164  0.51928331  1  0  1.069995  0  1.782089  0  1.334337  0  0.892364  0  2.251786  0  0  0.941491  0  2.192253  0  0  0.699631  0.857804  0  2.293002  0
Zn  Zn3  1  0.89940081  0.84936177  0.98071716  1  0  1.070037  0  1.782089  0  1.334361  0  0.892376  0  2.251798  0  0  0.941507  0  2.192262  0  0  0.699641  0.857818  0  2.293014  0
H  H4  1  0.66920426  0.90861391  0.66934576  1  0  0.101567  0  0.947319  0  0.078499  0  0.110502  0  1.014401  0  0  0.114271  0  1.011204  0  0  0.105074  0.107852  0  1.016539  0
H  H5  1  0.83079426  0.40861304  0.83065326  1  0  0.101551  0  0.947354  0  0.078491  0  0.110487  0  1.014437  0  0  0.114259  0  1.011231  0  0  0.10506  0.107831  0  1.016582  0
H  H6  1  0.33079606  0.09138735  0.33065483  1  0  0.101542  0  0.947323  0  0.0785  0  0.110478  0  1.01441  0  0  0.114248  0  1.011209  0  0  0.105067  0.107826  0  1.01655  0
H  H7  1  0.16920008  0.59138275  0.16934598  1  0  0.101577  0  0.947339  0  0.07855  0  0.110497  0  1.01444  0  0  0.114267  0  1.011239  0  0  0.105064  0.107842  0  1.016583  0
H  H8  1  0.21099372  0.79754993  0.76951606  1  0  0.116804  0  0.941913  0  0.104513  0  0.123515  0  1.007561  0  0  0.127963  0  1.003279  0  0  0.111319  0.120252  0  1.010734  0
H  H9  1  0.28900453  0.29754932  0.73048417  1  0  0.116824  0  0.941846  0  0.104548  0  0.123537  0  1.00749  0  0  0.127986  0  1.003209  0  0  0.111317  0.120271  0  1.010662  0
H  H10  1  0.78900779  0.20245042  0.23048521  1  0  0.116785  0  0.941893  0  0.104497  0  0.123509  0  1.007529  0  0  0.127947  0  1.003265  0  0  0.11129  0.12024  0  1.010697  0
H  H11  1  0.71099340  0.70245011  0.26951642  1  0  0.116825  0  0.941855  0  0.104521  0  0.123536  0  1.007505  0  0  0.127981  0  1.003234  0  0  0.111313  0.120273  0  1.010679  0
H  H12  1  0.48820906  0.05907208  0.91898611  1  0  0.109473  0  0.95056  0  0.103482  0  0.117287  0  1.017697  0  0  0.120665  0  1.014795  0  0  0.108899  0.114783  0  1.01996  0
H  H13  1  0.01178758  0.55906852  0.58101183  1  0  0.10941  0  0.950641  0  0.103444  0  0.117238  0  1.01775  0  0  0.120616  0  1.014847  0  0  0.108879  0.114735  0  1.020006  0
H  H14  1  0.51178887  0.94093191  0.08101313  1  0  0.109442  0  0.950602  0  0.103479  0  0.117268  0  1.017711  0  0  0.120646  0  1.014807  0  0  0.108888  0.114764  0  1.019966  0
H  H15  1  0.98820915  0.44092819  0.41898809  1  0  0.109441  0  0.950545  0  0.103429  0  0.117245  0  1.017685  0  0  0.120623  0  1.014781  0  0  0.108883  0.114746  0  1.019946  0
H  H16  1  0.72876431  0.14184882  0.85572142  1  0  0.111741  0  0.910716  0  0.114143  0  0.124901  0  0.97161  0  0  0.126232  0  0.969702  0  0  0.122103  0.123784  0  0.97247  0
H  H17  1  0.77123495  0.64184896  0.64427874  1  0  0.111699  0  0.910737  0  0.114145  0  0.124835  0  0.971646  0  0  0.126165  0  0.969737  0  0  0.122098  0.123738  0  0.97248  0
H  H18  1  0.27123481  0.85815152  0.14427850  1  0  0.111729  0  0.910729  0  0.114154  0  0.124855  0  0.97164  0  0  0.126186  0  0.969731  0  0  0.122103  0.123754  0  0.972478  0
H  H19  1  0.22876536  0.35814865  0.35572186  1  0  0.111709  0  0.910731  0  0.114129  0  0.124866  0  0.971646  0  0  0.126197  0  0.969735  0  0  0.122084  0.123751  0  0.972507  0
H  H20  1  0.84891157  0.01819690  0.82259302  1  0  0.105732  0  0.926215  0  0.098996  0  0.120492  0  0.990253  0  0  0.121561  0  0.988368  0  0  0.121727  0.119569  0  0.991101  0
H  H21  1  0.65108628  0.51819773  0.67740735  1  0  0.105718  0  0.926234  0  0.099034  0  0.120477  0  0.990246  0  0  0.121548  0  0.988362  0  0  0.121718  0.119552  0  0.991097  0
H  H22  1  0.15108874  0.98180436  0.17740757  1  0  0.105721  0  0.926246  0  0.098993  0  0.120468  0  0.990276  0  0  0.121537  0  0.988388  0  0  0.121731  0.119543  0  0.991127  0
H  H23  1  0.34891046  0.48180353  0.32259325  1  0  0.105663  0  0.926224  0  0.099019  0  0.120427  0  0.990283  0  0  0.121494  0  0.988393  0  0  0.121692  0.119506  0  0.991134  0
H  H24  1  0.07694306  0.99213322  0.73416524  1  0  0.118444  0  0.972767  0  0.09829  0  0.12495  0  1.038678  0  0  0.127613  0  1.038163  0  0  0.107793  0.122989  0  1.039307  0
H  H25  1  0.42305791  0.49213355  0.76583466  1  0  0.118418  0  0.972795  0  0.098294  0  0.124935  0  1.038692  0  0  0.127596  0  1.03818  0  0  0.107791  0.122974  0  1.039316  0
H  H26  1  0.92305845  0.00786804  0.26583468  1  0  0.118443  0  0.972755  0  0.098284  0  0.124953  0  1.038664  0  0  0.127616  0  1.038148  0  0  0.10778  0.122981  0  1.039288  0
H  H27  1  0.57694359  0.50786771  0.23416661  1  0  0.118406  0  0.972775  0  0.098252  0  0.124923  0  1.038676  0  0  0.127585  0  1.038163  0  0  0.107775  0.122956  0  1.039304  0
H  H28  1  0.27990228  0.01400293  0.61179128  1  0  0.092844  0  0.952874  0  0.078916  0  0.105384  0  1.007583  0  0  0.107296  0  1.007784  0  0  0.102974  0.10394  0  1.007643  0
H  H29  1  0.22009787  0.51400317  0.88820741  1  0  0.092817  0  0.952846  0  0.078912  0  0.105355  0  1.007567  0  0  0.107264  0  1.00777  0  0  0.102967  0.103907  0  1.007625  0
H  H30  1  0.72009565  0.98599651  0.38820728  1  0  0.092829  0  0.952872  0  0.078895  0  0.105361  0  1.0076  0  0  0.10727  0  1.007803  0  0  0.102981  0.103918  0  1.007658  0
H  H31  1  0.77990722  0.48599900  0.11179386  1  0  0.092909  0  0.952856  0  0.078842  0  0.105416  0  1.007597  0  0  0.107334  0  1.00779  0  0  0.103002  0.103966  0  1.007651  0
H  H32  1  0.23053870  0.14229999  0.47763086  1  0  0.101484  0  0.959634  0  0.103227  0  0.110534  0  1.021287  0  0  0.11413  0  1.018974  0  0  0.100092  0.107868  0  1.02318  0
H  H33  1  0.26946110  0.64230141  0.02236852  1  0  0.1015  0  0.959619  0  0.103151  0  0.110555  0  1.021265  0  0  0.114151  0  1.018951  0  0  0.10011  0.107894  0  1.023157  0
H  H34  1  0.76946042  0.85769854  0.52236838  1  0  0.10143  0  0.959653  0  0.103159  0  0.110478  0  1.021321  0  0  0.114073  0  1.019007  0  0  0.100076  0.107807  0  1.023211  0
H  H35  1  0.73054279  0.35770167  0.97763208  1  0  0.101404  0  0.959653  0  0.103249  0  0.110445  0  1.021331  0  0  0.11404  0  1.019018  0  0  0.100081  0.107783  0  1.023224  0
H  H36  1  0.96846567  0.25034029  0.45664518  1  0  0.123733  0  0.958418  0  0.09642  0  0.135374  0  1.014543  0  0  0.138499  0  1.012511  0  0  0.11156  0.133004  0  1.016264  0
H  H37  1  0.53153440  0.75034141  0.04335434  1  0  0.123748  0  0.958404  0  0.096415  0  0.135388  0  1.014531  0  0  0.138514  0  1.012499  0  0  0.11157  0.13302  0  1.016248  0
H  H38  1  0.03153225  0.74965824  0.54335338  1  0  0.123755  0  0.958423  0  0.096426  0  0.135401  0  1.01454  0  0  0.138525  0  1.012509  0  0  0.111581  0.133022  0  1.016244  0
H  H39  1  0.46847308  0.24965984  0.95664694  1  0  0.123674  0  0.958428  0  0.096466  0  0.135323  0  1.014552  0  0  0.138448  0  1.012522  0  0  0.111557  0.132954  0  1.016266  0
C  C40  1  0.59628811  0.99222537  0.79583961  1  0  0.065986  0  3.741474  0  -0.004867  0  0.086242  0  3.995366  0  0  0.082484  0  4.017973  0  0  -0.00976  0.08859  0  3.978824  0
C  C41  1  0.90371294  0.49222496  0.70415859  1  0  0.065926  0  3.741451  0  -0.004878  0  0.086171  0  3.995325  0  0  0.082409  0  4.017933  0  0  -0.009768  0.08852  0  3.978784  0
C  C42  1  0.40371339  0.00777589  0.20416031  1  0  0.065865  0  3.741424  0  -0.004915  0  0.086126  0  3.99527  0  0  0.082365  0  4.017874  0  0  -0.009799  0.088477  0  3.978729  0
C  C43  1  0.09628499  0.50777266  0.29583997  1  0  0.065929  0  3.741471  0  -0.004835  0  0.086242  0  3.995281  0  0  0.082481  0  4.017883  0  0  -0.009761  0.088597  0  3.978736  0
C  C44  1  0.57768564  0.91410654  0.72169545  1  0  -0.096298  0  3.68306  0  -0.099333  0  -0.142487  0  3.947155  0  0  -0.139314  0  3.963975  0  0  -0.080355  -0.144052  0  3.935329  0
C  C45  1  0.92231170  0.41410592  0.77830423  1  0  -0.096257  0  3.683147  0  -0.099329  0  -0.142454  0  3.947228  0  0  -0.139271  0  3.964054  0  0  -0.080347  -0.144016  0  3.935403  0
C  C46  1  0.42231468  0.08589472  0.27830514  1  0  -0.09622  0  3.683043  0  -0.099269  0  -0.142391  0  3.947125  0  0  -0.139217  0  3.963939  0  0  -0.080349  -0.143953  0  3.935306  0
C  C47  1  0.07768384  0.58589170  0.22169501  1  0  -0.096309  0  3.683154  0  -0.099333  0  -0.142492  0  3.947219  0  0  -0.139316  0  3.964032  0  0  -0.080374  -0.144052  0  3.935392  0
C  C48  1  0.43924814  0.84405409  0.71218447  1  0  -0.0691  0  3.787038  0  -0.003367  0  -0.042207  0  4.026876  0  0  -0.051882  0  4.04967  0  0  -0.020991  -0.036172  0  4.011743  0
C  C49  1  0.06074900  0.34405399  0.78781500  1  0  -0.069063  0  3.787019  0  -0.003337  0  -0.042151  0  4.026845  0  0  -0.05185  0  4.049673  0  0  -0.020957  -0.036109  0  4.011705  0
C  C50  1  0.56075337  0.15594626  0.28781544  1  0  -0.069026  0  3.787122  0  -0.003378  0  -0.042185  0  4.027032  0  0  -0.05185  0  4.049813  0  0  -0.020923  -0.036146  0  4.011899  0
C  C51  1  0.93924535  0.65594362  0.21218559  1  0  -0.069057  0  3.787099  0  -0.003421  0  -0.042193  0  4.026938  0  0  -0.051858  0  4.04972  0  0  -0.020921  -0.03615  0  4.011802  0
C  C52  1  0.31924318  0.85130535  0.77772138  1  0  -0.058158  0  3.692447  0  0.024822  0  -0.098135  0  3.940504  0  0  -0.094294  0  3.958992  0  0  -0.070017  -0.100252  0  3.927912  0
C  C53  1  0.18075278  0.35130557  0.72227740  1  0  -0.058172  0  3.692389  0  0.024577  0  -0.098151  0  3.940445  0  0  -0.094301  0  3.958934  0  0  -0.07001  -0.100267  0  3.927846  0
C  C54  1  0.68075714  0.14869500  0.22227853  1  0  -0.05816  0  3.692446  0  0.024808  0  -0.098119  0  3.940522  0  0  -0.094276  0  3.959021  0  0  -0.07002  -0.100239  0  3.927925  0
C  C55  1  0.81924395  0.64869387  0.27772251  1  0  -0.058169  0  3.692496  0  0.024836  0  -0.098135  0  3.940534  0  0  -0.094296  0  3.959028  0  0  -0.070004  -0.100257  0  3.927942  0
C  C56  1  0.33745425  0.92853892  0.85206446  1  0  -0.076359  0  3.766095  0  -0.073252  0  -0.046535  0  3.996757  0  0  -0.05815  0  4.021962  0  0  -0.017035  -0.039112  0  3.979926  0
C  C57  1  0.16254422  0.42853754  0.64793419  1  0  -0.076356  0  3.766113  0  -0.073235  0  -0.046548  0  3.9968  0  0  -0.058161  0  4.022002  0  0  -0.016994  -0.039124  0  3.979972  0
C  C58  1  0.66254606  0.07146234  0.14793546  1  0  -0.076363  0  3.766061  0  -0.073359  0  -0.046592  0  3.996786  0  0  -0.058207  0  4.021989  0  0  -0.017036  -0.039172  0  3.979954  0
C  C59  1  0.83745251  0.57146008  0.35206437  1  0  -0.076349  0  3.766121  0  -0.073372  0  -0.046545  0  3.996762  0  0  -0.058161  0  4.021969  0  0  -0.017044  -0.039117  0  3.979924  0
C  C60  1  0.47645605  0.99846477  0.86113759  1  0  -0.0615  0  3.644108  0  0.055147  0  -0.098904  0  3.891322  0  0  -0.095513  0  3.908968  0  0  -0.066583  -0.100936  0  3.879647  0
C  C61  1  0.02354135  0.49846328  0.63886095  1  0  -0.061402  0  3.644148  0  0.055354  0  -0.098816  0  3.891367  0  0  -0.095421  0  3.909009  0  0  -0.066574  -0.10084  0  3.879686  0
C  C62  1  0.52354426  0.00153648  0.13886233  1  0  -0.061432  0  3.644073  0  0.055166  0  -0.09883  0  3.891283  0  0  -0.095434  0  3.908925  0  0  -0.066546  -0.10085  0  3.879598  0
C  C63  1  0.97645419  0.50153433  0.36113829  1  0  -0.06141  0  3.644092  0  0.055166  0  -0.098809  0  3.891281  0  0  -0.095415  0  3.908926  0  0  -0.066549  -0.10084  0  3.879604  0
C  C64  1  0.74296193  0.07146409  0.80374659  1  0  -0.05474  0  3.623477  0  0.317962  0  -0.133448  0  3.871157  0  0  -0.12012  0  3.883524  0  0  -0.040239  -0.135883  0  3.864394  0
C  C65  1  0.75703721  0.57146406  0.69625368  1  0  -0.054689  0  3.623452  0  0.317942  0  -0.13332  0  3.871032  0  0  -0.120006  0  3.883418  0  0  -0.040226  -0.135767  0  3.864261  0
C  C66  1  0.25703839  0.92853625  0.19625400  1  0  -0.054716  0  3.623511  0  0.31779  0  -0.133349  0  3.871095  0  0  -0.120032  0  3.883481  0  0  -0.040255  -0.135805  0  3.864327  0
C  C67  1  0.24296191  0.42853447  0.30374623  1  0  -0.054726  0  3.623458  0  0.317779  0  -0.133434  0  3.871123  0  0  -0.120111  0  3.883547  0  0  -0.040215  -0.135874  0  3.864363  0
C  C68  1  0.88257125  0.18766020  0.58714463  1  0  0.128375  0  3.814685  0  0.40222  0  0.122825  0  4.067213  0  0  0.124202  0  4.089176  0  0  0.09908  0.122006  0  4.050478  0
C  C69  1  0.61743047  0.68766026  0.91285476  1  0  0.128421  0  3.814664  0  0.402227  0  0.122856  0  4.067195  0  0  0.124236  0  4.089157  0  0  0.099107  0.12204  0  4.050465  0
C  C70  1  0.11742906  0.81233924  0.41285461  1  0  0.128435  0  3.814661  0  0.402235  0  0.122909  0  4.067173  0  0  0.124289  0  4.089134  0  0  0.099146  0.122097  0  4.050452  0
C  C71  1  0.38257462  0.31234009  0.08714583  1  0  0.128407  0  3.814585  0  0.402924  0  0.122721  0  4.067302  0  0  0.1241  0  4.089263  0  0  0.099045  0.121903  0  4.050574  0
C  C72  1  0.91321442  0.11472516  0.66402874  1  0  0.086043  0  3.799269  0  0.29761  0  0.061227  0  4.044876  0  0  0.073744  0  4.070351  0  0  0.106639  0.059379  0  4.029046  0
C  C73  1  0.58678598  0.61472453  0.83597146  1  0  0.085917  0  3.799322  0  0.297466  0  0.061104  0  4.044957  0  0  0.073618  0  4.070429  0  0  0.106589  0.059258  0  4.029134  0
C  C74  1  0.08678470  0.88527518  0.33597118  1  0  0.08598  0  3.799257  0  0.297592  0  0.061122  0  4.044916  0  0  0.073636  0  4.070389  0  0  0.106601  0.059275  0  4.029106  0
C  C75  1  0.41321791  0.38527582  0.16402981  1  0  0.086  0  3.799392  0  0.29707  0  0.061229  0  4.045046  0  0  0.073763  0  4.070524  0  0  0.106613  0.059373  0  4.029236  0
C  C76  1  0.05504332  0.04872609  0.67488362  1  0  -0.136139  0  3.721592  0  0.03971  0  -0.154036  0  3.977486  0  0  -0.158724  0  3.997398  0  0  -0.087218  -0.151024  0  3.962994  0
C  C77  1  0.44495689  0.54872675  0.82511569  1  0  -0.136134  0  3.721576  0  0.039701  0  -0.154043  0  3.977485  0  0  -0.158733  0  3.997399  0  0  -0.087247  -0.151035  0  3.962991  0
C  C78  1  0.94495700  0.95127335  0.32511629  1  0  -0.136195  0  3.721596  0  0.039707  0  -0.15409  0  3.977512  0  0  -0.15878  0  3.997425  0  0  -0.087255  -0.151079  0  3.963021  0
C  C79  1  0.55504581  0.45127451  0.17488558  1  0  -0.136173  0  3.721649  0  0.039776  0  -0.154083  0  3.97753  0  0  -0.158772  0  3.99744  0  0  -0.087219  -0.15107  0  3.963041  0
C  C80  1  0.16614072  0.06139847  0.60598967  1  0  -0.030867  0  3.721329  0  0.029221  0  -0.047837  0  3.97313  0  0  -0.048268  0  3.995593  0  0  -0.078355  -0.047458  0  3.958135  0
C  C81  1  0.33385831  0.56139881  0.89400962  1  0  -0.030785  0  3.721227  0  0.029215  0  -0.047747  0  3.973034  0  0  -0.048175  0  3.995497  0  0  -0.078329  -0.04737  0  3.958037  0
C  C82  1  0.83385720  0.93860097  0.39400889  1  0  -0.030799  0  3.721262  0  0.029223  0  -0.047753  0  3.973054  0  0  -0.048182  0  3.995517  0  0  -0.078318  -0.047381  0  3.958067  0
C  C83  1  0.66614558  0.43860245  0.10599233  1  0  -0.030874  0  3.721373  0  0.029484  0  -0.047783  0  3.973122  0  0  -0.048219  0  3.995582  0  0  -0.078343  -0.047399  0  3.95812  0
C  C84  1  0.13691292  0.13425154  0.52852240  1  0  -0.06209  0  3.730753  0  -0.029835  0  -0.079804  0  3.988183  0  0  -0.083506  0  4.01103  0  0  -0.087746  -0.077345  0  3.972896  0
C  C85  1  0.36308624  0.63425166  0.97147609  1  0  -0.062114  0  3.73077  0  -0.029748  0  -0.07983  0  3.988199  0  0  -0.083533  0  4.011047  0  0  -0.087749  -0.07737  0  3.972905  0
C  C86  1  0.86308500  0.86574790  0.47147616  1  0  -0.061969  0  3.730727  0  -0.029756  0  -0.079681  0  3.988155  0  0  -0.083383  0  4.011001  0  0  -0.08773  -0.077223  0  3.97286  0
C  C87  1  0.63691885  0.36574960  0.02852451  1  0  -0.061962  0  3.730725  0  -0.030214  0  -0.079679  0  3.988134  0  0  -0.083382  0  4.010987  0  0  -0.087716  -0.077219  0  3.97284  0
C  C88  1  0.99485540  0.19715587  0.51696473  1  0  -0.121033  0  3.709803  0  0.014627  0  -0.141568  0  3.961155  0  0  -0.143794  0  3.982583  0  0  -0.080925  -0.139968  0  3.946905  0
C  C89  1  0.50514515  0.69715561  0.98303465  1  0  -0.121012  0  3.709767  0  0.014659  0  -0.141544  0  3.96112  0  0  -0.143771  0  3.982547  0  0  -0.08091  -0.139947  0  3.946866  0
C  C90  1  0.00514253  0.80284357  0.48303451  1  0  -0.121121  0  3.70981  0  0.014644  0  -0.141668  0  3.961169  0  0  -0.143896  0  3.982597  0  0  -0.080975  -0.14007  0  3.946895  0
C  C91  1  0.49486114  0.30284474  0.01696662  1  0  -0.120988  0  3.70973  0  0.01468  0  -0.141485  0  3.961133  0  0  -0.143712  0  3.982562  0  0  -0.080899  -0.139883  0  3.946874  0
C  C92  1  0.41095053  0.76603181  0.63093117  1  0  0.61458  0  3.942712  0  1.577931  0  0.568624  0  4.22787  0  0  0.602742  0  4.222463  0  0  0.190611  0.545548  0  4.230718  0
C  C93  1  0.08904647  0.26603058  0.86906844  1  0  0.614422  0  3.942794  0  1.578036  0  0.568454  0  4.227968  0  0  0.602578  0  4.222567  0  0  0.190555  0.54538  0  4.230812  0
C  C94  1  0.58904979  0.23396854  0.36906874  1  0  0.614441  0  3.9427  0  1.577946  0  0.568473  0  4.227908  0  0  0.602588  0  4.222503  0  0  0.190562  0.545399  0  4.230756  0
C  C95  1  0.91095145  0.73396795  0.13093148  1  0  0.61446  0  3.942742  0  1.578013  0  0.568531  0  4.227879  0  0  0.602646  0  4.222473  0  0  0.190592  0.545454  0  4.230728  0
C  C96  1  0.20296436  0.94334942  0.91721340  1  0  0.679682  0  3.857616  0  1.608046  0  0.624991  0  4.146157  0  0  0.661874  0  4.136655  0  0  0.224175  0.59983  0  4.152039  0
C  C97  1  0.29703414  0.44335019  0.58278658  1  0  0.679721  0  3.85767  0  1.608022  0  0.625055  0  4.146192  0  0  0.661936  0  4.136689  0  0  0.224201  0.599898  0  4.152076  0
C  C98  1  0.79703596  0.05665275  0.08278719  1  0  0.679683  0  3.85771  0  1.608128  0  0.625007  0  4.146253  0  0  0.661889  0  4.136749  0  0  0.224165  0.599848  0  4.152124  0
C  C99  1  0.70296378  0.55665198  0.41721334  1  0  0.679551  0  3.857727  0  1.608134  0  0.624919  0  4.146179  0  0  0.661804  0  4.136679  0  0  0.224143  0.599758  0  4.152052  0
N  N100  1  0.78081555  0.12992457  0.71741280  1  0  0.015646  0  3.532283  0  -0.819496  0  0.127205  0  3.724231  0  0  0.08779  0  3.782885  0  0  -0.11452  0.134242  0  3.708457  0
N  N101  1  0.71918487  0.62992514  0.78258738  1  0  0.015657  0  3.532373  0  -0.819372  0  0.127178  0  3.724342  0  0  0.08777  0  3.782985  0  0  -0.114538  0.134213  0  3.708571  0
N  N102  1  0.21918476  0.87007577  0.28258712  1  0  0.015693  0  3.532304  0  -0.81931  0  0.127259  0  3.72422  0  0  0.087851  0  3.782866  0  0  -0.114515  0.134297  0  3.708454  0
N  N103  1  0.28081663  0.37007520  0.21741254  1  0  0.01583  0  3.532275  0  -0.819303  0  0.127329  0  3.72428  0  0  0.087871  0  3.782966  0  0  -0.11448  0.134367  0  3.708511  0
N  N104  1  0.67531801  0.20524295  0.67864255  1  0  -0.039365  0  2.839006  0  -0.029697  0  -0.059946  0  3.106238  0  0  -0.042533  0  3.121385  0  0  -0.068964  -0.064958  0  3.099437  0
N  N105  1  0.82468255  0.70524259  0.82135682  1  0  -0.039328  0  2.839002  0  -0.029728  0  -0.059909  0  3.10623  0  0  -0.042498  0  3.121378  0  0  -0.068943  -0.064917  0  3.099424  0
N  N106  1  0.32468111  0.79475740  0.32135737  1  0  -0.039421  0  2.839046  0  -0.029691  0  -0.060014  0  3.106288  0  0  -0.042601  0  3.121432  0  0  -0.068973  -0.065024  0  3.099483  0
N  N107  1  0.17532135  0.29475684  0.17864310  1  0  -0.039428  0  2.838922  0  -0.029641  0  -0.05999  0  3.106177  0  0  -0.042561  0  3.121331  0  0  -0.06898  -0.065001  0  3.099373  0
N  N108  1  0.73492395  0.24045555  0.60037861  1  0  -0.281695  0  3.219059  0  -0.698282  0  -0.219791  0  3.529234  0  0  -0.233877  0  3.536128  0  0  -0.21142  -0.20981  0  3.522217  0
N  N109  1  0.76507667  0.74045671  0.89962070  1  0  -0.281729  0  3.219075  0  -0.698287  0  -0.219803  0  3.529232  0  0  -0.23389  0  3.536127  0  0  -0.211425  -0.209822  0  3.522215  0
N  N110  1  0.26507517  0.75954389  0.39962063  1  0  -0.28166  0  3.219072  0  -0.698278  0  -0.219759  0  3.529241  0  0  -0.233845  0  3.536133  0  0  -0.211415  -0.209778  0  3.522223  0
N  N111  1  0.23492962  0.25954273  0.10037922  1  0  -0.281729  0  3.218858  0  -0.69845  0  -0.219783  0  3.529075  0  0  -0.233869  0  3.535963  0  0  -0.211402  -0.209797  0  3.522054  0
O  O112  1  0.52615364  0.75010471  0.57339227  1  0  -0.649576  0  1.979452  0  -1.199412  0  -0.581308  0  2.233376  0  0  -0.610539  0  2.220343  0  0  -0.330471  -0.560832  0  2.241637  0
O  O113  1  0.97384580  0.25010003  0.92660567  1  0  -0.649537  0  1.979606  0  -1.199515  0  -0.581269  0  2.23354  0  0  -0.610498  0  2.220504  0  0  -0.330455  -0.560794  0  2.2418  0
O  O114  1  0.47384667  0.24989838  0.42660562  1  0  -0.64954  0  1.979465  0  -1.199553  0  -0.581267  0  2.233406  0  0  -0.610496  0  2.220374  0  0  -0.330464  -0.560786  0  2.241664  0
O  O115  1  0.02615212  0.74989485  0.07339357  1  0  -0.649532  0  1.979586  0  -1.199446  0  -0.581294  0  2.233539  0  0  -0.610524  0  2.220506  0  0  -0.330486  -0.560813  0  2.241797  0
O  O116  1  0.27542485  0.71901322  0.61872859  1  0  -0.61445  0  1.961752  0  -1.199211  0  -0.559538  0  2.193107  0  0  -0.586284  0  2.186569  0  0  -0.312687  -0.540779  0  2.196904  0
O  O117  1  0.22457445  0.21901027  0.88127110  1  0  -0.614404  0  1.961713  0  -1.199191  0  -0.559488  0  2.193067  0  0  -0.586236  0  2.186529  0  0  -0.312694  -0.540729  0  2.196863  0
O  O118  1  0.72457904  0.28098530  0.38127200  1  0  -0.614408  0  1.961703  0  -1.199082  0  -0.55948  0  2.193049  0  0  -0.586227  0  2.186512  0  0  -0.312685  -0.540719  0  2.196847  0
O  O119  1  0.77542347  0.78099008  0.11873017  1  0  -0.614411  0  1.961622  0  -1.199211  0  -0.559496  0  2.192953  0  0  -0.586245  0  2.186418  0  0  -0.312689  -0.540734  0  2.196751  0
O  O120  1  0.06768820  0.90042196  0.89249124  1  0  -0.642146  0  2.082907  0  -1.198064  0  -0.571287  0  2.359598  0  0  -0.598873  0  2.341758  0  0  -0.314636  -0.552217  0  2.371491  0
O  O121  1  0.43231142  0.40042370  0.60750814  1  0  -0.642115  0  2.082873  0  -1.198027  0  -0.57132  0  2.359602  0  0  -0.598905  0  2.341766  0  0  -0.314647  -0.552247  0  2.371494  0
O  O122  1  0.93231211  0.09957839  0.10750867  1  0  -0.642155  0  2.082933  0  -1.198064  0  -0.571305  0  2.359618  0  0  -0.598887  0  2.341775  0  0  -0.314643  -0.55223  0  2.371504  0
O  O123  1  0.56768651  0.59957756  0.39249110  1  0  -0.642095  0  2.082947  0  -1.198078  0  -0.57128  0  2.35963  0  0  -0.598864  0  2.341788  0  0  -0.314641  -0.552202  0  2.371517  0
O  O124  1  0.22769015  0.99945899  0.99163755  1  0  -0.648626  0  2.081009  0  -1.223341  0  -0.579584  0  2.362299  0  0  -0.606877  0  2.345481  0  0  -0.319759  -0.560653  0  2.373408  0
O  O125  1  0.27230844  0.49945815  0.50836233  1  0  -0.648675  0  2.081052  0  -1.223346  0  -0.579601  0  2.362282  0  0  -0.606903  0  2.345491  0  0  -0.319761  -0.560671  0  2.373392  0
O  O126  1  0.77230777  0.00054227  0.00836236  1  0  -0.648637  0  2.081042  0  -1.223316  0  -0.579578  0  2.362302  0  0  -0.606881  0  2.34551  0  0  -0.319737  -0.560646  0  2.373406  0
O  O127  1  0.72768948  0.50054220  0.49163961  1  0  -0.648582  0  2.080971  0  -1.223346  0  -0.579555  0  2.36223  0  0  -0.606837  0  2.345387  0  0  -0.319737  -0.560622  0  2.373334  0
