# generated using pymatgen
data_CdH14C14N2O5
_symmetry_space_group_name_H-M   'P 1'
_cell_length_a   5.87130282
_cell_length_b   8.54719906
_cell_length_c   15.54361468
_cell_angle_alpha   85.52838139
_cell_angle_beta   89.52842443
_cell_angle_gamma   72.07574962
_symmetry_Int_Tables_number   1
_chemical_formula_structural   CdH14C14N2O5
_chemical_formula_sum   'Cd2 H28 C28 N4 O10'
_cell_volume   739.80767033
_cell_formula_units_Z   2
loop_
 _symmetry_equiv_pos_site_id
 _symmetry_equiv_pos_as_xyz
  1  'x, y, z'
loop_
 _atom_site_type_symbol
 _atom_site_label
 _atom_site_symmetry_multiplicity
 _atom_site_fract_x
 _atom_site_fract_y
 _atom_site_fract_z
 _atom_site_occupancy
 _atom_site_pbe_bader_charge
 _atom_site_pbe_bader_spin_density
 _atom_site_pbe_cm5_charge
 _atom_site_pbe_ddec_charge
 _atom_site_pbe_ddec_spin_density
 _atom_site_pbe_ddec_sum_bond_order
 _atom_site_pbe_magmom
Cd  Cd0  1  0.75060944  0.74679071  0.25015831  1  1.24552  0  0.767093  0.934645  0  2.067252  0
Cd  Cd1  1  0.24939824  0.25320312  0.74984312  1  1.245663  0  0.767103  0.934675  0  2.06729  0
H  H2  1  0.65291378  0.06527168  0.65840335  1  0.451717  0  0.315536  0.313328  0  0.912964  0
H  H3  1  0.35017217  0.37274688  0.89200582  1  0.466041  0  0.302703  0.305405  0  0.945389  0
H  H4  1  0.34710460  0.93472470  0.34159758  1  0.451842  0  0.315528  0.313276  0  0.91289  0
H  H5  1  0.64979336  0.62727765  0.10799161  1  0.465915  0  0.302633  0.305352  0  0.945574  0
H  H6  1  0.44420518  0.96910937  0.66625527  1  0.473796  0  0.3088  0.314993  0  0.93069  0
H  H7  1  0.07468308  0.49680468  0.86916215  1  0.449953  0  0.313857  0.311832  0  0.915099  0
H  H8  1  0.55581663  0.03088080  0.33374844  1  0.473839  0  0.308827  0.314979  0  0.930738  0
H  H9  1  0.92527721  0.50320513  0.13082783  1  0.450044  0  0.313827  0.311879  0  0.915125  0
H  H10  1  0.47711995  0.44459495  0.41689475  1  0.131864  0  0.104415  0.111182  0  1.034014  0
H  H11  1  0.28024256  0.99984284  0.11847672  1  0.084123  0  0.102644  0.101887  0  1.027313  0
H  H12  1  0.52289294  0.55538911  0.58310248  1  0.131802  0  0.10444  0.111176  0  1.033974  0
H  H13  1  0.71975385  0.00017209  0.88151691  1  0.083937  0  0.102533  0.101664  0  1.027434  0
H  H14  1  0.90780748  0.22722549  0.42961467  1  0.078405  0  0.101663  0.099936  0  1.036778  0
H  H15  1  0.56917633  0.32174217  0.06349443  1  0.102988  0  0.097671  0.093694  0  1.051363  0
H  H16  1  0.09219406  0.77277432  0.57039441  1  0.078442  0  0.10166  0.099882  0  1.036739  0
H  H17  1  0.43080907  0.67826012  0.93650862  1  0.103139  0  0.09767  0.093642  0  1.051355  0
H  H18  1  0.09853405  0.04976621  0.56153264  1  0.042303  0  0.101163  0.110118  0  1.015826  0
H  H19  1  0.72131632  0.45681423  0.93554775  1  0.059412  0  0.10165  0.112554  0  1.016731  0
H  H20  1  0.90147452  0.95023244  0.43847496  1  0.042023  0  0.101179  0.110144  0  1.015764  0
H  H21  1  0.27865142  0.54319661  0.06445482  1  0.059449  0  0.101685  0.112585  0  1.016559  0
H  H22  1  0.66086080  0.27616179  0.55058752  1  0.072077  0  0.104684  0.116363  0  1.02483  0
H  H23  1  0.43279129  0.13491076  0.99534822  1  0.040333  0  0.103364  0.111602  0  1.034182  0
H  H24  1  0.33915475  0.72382354  0.44940891  1  0.072166  0  0.104696  0.116411  0  1.024729  0
H  H25  1  0.56718732  0.86510900  0.00464448  1  0.040106  0  0.103374  0.111577  0  1.034214  0
H  H26  1  0.33301942  0.63841363  0.25327121  1  0.648225  0  0.294059  0.40403  0  0.920417  0
H  H27  1  0.23210935  0.80491070  0.19858086  1  0.63986  0  0.282327  0.383195  0  0.965199  0
H  H28  1  0.66698814  0.36157768  0.74673229  1  0.648283  0  0.294042  0.40398  0  0.92047  0
H  H29  1  0.76790340  0.19508316  0.80142039  1  0.639814  0  0.282385  0.383306  0  0.965061  0
C  C30  1  0.17519007  0.35078909  0.41651781  1  0.035416  0  -0.031419  -0.061623  0  3.995508  0
C  C31  1  0.91176394  0.15015163  0.09839066  1  0.034755  0  -0.031869  -0.063959  0  3.992796  0
C  C32  1  0.82481298  0.64920466  0.58348572  1  0.035192  0  -0.031399  -0.061511  0  3.995256  0
C  C33  1  0.08822689  0.84985082  0.90160639  1  0.034238  0  -0.031933  -0.064148  0  3.992713  0
C  C34  1  0.03623173  0.47800518  0.34988288  1  1.514663  0  0.192281  0.567873  0  4.217403  0
C  C35  1  0.80948478  0.06450954  0.16938588  1  1.561482  0  0.19231  0.569772  0  4.232199  0
C  C36  1  0.96376866  0.52199220  0.65012378  1  1.515035  0  0.192219  0.567742  0  4.217895  0
C  C37  1  0.19052187  0.93548437  0.83061106  1  1.561498  0  0.192366  0.569864  0  4.232392  0
C  C38  1  0.39325485  0.35902006  0.44889551  1  -0.077668  0  -0.079227  -0.06235  0  3.951593  0
C  C39  1  0.15532072  0.09840871  0.07841569  1  -0.065407  0  -0.080193  -0.053847  0  3.975041  0
C  C40  1  0.60674972  0.64097253  0.55110480  1  -0.077401  0  -0.079252  -0.062352  0  3.951383  0
C  C41  1  0.84467020  0.90160369  0.92157890  1  -0.065179  0  -0.080161  -0.053636  0  3.974982  0
C  C42  1  0.38954184  0.15415805  0.56500238  1  0.352243  0  0.086766  0.280492  0  4.058327  0
C  C43  1  0.08647800  0.30365055  0.95702659  1  0.270543  0  0.087766  0.286106  0  4.055536  0
C  C44  1  0.61047121  0.84583579  0.43500015  1  0.352435  0  0.086702  0.280365  0  4.058277  0
C  C45  1  0.91349250  0.69636289  0.04297059  1  0.269948  0  0.087687  0.285935  0  4.055584  0
C  C46  1  0.07534122  0.23437949  0.45595947  1  -0.084747  0  -0.087158  -0.082939  0  4.001644  0
C  C47  1  0.75768228  0.28136664  0.04666058  1  -0.063653  0  -0.091099  -0.095132  0  4.024417  0
C  C48  1  0.92466777  0.76561304  0.54404521  1  -0.085216  0  -0.087185  -0.082874  0  4.001496  0
C  C49  1  0.24230267  0.71863569  0.95334055  1  -0.064091  0  -0.091096  -0.095035  0  4.024362  0
C  C50  1  0.18093058  0.13635654  0.52943978  1  -0.000509  0  -0.105621  -0.200946  0  3.988203  0
C  C51  1  0.84214751  0.35627881  0.97618964  1  -0.038553  0  -0.105808  -0.200609  0  3.993906  0
C  C52  1  0.81908249  0.86363849  0.47056528  1  4e-06  0  -0.105582  -0.200946  0  3.988088  0
C  C53  1  0.15782401  0.64372965  0.02380971  1  -0.037756  0  -0.105761  -0.200532  0  3.993692  0
C  C54  1  0.49861207  0.26251335  0.52276553  1  -0.043466  0  -0.102186  -0.201018  0  3.966005  0
C  C55  1  0.24215277  0.17447928  0.00899385  1  0.024482  0  -0.102537  -0.200206  0  3.966517  0
C  C56  1  0.50140180  0.73747687  0.47723329  1  -0.043498  0  -0.102205  -0.201066  0  3.965847  0
C  C57  1  0.75782785  0.82553676  0.99100026  1  0.02478  0  -0.102439  -0.200074  0  3.966317  0
N  N58  1  0.47721038  0.07724164  0.64709734  1  -1.212444  0  -0.59238  -0.605547  0  3.39838  0
N  N59  1  0.17486295  0.37749558  0.88521811  1  -1.209452  0  -0.600656  -0.605385  0  3.379762  0
N  N60  1  0.52280944  0.92275225  0.35290495  1  -1.212547  0  -0.592353  -0.605429  0  3.398375  0
N  N61  1  0.82510303  0.62252030  0.11477910  1  -1.208985  0  -0.600544  -0.605342  0  3.379838  0
O  O62  1  0.82963252  0.47762310  0.32559778  1  -1.158339  0  -0.335774  -0.552419  0  2.133636  0
O  O63  1  0.59441175  0.12108889  0.18933361  1  -1.183956  0  -0.335084  -0.555925  0  2.097149  0
O  O64  1  0.17035792  0.52238146  0.67441725  1  -1.158888  0  -0.335753  -0.552403  0  2.133904  0
O  O65  1  0.40558561  0.87889878  0.81066268  1  -1.184067  0  -0.335063  -0.555914  0  2.097434  0
O  O66  1  0.12150200  0.59476467  0.32275066  1  -1.188397  0  -0.338756  -0.593847  0  2.243064  0
O  O67  1  0.95363141  0.92648960  0.20544445  1  -1.186701  0  -0.349811  -0.60907  0  2.311858  0
O  O68  1  0.87850554  0.40522546  0.67725032  1  -1.188492  0  -0.338712  -0.593781  0  2.24322  0
O  O69  1  0.04637861  0.07350805  0.79455218  1  -1.186684  0  -0.349846  -0.60915  0  2.311911  0
O  O70  1  0.38348080  0.70982649  0.20836205  1  -1.266862  0  -0.591193  -0.784188  0  2.063026  0
O  O71  1  0.61652831  0.29016485  0.79164075  1  -1.26684  0  -0.591249  -0.78424  0  2.06308  0
