# generated using pymatgen
data_CeH16C24S3NO7
_symmetry_space_group_name_H-M   'P 1'
_cell_length_a   8.25340906
_cell_length_b   14.06423174
_cell_length_c   14.06623616
_cell_angle_alpha   71.32213176
_cell_angle_beta   88.16286738
_cell_angle_gamma   88.18977456
_symmetry_Int_Tables_number   1
_chemical_formula_structural   CeH16C24S3NO7
_chemical_formula_sum   'Ce2 H32 C48 S6 N2 O14'
_cell_volume   1545.59961310
_cell_formula_units_Z   2
loop_
 _symmetry_equiv_pos_site_id
 _symmetry_equiv_pos_as_xyz
  1  'x, y, z'
loop_
 _atom_site_type_symbol
 _atom_site_label
 _atom_site_symmetry_multiplicity
 _atom_site_fract_x
 _atom_site_fract_y
 _atom_site_fract_z
 _atom_site_occupancy
 _atom_site_pbe_bader_charge
 _atom_site_pbe_bader_spin_density
 _atom_site_pbe_cm5_charge
 _atom_site_pbe_ddec_charge
 _atom_site_pbe_ddec_spin_density
 _atom_site_pbe_ddec_sum_bond_order
 _atom_site_pbe_magmom
Ce  Ce0  1  0.59194662  0.08305897  0.05305970  1  2.25651  0.898138  1.282908  1.991874  0.994772  2.272248  0.876
Ce  Ce1  1  0.09271885  0.05314055  0.08340061  1  2.253974  0.899051  1.281986  1.990864  0.994729  2.271824  0.877
H  H2  1  0.10078353  0.69586363  0.87410152  1  0.090992  4.5e-05  0.097543  0.102134  -0.0  1.029016  0.0
H  H3  1  0.02692835  0.90364534  0.57811856  1  0.060877  0.000242  0.092098  0.095344  -5e-05  1.040959  0.0
H  H4  1  0.86194689  0.60031415  0.65388999  1  0.085641  0.000443  0.095544  0.099948  6e-06  1.032705  0.0
H  H5  1  0.06879527  0.34551656  0.05023411  1  0.086951  0.000165  0.109309  0.119753  -3.8e-05  1.008237  0.0
H  H6  1  0.13866750  0.53597488  0.95786511  1  0.06229  0.00011  0.102402  0.117592  8e-06  1.005456  0.0
H  H7  1  0.39461145  0.08955662  0.70409104  1  0.099119  0.000127  0.111068  0.129135  -4.1e-05  0.978003  0.0
H  H8  1  0.23837450  0.98644027  0.60864364  1  0.060848  4.1e-05  0.093674  0.101638  -1.7e-05  1.051154  0.0
H  H9  1  0.63299891  0.73454719  0.33145732  1  0.101735  8.6e-05  0.110847  0.126363  8e-06  0.98438  0.0
H  H10  1  0.71516573  0.64932037  0.52070915  1  0.070845  0.000204  0.102129  0.11789  5e-05  1.003623  0.0
H  H11  1  0.80551701  0.17235414  0.23799908  1  0.139503  2e-05  0.135205  0.067029  -5.3e-05  1.003936  0.0
H  H12  1  0.93396646  0.27572167  0.29230596  1  0.064245  3e-06  0.110825  0.121659  -1.2e-05  1.031274  0.0
H  H13  1  0.95909135  0.39587127  0.19940165  1  0.054225  8.9e-05  0.106374  0.121205  2.5e-05  0.981325  0.0
H  H14  1  0.82200117  0.38291656  0.30356959  1  0.052508  7.6e-05  0.106423  0.117422  1.7e-05  0.973368  0.0
H  H15  1  0.55404854  0.37883109  0.09451845  1  0.089178  2.6e-05  0.111274  0.127278  -1.4e-05  1.027517  0.0
H  H16  1  0.59568732  0.45402836  0.17307411  1  0.048318  8.6e-05  0.105311  0.117144  1.9e-05  0.975128  0.0
H  H17  1  0.72993269  0.45427829  0.07042864  1  0.061987  9.6e-05  0.102166  0.116396  2.4e-05  1.025144  0.0
H  H18  1  0.60077345  0.87407595  0.69571100  1  0.092473  5.9e-05  0.097429  0.101848  5e-06  1.029309  0.0
H  H19  1  0.52686707  0.57807310  0.90358333  1  0.061538  0.000241  0.091936  0.095358  -5.2e-05  1.041098  0.0
H  H20  1  0.36181904  0.65372612  0.60036447  1  0.083541  0.000427  0.095592  0.099874  6e-06  1.032578  0.0
H  H21  1  0.56809084  0.05021074  0.34527322  1  0.081418  0.000161  0.109235  0.119957  -4e-05  1.007633  0.0
H  H22  1  0.63825734  0.95801792  0.53566086  1  0.066428  0.000111  0.102377  0.117781  9e-06  1.004957  0.0
H  H23  1  0.89486922  0.70438820  0.08909415  1  0.101734  0.000121  0.111046  0.128982  -3.9e-05  0.977983  0.0
H  H24  1  0.73865868  0.60875051  0.98615576  1  0.062481  4.4e-05  0.093668  0.101698  -1.4e-05  1.051275  0.0
H  H25  1  0.13317747  0.33117363  0.73440873  1  0.101437  8.9e-05  0.110762  0.126271  7e-06  0.98448  0.0
H  H26  1  0.21540632  0.52045949  0.64925053  1  0.073969  0.000211  0.102114  0.117929  5.2e-05  1.003458  0.0
H  H27  1  0.30535630  0.23781575  0.17266610  1  0.141375  2.6e-05  0.135365  0.067315  -5.2e-05  1.004007  0.0
H  H28  1  0.43423082  0.29243475  0.27563832  1  0.062984  3e-06  0.111012  0.121865  -1.2e-05  1.030724  0.0
H  H29  1  0.45935201  0.19984095  0.39594363  1  0.054026  9.2e-05  0.106374  0.121189  2.6e-05  0.981314  0.0
H  H30  1  0.32247210  0.30412081  0.38274400  1  0.055381  7.7e-05  0.106711  0.117478  1.7e-05  0.973177  0.0
H  H31  1  0.05433144  0.09464217  0.37958141  1  0.096607  2.2e-05  0.111449  0.128228  -1.6e-05  1.026622  0.0
H  H32  1  0.09584077  0.17359817  0.45438513  1  0.048082  9e-05  0.105063  0.11721  2e-05  0.976081  0.0
H  H33  1  0.23025337  0.07096655  0.45491442  1  0.058663  0.000102  0.102215  0.116858  2.6e-05  1.024787  0.0
C  C34  1  0.97591736  0.63728487  0.77297372  1  0.056589  0.000516  -0.012219  0.089272  -0.000428  4.059328  -0.001
C  C35  1  0.05486465  0.71223072  0.79864043  1  -0.108405  0.00075  -0.086732  -0.159355  0.000184  3.892443  0.0
C  C36  1  0.07711555  0.80779717  0.72872794  1  0.035661  0.001242  -0.01143  0.089103  9.1e-05  4.069451  0.0
C  C37  1  0.01553015  0.82846261  0.63190795  1  -0.02752  0.013066  -0.097922  -0.190039  0.00399  3.930534  0.008
C  C38  1  0.93723985  0.75467330  0.60376989  1  -0.032719  -0.001453  -0.01456  0.085595  -0.002215  4.080797  -0.002
C  C39  1  0.91919250  0.65910115  0.67511879  1  -0.055228  0.014967  -0.093432  -0.176866  0.004541  3.903861  0.009
C  C40  1  0.95966982  0.53747940  0.84643851  1  -0.204026  0.010169  -0.009342  -0.005548  0.003029  3.983313  0.006
C  C41  1  0.89327916  0.35873489  0.93528316  1  -0.209602  0.003155  -0.026573  -0.124453  0.000658  3.972758  0.001
C  C42  1  0.01054853  0.39410739  0.98313760  1  0.032982  0.00687  -0.100191  -0.117008  0.002018  4.045273  0.004
C  C43  1  0.04659377  0.49547483  0.93380690  1  -0.046357  -0.000746  -0.112268  -0.173564  -0.001366  4.05344  -0.001
C  C44  1  0.82632558  0.25787082  0.96734523  1  1.573754  0.010162  0.210672  0.610394  0.00337  4.2324  0.007
C  C45  1  0.16534498  0.88391999  0.75489059  1  -0.20862  0.00826  -0.013785  -0.016525  0.002434  3.995918  0.005
C  C46  1  0.31399748  0.98039253  0.84335934  1  -0.171585  0.001983  -0.022675  -0.122616  0.000218  3.999112  0.0
C  C47  1  0.32552947  0.02226023  0.73974296  1  -0.001995  0.005334  -0.096702  -0.102027  0.001529  4.006013  0.003
C  C48  1  0.23991175  0.96825106  0.68976936  1  -0.001191  -0.000832  -0.113602  -0.160941  -0.001314  4.036642  -0.001
C  C49  1  0.38843766  0.01722656  0.91739566  1  1.531935  0.010223  0.197821  0.573219  0.003482  4.298574  0.007
C  C50  1  0.87295803  0.77593192  0.50327984  1  -0.186836  0.001321  -0.015181  -0.01724  0.000333  3.996461  0.001
C  C51  1  0.79461370  0.85478106  0.32507081  1  -0.224248  2e-05  -0.018917  -0.104283  -0.000245  3.942961  0.0
C  C52  1  0.72040823  0.76382415  0.37063966  1  0.108141  0.000892  -0.094776  -0.100438  0.000235  4.017286  0.001
C  C53  1  0.76526097  0.71888419  0.47111164  1  -0.087607  -0.000295  -0.111249  -0.162274  -0.000417  4.029142  0.0
C  C54  1  0.76217898  0.92678916  0.22564740  1  1.563474  0.001004  0.207491  0.596717  0.00021  4.244539  0.001
C  C55  1  0.71767486  0.22928469  0.19462635  1  1.364201  0.001506  0.189723  0.319408  0.000407  4.077967  0.001
C  C56  1  0.87143110  0.34577151  0.25056808  1  0.286553  1.3e-05  -0.126213  -0.271302  -1.3e-05  3.926018  0.0
C  C57  1  0.64912244  0.40777360  0.12966576  1  0.264031  5.4e-05  -0.133204  -0.277158  8e-06  3.900591  0.0
C  C58  1  0.47582470  0.77288324  0.63722245  1  0.05677  0.000543  -0.011843  0.089019  -0.000384  4.05936  0.0
C  C59  1  0.55478332  0.79859882  0.71211739  1  -0.108917  0.000758  -0.087081  -0.159315  0.000187  3.892971  0.0
C  C60  1  0.57698454  0.72870803  0.80768251  1  0.035773  0.001104  -0.011341  0.089035  2.6e-05  4.069604  0.0
C  C61  1  0.51543145  0.63183713  0.82840193  1  -0.024693  0.013375  -0.097271  -0.189537  0.004085  3.930156  0.008
C  C62  1  0.43716999  0.60363259  0.75465882  1  -0.034645  -0.001406  -0.015135  0.084822  -0.002157  4.080713  -0.002
C  C63  1  0.41910071  0.67498248  0.65910716  1  -0.054182  0.014266  -0.093158  -0.175994  0.004328  3.903633  0.008
C  C64  1  0.45951652  0.84629951  0.53739661  1  -0.211046  0.010098  -0.009792  -0.005898  0.003008  3.983122  0.006
C  C65  1  0.39288516  0.93496611  0.35868067  1  -0.248256  0.003233  -0.026564  -0.124395  0.000669  3.972649  0.001
C  C66  1  0.51003677  0.98302586  0.39392388  1  0.037796  0.006771  -0.099922  -0.11703  0.001989  4.044406  0.004
C  C67  1  0.54623521  0.93379233  0.49526502  1  -0.041599  -0.00073  -0.112006  -0.17322  -0.001343  4.0519  -0.001
C  C68  1  0.32563607  0.96672616  0.25794066  1  1.621323  0.009905  0.209884  0.60969  0.003319  4.233806  0.007
C  C69  1  0.66517769  0.75493991  0.88376605  1  -0.209242  0.007847  -0.013692  -0.016186  0.002309  3.995186  0.005
C  C70  1  0.81377352  0.84358795  0.98008270  1  -0.176437  0.001915  -0.022255  -0.122653  0.000212  3.998202  0.0
C  C71  1  0.82559791  0.73997354  0.02190365  1  0.006269  0.005003  -0.096915  -0.101658  0.00143  4.0053  0.003
C  C72  1  0.73997677  0.68989294  0.96798759  1  -0.007117  -0.000751  -0.113313  -0.160839  -0.001222  4.036385  -0.001
C  C73  1  0.88803366  0.91781379  0.01679395  1  1.538752  0.009689  0.198376  0.574287  0.003305  4.297067  0.007
C  C74  1  0.37291728  0.50309293  0.77592048  1  -0.190399  0.001469  -0.014946  -0.017456  0.000379  3.997016  0.001
C  C75  1  0.29446856  0.32481734  0.85472553  1  -0.225234  0.000177  -0.018808  -0.103795  -0.000168  3.941763  0.0
C  C76  1  0.22048467  0.37038104  0.76373745  1  0.106169  0.001043  -0.094593  -0.099847  0.000282  4.016773  0.001
C  C77  1  0.26536969  0.47088382  0.71883354  1  -0.088843  -0.000245  -0.11151  -0.162748  -0.000388  4.030061  0.0
C  C78  1  0.26165113  0.22539649  0.92667812  1  1.559822  0.001203  0.207242  0.596377  0.000297  4.244843  0.001
C  C79  1  0.21762991  0.19451331  0.22978502  1  1.361093  0.001608  0.190092  0.318966  0.000442  4.077307  0.001
C  C80  1  0.37171509  0.25090974  0.34579821  1  0.286875  1.2e-05  -0.126578  -0.271904  -1.4e-05  3.925171  0.0
C  C81  1  0.14935166  0.13002370  0.40831231  1  0.257384  5.1e-05  -0.132945  -0.279123  6e-06  3.902481  0.0
S  S82  1  0.82807910  0.45133998  0.82925012  1  0.23564  0.005581  0.09973  0.126953  0.001174  2.934905  0.003
S  S83  1  0.19872311  0.87422923  0.87820129  1  0.250806  0.006589  0.120956  0.162613  0.001433  2.922444  0.004
S  S84  1  0.92129389  0.88336010  0.40650278  1  0.245188  0.000314  0.105694  0.13887  -0.000133  3.00253  0.0
S  S85  1  0.32796618  0.82887547  0.45139662  1  0.237681  0.005526  0.10007  0.127241  0.001158  2.935729  0.003
S  S86  1  0.69826240  0.87830172  0.87408901  1  0.249403  0.006307  0.120836  0.16217  0.001363  2.923074  0.004
S  S87  1  0.42102461  0.40630879  0.88337051  1  0.246932  0.000328  0.10599  0.139106  -0.000141  3.000893  0.0
N  N88  1  0.74192935  0.32345570  0.19428183  1  -1.210183  0.000444  -0.286026  0.016887  5.8e-05  3.725187  0.0
N  N89  1  0.24206196  0.19449857  0.32381025  1  -1.209655  0.000484  -0.286528  0.018021  6.9e-05  3.724411  0.0
O  O90  1  0.89595556  0.19042399  0.04019006  1  -1.196536  -0.000991  -0.387813  -0.687783  -0.003804  2.398048  -0.005
O  O91  1  0.69877050  0.24024864  0.92821512  1  -1.159374  0.002496  -0.347135  -0.58325  -0.000926  2.191994  -0.001
O  O92  1  0.50311089  0.07935204  0.88905004  1  -1.161267  0.001006  -0.355138  -0.5772  -0.001826  2.195487  -0.002
O  O93  1  0.34064744  0.98533578  0.01081979  1  -1.190305  -0.001286  -0.377574  -0.683978  -0.004459  2.266488  -0.005
O  O94  1  0.65375477  0.90802818  0.17241840  1  -1.165076  -0.002465  -0.339785  -0.573513  -0.003675  2.163243  -0.003
O  O95  1  0.83809387  0.01095991  0.19671053  1  -1.205302  0.000842  -0.373015  -0.695978  -0.001185  2.297038  -0.002
O  O96  1  0.60388485  0.20700512  0.14965838  1  -1.179315  -0.000572  -0.330661  -0.516104  -0.002026  2.395524  -0.002
O  O97  1  0.39439982  0.03991454  0.19027544  1  -1.209949  -0.001033  -0.38867  -0.688882  -0.003886  2.396982  -0.005
O  O98  1  0.19850928  0.92707512  0.24049659  1  -1.160164  0.002689  -0.34572  -0.581948  -0.00079  2.191819  -0.001
O  O99  1  0.00330823  0.88970214  0.07844642  1  -1.161996  0.000974  -0.355322  -0.577895  -0.001768  2.197137  -0.001
O  O100  1  0.83936582  0.01102246  0.98524921  1  -1.194169  -0.001432  -0.376616  -0.683124  -0.004547  2.266058  -0.005
O  O101  1  0.15367609  0.17204550  0.90767491  1  -1.163525  -0.00235  -0.338825  -0.57266  -0.003672  2.162916  -0.004
O  O102  1  0.33675526  0.19652048  0.01114915  1  -1.201973  0.001056  -0.373889  -0.696979  -0.001092  2.29466  -0.002
O  O103  1  0.10381377  0.14931286  0.20784296  1  -1.177539  -0.00055  -0.330656  -0.515741  -0.002039  2.394385  -0.002
