# generated using pymatgen
data_ZnH14C22NO8
_symmetry_space_group_name_H-M   'P 1'
_cell_length_a   13.98745157
_cell_length_b   15.26345040
_cell_length_c   19.52906658
_cell_angle_alpha   90.38934107
_cell_angle_beta   89.64722349
_cell_angle_gamma   92.17848983
_symmetry_Int_Tables_number   1
_chemical_formula_structural   ZnH14C22NO8
_chemical_formula_sum   'Zn2 H28 C44 N2 O16'
_cell_volume   4166.21051743
_cell_formula_units_Z   2
loop_
 _symmetry_equiv_pos_site_id
 _symmetry_equiv_pos_as_xyz
  1  'x, y, z'
loop_
 _atom_site_type_symbol
 _atom_site_label
 _atom_site_symmetry_multiplicity
 _atom_site_fract_x
 _atom_site_fract_y
 _atom_site_fract_z
 _atom_site_occupancy
 _atom_site_pbe_bader_charge
 _atom_site_pbe_bader_spin_density
 _atom_site_pbe_cm5_charge
 _atom_site_pbe_ddec_charge
 _atom_site_pbe_ddec_spin_density
 _atom_site_pbe_ddec_sum_bond_order
 _atom_site_pbe_magmom
Zn  Zn0  1  0.40010998  0.47864972  0.50092112  1  1.284878  0  0.673125  0.818189  0  2.411498  0
Zn  Zn1  1  0.60147257  0.48875456  0.49813680  1  1.287186  0  0.671877  0.822115  0  2.401287  0
H  H2  1  0.64768399  0.61142223  0.16117170  1  0.102164  0  0.111797  0.140249  0  0.987395  0
H  H3  1  0.64474008  0.21366797  0.52427501  1  0.085187  0  0.10451  0.108924  0  0.996844  0
H  H4  1  0.34973566  0.20061651  0.46537425  1  0.088449  0  0.101845  0.102511  0  1.007447  0
H  H5  1  0.64244902  0.76496269  0.45988167  1  0.104319  0  0.105977  0.111186  0  0.996784  0
H  H6  1  0.93626130  0.53990781  0.60032782  1  0.095702  0  0.123167  0.131558  0  0.976188  0
H  H7  1  0.06373784  0.35524445  0.44641958  1  0.070667  0  0.118936  0.12484  0  0.983855  0
H  H8  1  0.92952179  0.42299879  0.39789904  1  0.114412  0  0.119996  0.12705  0  0.980954  0
H  H9  1  0.07450596  0.60657559  0.55044247  1  0.089379  0  0.120268  0.12652  0  0.980932  0
H  H10  1  0.75889396  0.54063308  0.59683917  1  0.12152  0  0.134051  0.108001  0  0.989036  0
H  H11  1  0.24304154  0.35972586  0.44931041  1  0.140168  0  0.132123  0.108723  0  0.97187  0
H  H12  1  0.75121440  0.42699108  0.40346726  1  0.13789  0  0.132593  0.108373  0  0.970536  0
H  H13  1  0.34810112  0.50453211  0.84949240  1  0.091899  0  0.105927  0.135334  0  0.993165  0
H  H14  1  0.25338299  0.60029953  0.54809460  1  0.141575  0  0.13221  0.108596  0  0.978444  0
H  H15  1  0.65944793  0.54355175  0.33367043  1  0.642727  0  0.300284  0.348764  0  0.978925  0
H  H16  1  0.34712890  0.45386953  0.67244098  1  0.644879  0  0.297711  0.34744  0  0.983335  0
H  H17  1  0.63718347  0.57163035  0.65523525  1  0.631604  0  0.293488  0.334686  0  1.012016  0
H  H18  1  0.35207701  0.47977930  0.33013895  1  0.657058  0  0.299041  0.350335  0  0.979073  0
H  H19  1  0.35440369  0.64040771  0.11724466  1  0.623534  0  0.31865  0.357325  0  0.916821  0
H  H20  1  0.69247395  0.48494757  0.95849447  1  0.63059  0  0.327715  0.365784  0  0.89756  0
H  H21  1  0.30145924  0.66340992  0.96769021  1  0.626971  0  0.329179  0.367139  0  0.891128  0
H  H22  1  0.64916213  0.50070147  0.10815242  1  0.600771  0  0.308502  0.347477  0  0.942174  0
H  H23  1  0.63273506  0.62442181  0.83132591  1  0.06547  0  0.106749  0.135522  0  0.989149  0
H  H24  1  0.35287921  0.51134981  0.15093445  1  0.075053  0  0.109971  0.137735  0  0.992515  0
H  H25  1  0.35478075  0.91926484  0.53847442  1  0.06376  0  0.101824  0.100486  0  1.002674  0
H  H26  1  0.64560701  0.05041509  0.52742854  1  0.06266  0  0.102251  0.101267  0  1.002268  0
H  H27  1  0.35035679  0.03741081  0.46483451  1  0.05278  0  0.101201  0.099772  0  1.004163  0
H  H28  1  0.64207921  0.92824995  0.45688010  1  0.056172  0  0.102212  0.100532  0  1.004471  0
H  H29  1  0.35512558  0.75610041  0.53785253  1  0.087417  0  0.102153  0.102225  0  1.006261  0
C  C30  1  0.50061512  0.65328238  0.49894729  1  1.571146  0  0.217048  0.59701  0  4.160212  0
C  C31  1  0.49799558  0.03217337  0.49631970  1  0.076548  0  -0.001472  0.076805  0  3.993598  0
C  C32  1  0.89859095  0.51546499  0.55501029  1  -0.022862  0  -0.069465  -0.166622  0  3.929218  0
C  C33  1  0.10268518  0.41140691  0.46890524  1  0.071522  0  -0.072224  -0.169971  0  3.935073  0
C  C34  1  0.89459062  0.44866577  0.44342399  1  -0.081544  0  -0.071956  -0.170289  0  3.935833  0
C  C35  1  0.10867955  0.55019906  0.52780771  1  0.026579  0  -0.070091  -0.167452  0  3.929094  0
C  C36  1  0.79936511  0.51574566  0.55358228  1  0.51926  0  0.068051  0.113374  0  3.904194  0
C  C37  1  0.20200619  0.41307229  0.47036908  1  0.436849  0  0.066042  0.110547  0  3.911164  0
C  C38  1  0.79546709  0.45139102  0.44576917  1  0.496874  0  0.064397  0.1095  0  3.909362  0
C  C39  1  0.20779146  0.54758155  0.52669027  1  0.430423  0  0.066708  0.113269  0  3.905795  0
C  C40  1  0.94844933  0.48169215  0.49884729  1  -0.016103  0  0.019445  0.106339  0  3.991262  0
C  C41  1  0.49515050  0.31464260  0.49496135  1  1.55435  0  0.219555  0.60257  0  4.154833  0
C  C42  1  0.05391031  0.48103830  0.49836115  1  -0.005439  0  0.020173  0.109212  0  3.984177  0
C  C43  1  0.49617077  0.49979581  0.63559948  1  1.44135  0  0.207167  0.611974  0  4.143282  0
C  C44  1  0.50741775  0.49896213  0.36036936  1  1.513643  0  0.211546  0.618819  0  4.14444  0
C  C45  1  0.58815004  0.55597675  0.25328022  1  0.511474  0  0.090891  0.357777  0  4.090203  0
C  C46  1  0.41054578  0.50426203  0.74900971  1  0.549438  0  0.087019  0.344914  0  4.080372  0
C  C47  1  0.57183051  0.57130318  0.73917166  1  0.51849  0  0.085968  0.346594  0  4.074235  0
C  C48  1  0.41820258  0.51303080  0.24983039  1  0.494047  0  0.092356  0.362067  0  4.080303  0
C  C49  1  0.58491224  0.57840591  0.18399262  1  -0.060405  0  -0.131307  -0.339989  0  3.977347  0
C  C50  1  0.41041091  0.52398145  0.81881159  1  0.016083  0  -0.120791  -0.295477  0  3.939624  0
C  C51  1  0.57026676  0.59131984  0.80871778  1  0.018101  0  -0.120008  -0.289451  0  3.948727  0
C  C52  1  0.41758145  0.79460347  0.52021467  1  -0.016124  0  -0.083591  -0.083608  0  3.992695  0
C  C53  1  0.41742132  0.52978178  0.17943963  1  0.00661  0  -0.130609  -0.334336  0  3.968404  0
C  C54  1  0.50063921  0.56215960  0.14597514  1  -0.044943  0  -0.005012  0.154562  0  4.076918  0
C  C55  1  0.49111998  0.56521859  0.84899570  1  0.000668  0  0.00626  0.177285  0  4.006654  0
C  C56  1  0.50466565  0.52262382  0.28771918  1  0.013045  0  -0.062823  -0.345669  0  3.972379  0
C  C57  1  0.49270286  0.52532579  0.70758240  1  0.020379  0  -0.064144  -0.347273  0  3.986291  0
C  C58  1  0.42392153  0.60790801  0.03549976  1  0.410993  0  0.046411  0.125571  0  4.123857  0
C  C59  1  0.57501742  0.54275653  0.95959756  1  0.528471  0  0.060631  0.154252  0  4.095746  0
C  C60  1  0.42101725  0.60830375  0.96383698  1  0.522736  0  0.059398  0.153777  0  4.101664  0
C  C61  1  0.57723271  0.54177642  0.03124508  1  0.463586  0  0.048322  0.131203  0  4.119598  0
C  C62  1  0.49594456  0.57443011  0.92443671  1  0.070583  0  -0.023565  -0.122595  0  3.98303  0
C  C63  1  0.58077944  0.17419740  0.51125426  1  -0.019786  0  -0.082733  -0.083684  0  3.985302  0
C  C64  1  0.50117724  0.57310774  0.07093921  1  0.046101  0  -0.046934  -0.172805  0  4.095865  0
C  C65  1  0.41746166  0.88571484  0.51985114  1  -0.069535  0  -0.0898  -0.134633  0  3.983732  0
C  C66  1  0.58100791  0.08307925  0.51236254  1  -0.009551  0  -0.089397  -0.13479  0  3.98167  0
C  C67  1  0.41466958  0.07575337  0.47912376  1  -0.130137  0  -0.090394  -0.135262  0  3.988043  0
C  C68  1  0.57953258  0.89087736  0.47588952  1  -0.108207  0  -0.089525  -0.133795  0  3.988009  0
C  C69  1  0.41416656  0.16677352  0.47863241  1  -0.007254  0  -0.08428  -0.084265  0  3.995108  0
C  C70  1  0.58000390  0.79989194  0.47683371  1  -0.016488  0  -0.081635  -0.081645  0  3.984005  0
C  C71  1  0.49891377  0.75088523  0.49880318  1  -0.031399  0  -0.020179  -0.038587  0  3.977323  0
C  C72  1  0.49713266  0.21695054  0.49466773  1  -0.057683  0  -0.020432  -0.039264  0  3.972214  0
C  C73  1  0.49831951  0.93549007  0.49742402  1  -0.025763  0  -0.001832  0.075749  0  3.996991  0
N  N74  1  0.74844787  0.48482532  0.49976687  1  -1.235034  0  -0.31448  -0.199035  0  3.508758  0
N  N75  1  0.25357103  0.48003353  0.49860347  1  -1.23711  0  -0.31781  -0.200753  0  3.516494  0
O  O76  1  0.42165051  0.61039869  0.51007053  1  -1.16926  0  -0.319763  -0.560476  0  2.349868  0
O  O77  1  0.33196561  0.46257454  0.72214542  1  -1.165713  0  -0.371752  -0.461855  0  2.238031  0
O  O78  1  0.65059206  0.59616727  0.70213368  1  -1.159023  0  -0.37673  -0.468783  0  2.244749  0
O  O79  1  0.33608954  0.48423055  0.28007391  1  -1.173935  0  -0.364352  -0.454528  0  2.232954  0
O  O80  1  0.34695955  0.64546646  0.06769463  1  -1.166631  0  -0.373654  -0.466122  0  2.294358  0
O  O81  1  0.64908810  0.50694010  0.92406117  1  -1.139359  0  -0.356298  -0.431302  0  2.281531  0
O  O82  1  0.34427615  0.64315288  0.93165925  1  -1.131496  0  -0.358572  -0.433016  0  2.265764  0
O  O83  1  0.65554059  0.50181540  0.05809993  1  -1.143837  0  -0.37276  -0.46373  0  2.309848  0
O  O84  1  0.57463066  0.35783419  0.50155142  1  -1.171661  0  -0.319643  -0.554578  0  2.337486  0
O  O85  1  0.41363779  0.34841642  0.48882370  1  -1.163144  0  -0.3185  -0.547923  0  2.353747  0
O  O86  1  0.58087287  0.61920885  0.48761877  1  -1.155962  0  -0.317189  -0.540505  0  2.341557  0
O  O87  1  0.42057479  0.46606804  0.60653649  1  -1.178368  0  -0.316378  -0.552052  0  2.327805  0
O  O88  1  0.58938149  0.49139123  0.38903224  1  -1.170544  0  -0.311411  -0.555444  0  2.332954  0
O  O89  1  0.42758529  0.48682515  0.39274319  1  -1.173063  0  -0.309965  -0.553508  0  2.331001  0
O  O90  1  0.57575402  0.51166526  0.60203755  1  -1.186118  0  -0.318135  -0.561574  0  2.367904  0
O  O91  1  0.67183111  0.56819299  0.28669081  1  -1.162707  0  -0.365124  -0.45518  0  2.238038  0
