# generated using pymatgen
data_CdH16C20(N4O)2
_symmetry_space_group_name_H-M   'P 1'
_cell_length_a   9.27566144
_cell_length_b   9.27570345
_cell_length_c   11.82994826
_cell_angle_alpha   78.63856300
_cell_angle_beta   78.63818549
_cell_angle_gamma   84.09095198
_symmetry_Int_Tables_number   1
_chemical_formula_structural   CdH16C20(N4O)2
_chemical_formula_sum   'Cd2 H32 C40 N16 O4'
_cell_volume   976.14662417
_cell_formula_units_Z   2
loop_
 _symmetry_equiv_pos_site_id
 _symmetry_equiv_pos_as_xyz
  1  'x, y, z'
loop_
 _atom_site_type_symbol
 _atom_site_label
 _atom_site_symmetry_multiplicity
 _atom_site_fract_x
 _atom_site_fract_y
 _atom_site_fract_z
 _atom_site_occupancy
 _atom_site_hle17_bader_spin_density
 _atom_site_hle17_ddec_charge
 _atom_site_hle17_ddec_spin_density
 _atom_site_hle17_ddec_sum_bond_order
 _atom_site_hle17_magmom
 _atom_site_hse06_10hf_bader_spin_density
 _atom_site_hse06_10hf_ddec_charge
 _atom_site_hse06_10hf_ddec_spin_density
 _atom_site_hse06_10hf_ddec_sum_bond_order
 _atom_site_hse06_10hf_magmom
 _atom_site_hse06_bader_spin_density
 _atom_site_hse06_ddec_charge
 _atom_site_hse06_ddec_spin_density
 _atom_site_hse06_ddec_sum_bond_order
 _atom_site_hse06_magmom
 _atom_site_pbe_bader_spin_density
 _atom_site_pbe_cm5_charge
 _atom_site_pbe_ddec_charge
 _atom_site_pbe_ddec_spin_density
 _atom_site_pbe_ddec_sum_bond_order
 _atom_site_pbe_magmom
Cd  Cd0  1  0.30459156  0.69541156  0.24999900  1  0  1.180741  0  1.816103  0  0  0.990676  0  2.308903  0  0  1.040154  0  2.259023  0  0  0.843072  0.95566  0  2.342722  0
Cd  Cd1  1  0.69541001  0.30458840  0.74999937  1  0  1.180724  0  1.816196  0  0  0.990671  0  2.309021  0  0  1.040147  0  2.259143  0  0  0.84306  0.95565  0  2.34284  0
H  H2  1  0.24887710  0.13682042  0.87012217  1  0  0.127774  0  0.953487  0  0  0.138666  0  1.011491  0  0  0.141955  0  1.011084  0  0  0.115129  0.136423  0  1.01193  0
H  H3  1  0.86317538  0.75112411  0.62987629  1  0  0.12775  0  0.953495  0  0  0.138638  0  1.011507  0  0  0.141926  0  1.011101  0  0  0.115112  0.136395  0  1.011945  0
H  H4  1  0.75112680  0.86317853  0.12987937  1  0  0.12771  0  0.953465  0  0  0.138634  0  1.011449  0  0  0.141922  0  1.011043  0  0  0.115133  0.136391  0  1.011889  0
H  H5  1  0.13682315  0.24887248  0.37012229  1  0  0.127766  0  0.953483  0  0  0.138685  0  1.011462  0  0  0.141973  0  1.011056  0  0  0.115144  0.136444  0  1.011902  0
H  H6  1  0.02672297  0.26676736  0.97016130  1  0  0.104481  0  0.942322  0  0  0.114856  0  1.004916  0  0  0.117414  0  1.003258  0  0  0.109552  0.112969  0  1.005873  0
H  H7  1  0.73322996  0.97328018  0.52983819  1  0  0.104474  0  0.942326  0  0  0.114852  0  1.004918  0  0  0.117412  0  1.003257  0  0  0.109552  0.112968  0  1.005877  0
H  H8  1  0.97328095  0.73323041  0.02983536  1  0  0.104429  0  0.942274  0  0  0.114811  0  1.004872  0  0  0.117368  0  1.00322  0  0  0.109536  0.112924  0  1.005829  0
H  H9  1  0.26676502  0.02671968  0.47016213  1  0  0.104458  0  0.942338  0  0  0.114847  0  1.00491  0  0  0.117406  0  1.003256  0  0  0.109536  0.112961  0  1.00587  0
H  H10  1  0.83271209  0.27799055  0.14865987  1  0  0.102676  0  0.973941  0  0  0.110235  0  1.038501  0  0  0.113499  0  1.037169  0  0  0.101849  0.107786  0  1.039559  0
H  H11  1  0.72201197  0.16729444  0.35134326  1  0  0.102663  0  0.973899  0  0  0.110236  0  1.038441  0  0  0.113507  0  1.037113  0  0  0.101839  0.107788  0  1.0395  0
H  H12  1  0.16729089  0.72200616  0.85134134  1  0  0.102735  0  0.973861  0  0  0.110304  0  1.038391  0  0  0.113573  0  1.037062  0  0  0.101881  0.107853  0  1.03945  0
H  H13  1  0.27798069  0.83270765  0.64866045  1  0  0.102697  0  0.973983  0  0  0.110232  0  1.038558  0  0  0.1135  0  1.037225  0  0  0.101841  0.107784  0  1.039607  0
H  H14  1  0.49562807  0.04098424  0.85749102  1  0  0.055884  0  0.955919  0  0  0.065642  0  1.029842  0  0  0.066003  0  1.028726  0  0  0.098466  0.065315  0  1.030649  0
H  H15  1  0.95901145  0.50437600  0.64250541  1  0  0.055844  0  0.955915  0  0  0.065666  0  1.029752  0  0  0.066018  0  1.028634  0  0  0.09846  0.06534  0  1.030559  0
H  H16  1  0.50437224  0.95901793  0.14250889  1  0  0.055939  0  0.95593  0  0  0.065635  0  1.029895  0  0  0.066  0  1.028779  0  0  0.098479  0.06531  0  1.030702  0
H  H17  1  0.04098664  0.49562612  0.35749403  1  0  0.055863  0  0.955876  0  0  0.065675  0  1.029753  0  0  0.066036  0  1.028638  0  0  0.098471  0.06535  0  1.030561  0
H  H18  1  0.37385648  0.95364037  0.79752594  1  0  0.041784  0  0.961787  0  0  0.056212  0  1.028389  0  0  0.05541  0  1.029747  0  0  0.095237  0.056099  0  1.028191  0
H  H19  1  0.04635604  0.62614406  0.70247231  1  0  0.041846  0  0.961763  0  0  0.056267  0  1.028357  0  0  0.055457  0  1.029709  0  0  0.095264  0.056151  0  1.028167  0
H  H20  1  0.62614624  0.04635968  0.20247645  1  0  0.041839  0  0.961688  0  0  0.056248  0  1.028301  0  0  0.055445  0  1.029664  0  0  0.095228  0.056134  0  1.028105  0
H  H21  1  0.95364326  0.37385700  0.29752794  1  0  0.041826  0  0.961795  0  0  0.056274  0  1.028377  0  0  0.055472  0  1.029733  0  0  0.095263  0.056158  0  1.028191  0
H  H22  1  0.65382043  0.80275591  0.88408455  1  0  0.097845  0  0.976282  0  0  0.115803  0  1.043314  0  0  0.115655  0  1.046244  0  0  0.08255  0.115408  0  1.042135  0
H  H23  1  0.19723920  0.34617993  0.61590965  1  0  0.097836  0  0.97633  0  0  0.115816  0  1.043326  0  0  0.115667  0  1.046257  0  0  0.082531  0.115421  0  1.042146  0
H  H24  1  0.34618207  0.19724630  0.11591499  1  0  0.097858  0  0.976206  0  0  0.115808  0  1.043264  0  0  0.11566  0  1.046192  0  0  0.082545  0.115413  0  1.042085  0
H  H25  1  0.80275496  0.65381661  0.38409135  1  0  0.097858  0  0.976312  0  0  0.115832  0  1.043311  0  0  0.115684  0  1.046241  0  0  0.08254  0.115438  0  1.042131  0
H  H26  1  0.62909777  0.85888521  0.73577006  1  0  0.108725  0  0.951359  0  0  0.13253  0  1.011028  0  0  0.132814  0  1.012166  0  0  0.091578  0.132231  0  1.010342  0
H  H27  1  0.14111120  0.37090463  0.76422375  1  0  0.108738  0  0.951391  0  0  0.132547  0  1.011052  0  0  0.132831  0  1.012192  0  0  0.091589  0.132243  0  1.01037  0
H  H28  1  0.37090473  0.14111700  0.26422947  1  0  0.10874  0  0.95137  0  0  0.132535  0  1.011051  0  0  0.132819  0  1.012191  0  0  0.0916  0.132239  0  1.010365  0
H  H29  1  0.85888387  0.62909413  0.23577673  1  0  0.108785  0  0.951376  0  0  0.132565  0  1.011069  0  0  0.13285  0  1.012208  0  0  0.091602  0.132266  0  1.010385  0
H  H30  1  0.52789329  0.71439706  0.82881290  1  0  0.108503  0  0.945011  0  0  0.130173  0  1.003382  0  0  0.130893  0  1.004364  0  0  0.090203  0.129966  0  1.002045  0
H  H31  1  0.28560204  0.47210549  0.67118436  1  0  0.10857  0  0.944966  0  0  0.130237  0  1.00333  0  0  0.130958  0  1.004311  0  0  0.09023  0.13003  0  1.001991  0
H  H32  1  0.47210920  0.28560514  0.17118580  1  0  0.108498  0  0.944997  0  0  0.13017  0  1.003365  0  0  0.130889  0  1.004346  0  0  0.090207  0.129965  0  1.002028  0
H  H33  1  0.71439667  0.52789008  0.32881943  1  0  0.108493  0  0.945005  0  0  0.130161  0  1.003376  0  0  0.130882  0  1.004358  0  0  0.09018  0.129957  0  1.002038  0
C  C34  1  0.25938773  0.96311703  0.02291433  1  0  0.456856  0  3.80237  0  0  0.423079  0  4.076023  0  0  0.445554  0  4.08378  0  0  0.223737  0.408024  0  4.071169  0
C  C35  1  0.03688523  0.74061580  0.47708357  1  0  0.456865  0  3.802505  0  0  0.423002  0  4.076249  0  0  0.445458  0  4.084016  0  0  0.223699  0.407947  0  4.071399  0
C  C36  1  0.74061387  0.03688297  0.97708656  1  0  0.456726  0  3.802262  0  0  0.422923  0  4.075957  0  0  0.445381  0  4.083719  0  0  0.223683  0.407867  0  4.071104  0
C  C37  1  0.96311530  0.25938302  0.52291347  1  0  0.456836  0  3.802223  0  0  0.423016  0  4.075931  0  0  0.445475  0  4.083693  0  0  0.223742  0.407962  0  4.071081  0
C  C38  1  0.19913660  0.09455708  0.96019256  1  0  -0.226404  0  3.720097  0  0  -0.246166  0  3.98007  0  0  -0.255651  0  3.998229  0  0  -0.091898  -0.240641  0  3.968848  0
C  C39  1  0.90544054  0.80086283  0.53980844  1  0  -0.226402  0  3.719906  0  0  -0.246155  0  3.979931  0  0  -0.255641  0  3.998097  0  0  -0.091885  -0.24063  0  3.968714  0
C  C40  1  0.80086836  0.90544184  0.03980627  1  0  -0.226393  0  3.72019  0  0  -0.246195  0  3.980227  0  0  -0.255681  0  3.998392  0  0  -0.091965  -0.24067  0  3.969006  0
C  C41  1  0.09455709  0.19913155  0.46019150  1  0  -0.226453  0  3.719864  0  0  -0.246258  0  3.979895  0  0  -0.255744  0  3.998059  0  0  -0.091916  -0.240734  0  3.968682  0
C  C42  1  0.07715114  0.16663819  0.01634470  1  0  -0.018904  0  3.700206  0  0  -0.047624  0  3.957524  0  0  -0.042229  0  3.973504  0  0  -0.064234  -0.050523  0  3.946644  0
C  C43  1  0.83336134  0.92285441  0.48365286  1  0  -0.018862  0  3.700095  0  0  -0.047609  0  3.957412  0  0  -0.042218  0  3.973396  0  0  -0.06421  -0.050512  0  3.946537  0
C  C44  1  0.92284789  0.83336618  0.98365590  1  0  -0.018714  0  3.700282  0  0  -0.047474  0  3.957565  0  0  -0.042084  0  3.97355  0  0  -0.064169  -0.050372  0  3.946682  0
C  C45  1  0.16663507  0.07714102  0.51634542  1  0  -0.018848  0  3.699919  0  0  -0.047528  0  3.957248  0  0  -0.042141  0  3.973233  0  0  -0.064222  -0.05043  0  3.946375  0
C  C46  1  0.01354592  0.11013271  0.13376210  1  0  0.003396  0  3.814353  0  0  0.017513  0  4.052089  0  0  0.013329  0  4.077186  0  0  -0.013228  0.019857  0  4.035199  0
C  C47  1  0.88986704  0.98645766  0.36623998  1  0  0.003391  0  3.814444  0  0  0.017546  0  4.052102  0  0  0.013364  0  4.077202  0  0  -0.013176  0.01989  0  4.035216  0
C  C48  1  0.98645786  0.88986732  0.86623758  1  0  0.003257  0  3.814452  0  0  0.017533  0  4.052015  0  0  0.013354  0  4.077112  0  0  -0.0132  0.019877  0  4.035121  0
C  C49  1  0.11012788  0.01354333  0.63376185  1  0  0.003521  0  3.814358  0  0  0.01751  0  4.052221  0  0  0.013331  0  4.077318  0  0  -0.013185  0.019855  0  4.03533  0
C  C50  1  0.08281125  0.97918007  0.19012508  1  0  0.149563  0  3.759157  0  0  0.143589  0  3.996629  0  0  0.148934  0  4.01891  0  0  0.115049  0.140063  0  3.981677  0
C  C51  1  0.02082040  0.91719178  0.30987446  1  0  0.149439  0  3.759138  0  0  0.143489  0  3.996555  0  0  0.14883  0  4.018836  0  0  0.114999  0.139963  0  3.981603  0
C  C52  1  0.91718908  0.02082213  0.80987651  1  0  0.149601  0  3.759165  0  0  0.143528  0  3.996706  0  0  0.148872  0  4.018986  0  0  0.11503  0.140003  0  3.98175  0
C  C53  1  0.97918008  0.08280817  0.69012493  1  0  0.149387  0  3.759279  0  0  0.143508  0  3.996749  0  0  0.148849  0  4.01903  0  0  0.115032  0.139982  0  3.981794  0
C  C54  1  0.88347288  0.17749228  0.19397931  1  0  -0.104133  0  3.751477  0  0  -0.127479  0  4.010751  0  0  -0.128748  0  4.029621  0  0  -0.091958  -0.125931  0  3.998049  0
C  C55  1  0.82250998  0.11653222  0.30602208  1  0  -0.104051  0  3.751365  0  0  -0.127407  0  4.010585  0  0  -0.128689  0  4.029462  0  0  -0.091963  -0.125861  0  3.997885  0
C  C56  1  0.11652883  0.82250663  0.80602259  1  0  -0.104146  0  3.751371  0  0  -0.127521  0  4.010565  0  0  -0.1288  0  4.029441  0  0  -0.091985  -0.125974  0  3.997859  0
C  C57  1  0.17749232  0.88347218  0.69397628  1  0  -0.104172  0  3.751292  0  0  -0.127457  0  4.010577  0  0  -0.128733  0  4.02945  0  0  -0.091977  -0.125909  0  3.997873  0
C  C58  1  0.45226957  0.93519436  0.85822919  1  0  0.145024  0  3.595508  0  0  0.085761  0  3.867546  0  0  0.095419  0  3.872223  0  0  -0.072953  0.079278  0  3.865143  0
C  C59  1  0.06480105  0.54773506  0.64176666  1  0  0.14498  0  3.595733  0  0  0.085706  0  3.867646  0  0  0.095386  0  3.872282  0  0  -0.073008  0.079225  0  3.86524  0
C  C60  1  0.54773403  0.06480786  0.14177016  1  0  0.144845  0  3.595689  0  0  0.085648  0  3.867643  0  0  0.09528  0  3.872336  0  0  -0.073007  0.079168  0  3.865241  0
C  C61  1  0.93519575  0.45226924  0.35823178  1  0  0.144947  0  3.595614  0  0  0.085596  0  3.867688  0  0  0.095241  0  3.872363  0  0  -0.073023  0.079113  0  3.865289  0
C  C62  1  0.57275491  0.82034402  0.82577101  1  0  -0.308863  0  3.685493  0  0  -0.38652  0  3.929986  0  0  -0.388776  0  3.940224  0  0  -0.249428  -0.385108  0  3.923818  0
C  C63  1  0.17965185  0.42724819  0.67422282  1  0  -0.308934  0  3.685567  0  0  -0.386618  0  3.930027  0  0  -0.38889  0  3.940262  0  0  -0.249438  -0.385201  0  3.923859  0
C  C64  1  0.42724768  0.17965709  0.17422869  1  0  -0.308862  0  3.68547  0  0  -0.386526  0  3.929969  0  0  -0.38878  0  3.94021  0  0  -0.249436  -0.385116  0  3.923804  0
C  C65  1  0.82034423  0.57275169  0.32577731  1  0  -0.308907  0  3.685503  0  0  -0.386546  0  3.929999  0  0  -0.388808  0  3.940243  0  0  -0.249403  -0.385131  0  3.923833  0
C  C66  1  0.22218707  0.52827640  0.05365169  1  0  0.50412  0  3.985834  0  0  0.465194  0  4.271575  0  0  0.491399  0  4.282484  0  0  0.302583  0.447605  0  4.261957  0
C  C67  1  0.47172708  0.77782125  0.44635029  1  0  0.504156  0  3.985882  0  0  0.465193  0  4.271602  0  0  0.491395  0  4.282516  0  0  0.302564  0.447603  0  4.261985  0
C  C68  1  0.77781956  0.47173040  0.94635317  1  0  0.504155  0  3.985755  0  0  0.465197  0  4.271492  0  0  0.491401  0  4.282409  0  0  0.302587  0.447606  0  4.261866  0
C  C69  1  0.52826517  0.22218400  0.55364452  1  0  0.504051  0  3.985697  0  0  0.465041  0  4.271443  0  0  0.491248  0  4.28236  0  0  0.302518  0.447451  0  4.261817  0
C  C70  1  0.36914970  0.41736480  0.90885023  1  0  0.508827  0  3.995117  0  0  0.469697  0  4.280787  0  0  0.495285  0  4.292748  0  0  0.31082  0.452094  0  4.271775  0
C  C71  1  0.58262686  0.63085190  0.59114496  1  0  0.5085  0  3.995188  0  0  0.469336  0  4.280867  0  0  0.494918  0  4.29284  0  0  0.31063  0.45173  0  4.271856  0
C  C72  1  0.63085240  0.58262854  0.09114830  1  0  0.50859  0  3.995044  0  0  0.469434  0  4.280723  0  0  0.495018  0  4.292684  0  0  0.310689  0.451831  0  4.271719  0
C  C73  1  0.41736317  0.36915449  0.40885425  1  0  0.508897  0  3.995004  0  0  0.469693  0  4.280657  0  0  0.495279  0  4.292615  0  0  0.310888  0.452091  0  4.271653  0
N  N74  1  0.20453717  0.91021106  0.13456944  1  0  -0.459064  0  3.210719  0  0  -0.39635  0  3.478447  0  0  -0.417699  0  3.492397  0  0  -0.331955  -0.382263  0  3.469561  0
N  N75  1  0.08979158  0.79546747  0.36543246  1  0  -0.459003  0  3.210672  0  0  -0.396265  0  3.478393  0  0  -0.417615  0  3.492354  0  0  -0.331969  -0.382178  0  3.469512  0
N  N76  1  0.79546870  0.08979009  0.86542888  1  0  -0.458946  0  3.210701  0  0  -0.396247  0  3.478498  0  0  -0.417595  0  3.49246  0  0  -0.331927  -0.38216  0  3.469607  0
N  N77  1  0.91020909  0.20453030  0.63456811  1  0  -0.458986  0  3.210552  0  0  -0.396282  0  3.478285  0  0  -0.417631  0  3.492245  0  0  -0.331987  -0.382194  0  3.469396  0
N  N78  1  0.17966807  0.56840887  0.14406574  1  0  -0.611746  0  2.762444  0  0  -0.566451  0  3.040037  0  0  -0.587808  0  3.044159  0  0  -0.386821  -0.551473  0  3.035598  0
N  N79  1  0.43159317  0.82034066  0.35593068  1  0  -0.611792  0  2.762343  0  0  -0.566488  0  3.039933  0  0  -0.58785  0  3.044059  0  0  -0.3868  -0.551513  0  3.0355  0
N  N80  1  0.82033715  0.43158554  0.85592703  1  0  -0.611818  0  2.762068  0  0  -0.566521  0  3.039683  0  0  -0.587886  0  3.043813  0  0  -0.386816  -0.551539  0  3.03524  0
N  N81  1  0.56841290  0.17965830  0.64406881  1  0  -0.611699  0  2.761849  0  0  -0.566399  0  3.039473  0  0  -0.587765  0  3.043606  0  0  -0.386749  -0.551417  0  3.035027  0
N  N82  1  0.25281217  0.49301994  0.95073815  1  0  -0.464595  0  3.303987  0  0  -0.407513  0  3.562575  0  0  -0.431908  0  3.567126  0  0  -0.307575  -0.389743  0  3.557263  0
N  N83  1  0.50698161  0.74719484  0.54926000  1  0  -0.464505  0  3.304256  0  0  -0.407326  0  3.562741  0  0  -0.431718  0  3.567304  0  0  -0.30747  -0.389554  0  3.557428  0
N  N84  1  0.74719744  0.50697574  0.04925960  1  0  -0.464567  0  3.304161  0  0  -0.407412  0  3.562676  0  0  -0.4318  0  3.567235  0  0  -0.30757  -0.389642  0  3.557366  0
N  N85  1  0.49302046  0.25281291  0.45074038  1  0  -0.464692  0  3.304331  0  0  -0.407447  0  3.562806  0  0  -0.431837  0  3.567357  0  0  -0.307615  -0.389678  0  3.557497  0
N  N86  1  0.46812893  0.34831210  0.86134552  1  0  -0.607919  0  2.843459  0  0  -0.561096  0  3.134912  0  0  -0.583747  0  3.139837  0  0  -0.386884  -0.544862  0  3.130199  0
N  N87  1  0.65167215  0.53186153  0.63865406  1  0  -0.607698  0  2.843322  0  0  -0.560892  0  3.134833  0  0  -0.583519  0  3.139718  0  0  -0.386785  -0.544656  0  3.130121  0
N  N88  1  0.53186910  0.65167671  0.13865189  1  0  -0.607675  0  2.843456  0  0  -0.560847  0  3.13491  0  0  -0.583486  0  3.139821  0  0  -0.386738  -0.544614  0  3.130202  0
N  N89  1  0.34831638  0.46813717  0.36135005  1  0  -0.60786  0  2.843427  0  0  -0.561045  0  3.134916  0  0  -0.583691  0  3.139837  0  0  -0.386889  -0.544811  0  3.13021  0
O  O90  1  0.37477776  0.88073693  0.97622172  1  0  -0.304188  0  2.307958  0  0  -0.225121  0  2.542289  0  0  -0.247108  0  2.545759  0  0  -0.161374  -0.210438  0  2.539872  0
O  O91  1  0.11926160  0.62522741  0.52377864  1  0  -0.304202  0  2.308223  0  0  -0.225088  0  2.542537  0  0  -0.24704  0  2.545973  0  0  -0.16131  -0.210407  0  2.540125  0
O  O92  1  0.62522694  0.11926531  0.02377745  1  0  -0.304123  0  2.308116  0  0  -0.224981  0  2.54236  0  0  -0.246924  0  2.545811  0  0  -0.161294  -0.210301  0  2.539943  0
O  O93  1  0.88073442  0.37477360  0.47622301  1  0  -0.304155  0  2.308099  0  0  -0.225016  0  2.542426  0  0  -0.246962  0  2.545873  0  0  -0.161315  -0.210333  0  2.540011  0
