# generated using pymatgen
data_ZnH14(C4N)6
_symmetry_space_group_name_H-M   'P 1'
_cell_length_a   7.46954640
_cell_length_b   10.57849491
_cell_length_c   10.17200633
_cell_angle_alpha   97.43502160
_cell_angle_beta   90.00440874
_cell_angle_gamma   89.99958023
_symmetry_Int_Tables_number   1
_chemical_formula_structural   ZnH14(C4N)6
_chemical_formula_sum   'Zn1 H14 C24 N6'
_cell_volume   796.99914552
_cell_formula_units_Z   1
loop_
 _symmetry_equiv_pos_site_id
 _symmetry_equiv_pos_as_xyz
  1  'x, y, z'
loop_
 _atom_site_type_symbol
 _atom_site_label
 _atom_site_symmetry_multiplicity
 _atom_site_fract_x
 _atom_site_fract_y
 _atom_site_fract_z
 _atom_site_occupancy
 _atom_site_pbe_bader_charge
 _atom_site_pbe_bader_spin_density
 _atom_site_pbe_cm5_charge
 _atom_site_pbe_ddec_charge
 _atom_site_pbe_ddec_spin_density
 _atom_site_pbe_ddec_sum_bond_order
 _atom_site_pbe_magmom
Zn  Zn0  1  0.99998722  0.99999951  0.99999995  1  1.305716  0  0.72248  0.783435  0  2.510141  0
H  H1  1  0.21215003  0.61579901  0.03276361  1  0.040957  0  0.088959  0.085704  0  1.047677  0
H  H2  1  0.21214753  0.38421712  0.96722570  1  0.04106  0  0.088868  0.085554  0  1.047582  0
H  H3  1  0.78780899  0.38420796  0.96721220  1  0.041039  0  0.088918  0.085629  0  1.0474  0
H  H4  1  0.78781417  0.61578778  0.03275159  1  0.041393  0  0.088894  0.085641  0  1.047401  0
H  H5  1  0.00003386  0.98514960  0.69860500  1  0.076998  0  0.117534  0.088268  0  1.00217  0
H  H6  1  0.00005475  0.81876740  0.49807771  1  0.077527  0  0.111737  0.119575  0  0.990493  0
H  H7  1  0.99996459  0.53397612  0.76790435  1  0.056256  0  0.110747  0.116444  0  1.001365  0
H  H8  1  0.99995749  0.71204945  0.95217359  1  0.075348  0  0.114738  0.078159  0  1.034011  0
H  H9  1  0.99998942  0.01484022  0.30139841  1  0.076845  0  0.117458  0.088165  0  1.002278  0
H  H10  1  0.00002695  0.18122592  0.50192379  1  0.077911  0  0.111743  0.119564  0  0.990502  0
H  H11  1  0.00000514  0.46602663  0.23210602  1  0.056261  0  0.110754  0.116426  0  1.001355  0
H  H12  1  0.99997256  0.28795058  0.04784084  1  0.075665  0  0.114752  0.078157  0  1.034075  0
H  H13  1  0.00004909  0.60104208  0.40346292  1  0.086544  0  0.108333  0.105348  0  0.995671  0
H  H14  1  0.00004868  0.39895421  0.59654817  1  0.08663  0  0.108339  0.105409  0  0.995604  0
C  C15  1  0.34124602  0.84340787  0.08424097  1  0.779909  0  0.179512  0.297171  0  4.126613  0
C  C16  1  0.33950697  0.56561502  0.01824593  1  -0.056846  0  -0.111788  -0.151372  0  4.031861  0
C  C17  1  0.34123455  0.15658813  0.91575333  1  0.780705  0  0.179623  0.297309  0  4.12675  0
C  C18  1  0.33950753  0.43439272  0.98174809  1  0.013424  0  -0.111653  -0.151181  0  4.031596  0
C  C19  1  0.65874647  0.15660591  0.91575519  1  0.780762  0  0.179567  0.29712  0  4.127016  0
C  C20  1  0.66046008  0.43439150  0.98173471  1  -0.057102  0  -0.111844  -0.151448  0  4.031631  0
C  C21  1  0.65874455  0.84341269  0.08424672  1  0.780955  0  0.179579  0.297244  0  4.126878  0
C  C22  1  0.66046086  0.56561077  0.01823382  1  -0.1279  0  -0.111764  -0.151284  0  4.031753  0
C  C23  1  0.00001109  0.88351567  0.70750360  1  0.515661  0  0.053529  0.105314  0  3.949058  0
C  C24  1  0.00003113  0.79061574  0.59750837  1  -0.005131  0  -0.080101  -0.179349  0  3.923626  0
C  C25  1  0.00002680  0.66056426  0.61449862  1  -0.001601  0  0.011145  0.151029  0  4.027072  0
C  C26  1  0.00003286  0.56375951  0.49879550  1  -0.09347  0  -0.073526  -0.110988  0  3.949922  0
C  C27  1  0.00000576  0.63194254  0.74578547  1  -0.032902  0  -0.076839  -0.164808  0  3.915688  0
C  C28  1  0.99998722  0.73050379  0.84945769  1  0.534052  0  0.04938  0.095434  0  3.96794  0
C  C29  1  0.99998006  0.11647682  0.29250240  1  0.515688  0  0.053657  0.105489  0  3.949021  0
C  C30  1  0.99999971  0.20938024  0.40249573  1  -0.005694  0  -0.080191  -0.179376  0  3.923788  0
C  C31  1  0.00002813  0.33943317  0.38551076  1  -0.001763  0  0.011205  0.151081  0  4.027276  0
C  C32  1  0.00003145  0.43623393  0.50121493  1  0.019669  0  -0.073466  -0.111157  0  3.95007  0
C  C33  1  0.00003578  0.36805859  0.25422576  1  -0.032782  0  -0.076895  -0.164825  0  3.915752  0
C  C34  1  0.99999906  0.26949538  0.15055555  1  0.534325  0  0.049479  0.095574  0  3.968118  0
C  C35  1  0.49999255  0.77475495  0.07080522  1  0.239538  0  -0.063701  -0.218453  0  4.238104  0
C  C36  1  0.49998911  0.63540751  0.03672760  1  0.023147  0  -0.020093  0.095781  0  4.081693  0
C  C37  1  0.49998923  0.22525115  0.92919014  1  0.239513  0  -0.063577  -0.218406  0  4.23795  0
C  C38  1  0.49998464  0.36459602  0.96326419  1  0.023114  0  -0.020114  0.095967  0  4.081407  0
N  N39  1  0.20337698  0.89803075  0.09588238  1  -1.273226  0  -0.362193  -0.463943  0  3.142297  0
N  N40  1  0.20336797  0.10198527  0.90413233  1  -1.273789  0  -0.362271  -0.463998  0  3.14271  0
N  N41  1  0.79662087  0.10199727  0.90411710  1  -1.274031  0  -0.362274  -0.463913  0  3.142523  0
N  N42  1  0.79662719  0.89800437  0.09587301  1  -1.274155  0  -0.362188  -0.463903  0  3.142654  0
N  N43  1  0.99998593  0.85415649  0.83193874  1  -1.243005  0  -0.31319  -0.20872  0  3.519658  0
N  N44  1  0.99997224  0.14584029  0.16806900  1  -1.243214  0  -0.313259  -0.208867  0  3.519677  0
