# generated using pymatgen
data_ZnH18C25NO5
_symmetry_space_group_name_H-M   'P 1'
_cell_length_a   11.34845415
_cell_length_b   17.11327849
_cell_length_c   18.35605824
_cell_angle_alpha   116.07670268
_cell_angle_beta   89.99997162
_cell_angle_gamma   89.99999496
_symmetry_Int_Tables_number   1
_chemical_formula_structural   ZnH18C25NO5
_chemical_formula_sum   'Zn4 H72 C100 N4 O20'
_cell_volume   3202.03069777
_cell_formula_units_Z   4
loop_
 _symmetry_equiv_pos_site_id
 _symmetry_equiv_pos_as_xyz
  1  'x, y, z'
loop_
 _atom_site_type_symbol
 _atom_site_label
 _atom_site_symmetry_multiplicity
 _atom_site_fract_x
 _atom_site_fract_y
 _atom_site_fract_z
 _atom_site_occupancy
 _atom_site_pbe_bader_charge
 _atom_site_pbe_bader_spin_density
 _atom_site_pbe_cm5_charge
 _atom_site_pbe_ddec_charge
 _atom_site_pbe_ddec_spin_density
 _atom_site_pbe_ddec_sum_bond_order
 _atom_site_pbe_magmom
Zn  Zn0  1  0.58181469  0.96908196  0.43345453  1  1.337486  0  0.664542  0.904822  0  2.333259  0
Zn  Zn1  1  0.58181401  0.03091874  0.06654482  1  1.335456  0  0.664613  0.904883  0  2.333212  0
Zn  Zn2  1  0.41818624  0.03091816  0.56654485  1  1.334733  0  0.664579  0.904849  0  2.333219  0
Zn  Zn3  1  0.41818515  0.96908268  0.93345454  1  1.336719  0  0.664563  0.90483  0  2.333244  0
H  H4  1  0.41118447  0.72134079  0.28447270  1  0.092822  0  0.101529  0.10066  0  1.016242  0
H  H5  1  0.41118277  0.27866061  0.21552807  1  0.093172  0  0.101531  0.100657  0  1.016264  0
H  H6  1  0.58881645  0.27865934  0.71552721  1  0.093176  0  0.10153  0.100666  0  1.016249  0
H  H7  1  0.58881640  0.72134081  0.78447347  1  0.09284  0  0.101538  0.100684  0  1.01621  0
H  H8  1  0.30490660  0.57827686  0.22460013  1  0.060231  0  0.098009  0.096303  0  1.022937  0
H  H9  1  0.30490571  0.42172392  0.27540096  1  0.060563  0  0.098001  0.096271  0  1.022936  0
H  H10  1  0.69509433  0.42172327  0.77540088  1  0.060214  0  0.097998  0.096273  0  1.022945  0
H  H11  1  0.69509258  0.57827751  0.72460003  1  0.060191  0  0.098  0.096277  0  1.02295  0
H  H12  1  0.15504298  0.54697375  0.30689999  1  0.072685  0  0.100353  0.098005  0  1.033324  0
H  H13  1  0.15504215  0.45302771  0.19310088  1  0.072147  0  0.100373  0.098044  0  1.033309  0
H  H14  1  0.84495706  0.45302637  0.69310047  1  0.07217  0  0.100376  0.098036  0  1.033312  0
H  H15  1  0.84495701  0.54697372  0.80690011  1  0.072677  0  0.100365  0.098027  0  1.033304  0
H  H16  1  0.20729758  0.80213597  0.50202410  1  0.088239  0  0.103176  0.101846  0  1.044759  0
H  H17  1  0.20729390  0.19786493  0.99797755  1  0.088582  0  0.103189  0.101849  0  1.044769  0
H  H18  1  0.79270599  0.19786481  0.49797717  1  0.088927  0  0.103196  0.101868  0  1.044742  0
H  H19  1  0.79270350  0.80213520  0.00202455  1  0.088402  0  0.103182  0.101844  0  1.044772  0
H  H20  1  0.84311714  0.73610735  0.70087048  1  0.062127  0  0.100666  0.102358  0  1.006744  0
H  H21  1  0.84311978  0.26389209  0.79912929  1  0.062333  0  0.100658  0.102353  0  1.006753  0
H  H22  1  0.15688026  0.26389277  0.29912943  1  0.062168  0  0.100657  0.102345  0  1.00675  0
H  H23  1  0.15688203  0.73610804  0.20086954  1  0.062188  0  0.100682  0.102392  0  1.006734  0
H  H24  1  0.69934950  0.85151990  0.78152875  1  0.071409  0  0.099634  0.105555  0  1.0238  0
H  H25  1  0.69935310  0.14848022  0.71847025  1  0.07138  0  0.099646  0.105599  0  1.023756  0
H  H26  1  0.30064702  0.14848022  0.21847007  1  0.071384  0  0.099643  0.105588  0  1.023775  0
H  H27  1  0.30064871  0.85151990  0.28152857  1  0.071437  0  0.099643  0.105549  0  1.023764  0
H  H28  1  0.59573806  0.93414819  0.71839153  1  0.084821  0  0.10189  0.103492  0  1.039693  0
H  H29  1  0.59574073  0.06585065  0.78160590  1  0.084362  0  0.10187  0.103467  0  1.03973  0
H  H30  1  0.40425935  0.06585063  0.28160567  1  0.084381  0  0.101868  0.103476  0  1.039719  0
H  H31  1  0.40426108  0.93415012  0.21839210  1  0.084794  0  0.101853  0.103445  0  1.03976  0
H  H32  1  0.78710519  0.79451919  0.49705855  1  0.081948  0  0.105579  0.11548  0  1.002946  0
H  H33  1  0.78710631  0.20547756  0.00293966  1  0.081969  0  0.105577  0.115475  0  1.002974  0
H  H34  1  0.21289310  0.20547703  0.50293923  1  0.081966  0  0.105567  0.115459  0  1.003013  0
H  H35  1  0.21289374  0.79452126  0.99705863  1  0.081934  0  0.105555  0.115445  0  1.002969  0
H  H36  1  0.73189059  0.61428354  0.59288720  1  0.067069  0  0.099511  0.102642  0  1.01793  0
H  H37  1  0.73189048  0.38571658  0.90711452  1  0.067051  0  0.099512  0.102651  0  1.017913  0
H  H38  1  0.26810857  0.38571724  0.40711408  1  0.067077  0  0.099517  0.10266  0  1.017918  0
H  H39  1  0.26810956  0.61428355  0.09288649  1  0.06706  0  0.099525  0.102701  0  1.017908  0
H  H40  1  0.99852165  0.77090743  0.50254465  1  0.05826  0  0.106062  0.114733  0  0.99917  0
H  H41  1  0.99852148  0.22909197  0.99745615  1  0.05826  0  0.106057  0.114703  0  0.999177  0
H  H42  1  0.00147840  0.22909140  0.49745583  1  0.058237  0  0.106065  0.114739  0  0.99914  0
H  H43  1  0.00147768  0.77090750  0.00254350  1  0.058256  0  0.106058  0.114686  0  0.99921  0
H  H44  1  0.26910958  0.53067551  0.41130798  1  0.062179  0  0.098318  0.099484  0  1.026266  0
H  H45  1  0.26910971  0.46932463  0.08869286  1  0.062167  0  0.098318  0.099475  0  1.026262  0
H  H46  1  0.73089135  0.46932462  0.58869303  1  0.062167  0  0.098321  0.099471  0  1.026282  0
H  H47  1  0.73089033  0.53067550  0.91130814  1  0.06217  0  0.098321  0.09947  0  1.026291  0
H  H48  1  0.85060649  0.81978713  0.14525054  1  0.071234  0  0.105762  0.11875  0  0.99608  0
H  H49  1  0.85060556  0.18021221  0.35474980  1  0.071246  0  0.105764  0.118759  0  0.996086  0
H  H50  1  0.14939356  0.18021234  0.85474966  1  0.071236  0  0.105757  0.118743  0  0.996096  0
H  H51  1  0.14939624  0.81978727  0.64525039  1  0.071243  0  0.105758  0.118723  0  0.996081  0
H  H52  1  0.82998425  0.91516393  0.23911915  1  0.11411  0  0.11665  0.134831  0  0.995114  0
H  H53  1  0.82998342  0.08483541  0.26088065  1  0.11389  0  0.116638  0.134826  0  0.995144  0
H  H54  1  0.17001491  0.08483554  0.76088050  1  0.113879  0  0.116637  0.134813  0  0.995153  0
H  H55  1  0.17001663  0.91516406  0.73911845  1  0.11409  0  0.116654  0.134831  0  0.995141  0
H  H56  1  0.77717269  0.91303525  0.14602567  1  0.064625  0  0.112839  0.13656  0  0.985271  0
H  H57  1  0.77717266  0.08696476  0.35397496  1  0.064598  0  0.112851  0.136608  0  0.985309  0
H  H58  1  0.22282648  0.08696423  0.85397452  1  0.064315  0  0.112856  0.136618  0  0.98529  0
H  H59  1  0.22282650  0.91303536  0.64602441  1  0.064604  0  0.112813  0.136507  0  0.985279  0
H  H60  1  0.60420467  0.80537696  0.07747556  1  0.075823  0  0.110023  0.134064  0  0.996741  0
H  H61  1  0.60420458  0.19462245  0.42252488  1  0.07581  0  0.110009  0.134067  0  0.996715  0
H  H62  1  0.39579449  0.19462187  0.92252492  1  0.075806  0  0.110038  0.134097  0  0.996754  0
H  H63  1  0.39579723  0.80537833  0.57747530  1  0.075776  0  0.11004  0.13411  0  0.996723  0
H  H64  1  0.53139914  0.76304701  0.13859063  1  0.069174  0  0.109404  0.120843  0  1.00798  0
H  H65  1  0.53139909  0.23695241  0.36140984  1  0.069176  0  0.109397  0.120843  0  1.008009  0
H  H66  1  0.46860002  0.23695182  0.86140985  1  0.069178  0  0.109393  0.120838  0  1.008037  0
H  H67  1  0.46860184  0.76304771  0.63859008  1  0.06934  0  0.109397  0.120841  0  1.008028  0
H  H68  1  0.66984797  0.71786468  0.09162502  1  0.054687  0  0.105021  0.119159  0  0.981499  0
H  H69  1  0.66984876  0.28213536  0.40837565  1  0.054674  0  0.105022  0.119165  0  0.981498  0
H  H70  1  0.33015119  0.28213545  0.90837544  1  0.054676  0  0.105023  0.119157  0  0.9815  0
H  H71  1  0.33015217  0.71786542  0.59162453  1  0.054713  0  0.105029  0.11916  0  0.981439  0
H  H72  1  0.54543183  0.83941335  0.26762945  1  0.125676  0  0.127573  0.058533  0  1.02172  0
H  H73  1  0.54543101  0.16058867  0.23237207  1  0.12558  0  0.127615  0.058533  0  1.021651  0
H  H74  1  0.45456821  0.16058873  0.73237181  1  0.125601  0  0.127618  0.058558  0  1.02164  0
H  H75  1  0.45456904  0.83941406  0.76762945  1  0.125675  0  0.127609  0.058583  0  1.021699  0
C  C76  1  0.37614792  0.85610206  0.43275397  1  1.568949  0  0.212959  0.584914  0  4.191881  0
C  C77  1  0.37614811  0.14389935  0.06724790  1  1.568799  0  0.212953  0.584819  0  4.19203  0
C  C78  1  0.62385213  0.14389937  0.56724756  1  1.568958  0  0.212996  0.584977  0  4.191988  0
C  C79  1  0.62385194  0.85610208  0.93275473  1  1.568955  0  0.213025  0.584961  0  4.191879  0
C  C80  1  0.31353412  0.77011233  0.39629792  1  -0.061308  0  -0.020454  -0.031667  0  3.981276  0
C  C81  1  0.31353075  0.22988780  0.10370345  1  -0.061259  0  -0.020435  -0.031622  0  3.981261  0
C  C82  1  0.68646857  0.22988715  0.60370228  1  -0.061267  0  -0.020473  -0.031698  0  3.981356  0
C  C83  1  0.68646753  0.77011233  0.89629865  1  -0.061362  0  -0.02055  -0.031734  0  3.981231  0
C  C84  1  0.34315846  0.70687562  0.31854530  1  -0.023076  0  -0.085701  -0.091969  0  3.978504  0
C  C85  1  0.34315678  0.29312515  0.18145741  1  -0.023269  0  -0.085738  -0.092019  0  3.978542  0
C  C86  1  0.65684247  0.29312450  0.68145625  1  -0.023416  0  -0.085746  -0.092048  0  3.978546  0
C  C87  1  0.65684239  0.70687628  0.81854577  1  -0.023071  0  -0.085707  -0.092001  0  3.978483  0
C  C88  1  0.28503426  0.62700714  0.28590301  1  -0.05187  0  -0.095897  -0.089389  0  4.041996  0
C  C89  1  0.28503254  0.37299364  0.21409809  1  -0.052383  0  -0.095869  -0.089312  0  4.041931  0
C  C90  1  0.71496755  0.37299298  0.71409745  1  -0.051815  0  -0.095846  -0.089301  0  4.042026  0
C  C91  1  0.71496662  0.62700779  0.78590400  1  -0.051751  0  -0.095874  -0.089331  0  4.041939  0
C  C92  1  0.20120520  0.60908364  0.33190063  1  -0.039644  0  -0.088234  -0.127321  0  3.976355  0
C  C93  1  0.20120352  0.39091846  0.16809994  1  -0.039672  0  -0.088277  -0.127367  0  3.976386  0
C  C94  1  0.79879484  0.39091843  0.66809954  1  -0.039728  0  -0.08828  -0.127326  0  3.976452  0
C  C95  1  0.79879564  0.60908297  0.83190105  1  -0.039711  0  -0.088253  -0.12735  0  3.976377  0
C  C96  1  0.17356616  0.67037555  0.41126479  1  -0.024649  0  -0.009047  0.069456  0  4.019416  0
C  C97  1  0.17356543  0.32962527  0.08873690  1  -0.02464  0  -0.009002  0.069481  0  4.019343  0
C  C98  1  0.82643389  0.32962588  0.58873675  1  -0.024632  0  -0.009016  0.069416  0  4.01944  0
C  C99  1  0.82643461  0.67037486  0.91126411  1  -0.02467  0  -0.009045  0.069387  0  4.01948  0
C  C100  1  0.22811807  0.75195540  0.44162438  1  -0.01805  0  -0.083344  -0.143555  0  3.939162  0
C  C101  1  0.22811649  0.24804475  0.05837757  1  -0.018403  0  -0.083367  -0.143577  0  3.93925  0
C  C102  1  0.77188286  0.24804408  0.55837636  1  -0.018767  0  -0.083353  -0.143518  0  3.939227  0
C  C103  1  0.77188267  0.75195538  0.94162453  1  -0.018175  0  -0.083304  -0.143471  0  3.939056  0
C  C104  1  0.82421153  0.75550073  0.59253797  1  -0.009611  0  -0.011712  0.06273  0  4.015154  0
C  C105  1  0.82421232  0.24449872  0.90746127  1  -0.009592  0  -0.011692  0.062849  0  4.015026  0
C  C106  1  0.17578764  0.24449810  0.40746142  1  -0.009583  0  -0.011703  0.06285  0  4.015057  0
C  C107  1  0.17578861  0.75550010  0.09253648  1  -0.009621  0  -0.011706  0.062876  0  4.01507  0
C  C108  1  0.79860448  0.77305520  0.67336156  1  -0.067103  0  -0.088351  -0.126941  0  3.974107  0
C  C109  1  0.79860622  0.22694425  0.82663769  1  -0.067493  0  -0.088373  -0.127027  0  3.974195  0
C  C110  1  0.20139468  0.22694428  0.32663809  1  -0.06731  0  -0.088373  -0.127025  0  3.97424  0
C  C111  1  0.20139647  0.77305522  0.17336033  1  -0.067311  0  -0.088402  -0.127109  0  3.974176  0
C  C112  1  0.71813094  0.83781697  0.71885242  1  -0.004572  0  -0.09746  -0.091767  0  4.03333  0
C  C113  1  0.71813273  0.16218185  0.78114605  1  -0.004343  0  -0.097446  -0.091779  0  4.033272  0
C  C114  1  0.28186734  0.16218185  0.28114588  1  -0.004294  0  -0.09745  -0.09176  0  4.033318  0
C  C115  1  0.28186820  0.83781827  0.21885169  1  -0.004286  0  -0.09741  -0.091623  0  4.033226  0
C  C116  1  0.66092228  0.88516590  0.68411904  1  -0.053673  0  -0.087153  -0.101285  0  3.986572  0
C  C117  1  0.66092580  0.11483163  0.81587947  1  -0.053737  0  -0.087142  -0.101194  0  3.986585  0
C  C118  1  0.33907424  0.11483228  0.31588008  1  -0.05378  0  -0.087121  -0.101187  0  3.986587  0
C  C119  1  0.33907512  0.88516849  0.18411827  1  -0.05373  0  -0.087165  -0.101312  0  3.986604  0
C  C120  1  0.68695053  0.87006232  0.60440201  1  -0.029369  0  -0.020448  -0.031298  0  3.979602  0
C  C121  1  0.68695311  0.12993521  0.89559648  1  -0.029629  0  -0.020507  -0.031431  0  3.979635  0
C  C122  1  0.31304687  0.12993521  0.39559630  1  -0.029662  0  -0.02051  -0.03146  0  3.979684  0
C  C123  1  0.31304606  0.87006491  0.10440235  1  -0.029806  0  -0.020555  -0.031464  0  3.979679  0
C  C124  1  0.76898199  0.80592665  0.55929268  1  -0.032655  0  -0.081964  -0.139016  0  3.918014  0
C  C125  1  0.76898452  0.19407086  0.94070578  1  -0.032539  0  -0.081979  -0.139052  0  3.917942  0
C  C126  1  0.23101630  0.19407023  0.44070591  1  -0.032547  0  -0.081946  -0.139008  0  3.918094  0
C  C127  1  0.23101729  0.80592862  0.05929278  1  -0.032558  0  -0.081918  -0.13898  0  3.918026  0
C  C128  1  0.62404682  0.92122563  0.56748750  1  1.558227  0  0.213032  0.590681  0  4.176075  0
C  C129  1  0.62405202  0.07877321  0.93251318  1  1.558392  0  0.213029  0.590644  0  4.176067  0
C  C130  1  0.37594794  0.07877319  0.43251297  1  1.558387  0  0.213075  0.590742  0  4.17594  0
C  C131  1  0.37594979  0.92122821  0.06748726  1  1.558643  0  0.213162  0.590877  0  4.175917  0
C  C132  1  0.80837679  0.57201773  0.56962294  1  -0.004118  0  -0.096709  -0.134341  0  4.038199  0
C  C133  1  0.80837754  0.42798237  0.93037821  1  -0.004085  0  -0.096726  -0.134378  0  4.038281  0
C  C134  1  0.19162237  0.42798110  0.43037754  1  -0.004173  0  -0.096744  -0.134401  0  4.03828  0
C  C135  1  0.19162427  0.57201776  0.06962280  1  -0.004132  0  -0.096737  -0.134467  0  4.038277  0
C  C136  1  0.90646505  0.60234331  0.54028401  1  -0.034974  0  -0.008002  0.030449  0  3.989912  0
C  C137  1  0.90646490  0.39765611  0.95971629  1  -0.034998  0  -0.008029  0.030439  0  3.990026  0
C  C138  1  0.09353676  0.39765682  0.45971537  1  -0.034938  0  -0.007992  0.03053  0  3.989972  0
C  C139  1  0.09353603  0.60234336  0.04028336  1  -0.034964  0  -0.008005  0.030442  0  3.989925  0
C  C140  1  0.91088327  0.68746241  0.54492784  1  0.010563  0  -0.005589  0.026738  0  3.988015  0
C  C141  1  0.91088401  0.31253831  0.95507299  1  0.01056  0  -0.005541  0.026728  0  3.987945  0
C  C142  1  0.08911590  0.31253771  0.45507263  1  0.010534  0  -0.005606  0.026588  0  3.987823  0
C  C143  1  0.08911780  0.68746246  0.04492665  1  0.010543  0  -0.005554  0.026733  0  3.987994  0
C  C144  1  0.99946627  0.70715384  0.50267300  1  -0.044679  0  -0.091543  -0.187065  0  3.999309  0
C  C145  1  0.99946610  0.29284686  0.99732779  1  -0.044679  0  -0.091527  -0.186997  0  3.999291  0
C  C146  1  0.00053377  0.29284629  0.49732856  1  -0.044669  0  -0.091506  -0.186975  0  3.999251  0
C  C147  1  0.00053483  0.70715326  0.00267213  1  -0.044667  0  -0.091556  -0.187037  0  3.999358  0
C  C148  1  0.08818094  0.64810809  0.45985487  1  -0.040196  0  -0.010171  0.020539  0  4.000499  0
C  C149  1  0.08818025  0.35189274  0.04014577  1  -0.040185  0  -0.010179  0.020516  0  4.000465  0
C  C150  1  0.91181910  0.35189269  0.54014586  1  -0.040207  0  -0.010196  0.020482  0  4.000554  0
C  C151  1  0.91181891  0.64810739  0.95985361  1  -0.0402  0  -0.010164  0.020556  0  4.000496  0
C  C152  1  0.09374735  0.56665485  0.46301227  1  -0.028341  0  -0.009426  0.028019  0  3.998421  0
C  C153  1  0.09374664  0.43334533  0.03698755  1  -0.028391  0  -0.009438  0.028016  0  3.998507  0
C  C154  1  0.90625270  0.43334463  0.53698738  1  -0.028391  0  -0.009403  0.02807  0  3.998502  0
C  C155  1  0.90625340  0.56665480  0.96301237  1  -0.028333  0  -0.009389  0.028074  0  3.998365  0
C  C156  1  0.00000593  0.54229249  0.50088360  1  -0.017108  0  0.000425  0.005975  0  3.914696  0
C  C157  1  0.00000750  0.45770651  0.99911680  1  0.049428  0  0.000423  0.005942  0  3.914766  0
C  C158  1  0.99999323  0.45770633  0.49911578  1  0.049426  0  0.000441  0.005985  0  3.914762  0
C  C159  1  0.99999519  0.54229297  0.00088340  1  -0.017117  0  0.000421  0.006011  0  3.914637  0
C  C160  1  0.19189906  0.50873450  0.43239903  1  -0.126728  0  -0.099733  -0.143235  0  4.047791  0
C  C161  1  0.19189920  0.49126436  0.06760077  1  -0.126735  0  -0.099716  -0.143171  0  4.047812  0
C  C162  1  0.80810099  0.49126433  0.56760145  1  -0.126721  0  -0.099728  -0.143229  0  4.047856  0
C  C163  1  0.80809996  0.50873512  0.93239888  1  -0.126754  0  -0.099724  -0.143212  0  4.047853  0
C  C164  1  0.79112965  0.87434273  0.17985741  1  0.231955  0  -0.125403  -0.270666  0  3.866207  0
C  C165  1  0.79112964  0.12565598  0.32014268  1  0.231975  0  -0.125439  -0.270765  0  3.866322  0
C  C166  1  0.20886952  0.12565610  0.82014252  1  0.232269  0  -0.125429  -0.27074  0  3.866353  0
C  C167  1  0.20887129  0.87434350  0.67985806  1  0.231993  0  -0.125373  -0.270575  0  3.866249  0
C  C168  1  0.61760736  0.77791807  0.12081581  1  0.281821  0  -0.126159  -0.276036  0  3.900997  0
C  C169  1  0.61760730  0.22208198  0.37918434  1  0.281829  0  -0.126161  -0.276082  0  3.901026  0
C  C170  1  0.38239268  0.22208141  0.87918384  1  0.28184  0  -0.126171  -0.276086  0  3.901116  0
C  C171  1  0.38239363  0.77792010  0.62081692  1  0.281692  0  -0.126179  -0.276088  0  3.901067  0
C  C172  1  0.63135102  0.86848560  0.26580708  1  1.369851  0  0.184018  0.301968  0  4.049842  0
C  C173  1  0.63135108  0.13151249  0.23419063  1  1.369898  0  0.184  0.301992  0  4.0498  0
C  C174  1  0.36864726  0.13151257  0.73419040  1  1.369923  0  0.184021  0.301995  0  4.049841  0
C  C175  1  0.36864984  0.86848633  0.76580657  1  1.369847  0  0.184059  0.301996  0  4.049754  0
N  N176  1  0.67871786  0.84087530  0.19225632  1  -1.206474  0  -0.272966  0.043165  0  3.718069  0
N  N177  1  0.67871786  0.15912473  0.30774435  1  -1.206378  0  -0.272935  0.043196  0  3.71799  0
N  N178  1  0.32128131  0.15912483  0.80774468  1  -1.206395  0  -0.272965  0.043168  0  3.718023  0
N  N179  1  0.32128307  0.84087734  0.69225637  1  -1.2065  0  -0.272993  0.043127  0  3.718241  0
O  O180  1  0.46117273  0.86575172  0.39226345  1  -1.182647  0  -0.313885  -0.566357  0  2.360689  0
O  O181  1  0.46117289  0.13425032  0.10773538  1  -1.182463  0  -0.313907  -0.56636  0  2.360855  0
O  O182  1  0.53882908  0.13424906  0.60773564  1  -1.18266  0  -0.313899  -0.566398  0  2.360873  0
O  O183  1  0.53882892  0.86575241  0.89226396  1  -1.18261  0  -0.313944  -0.566436  0  2.360842  0
O  O184  1  0.33998613  0.91209590  0.50177740  1  -1.172269  0  -0.314042  -0.546158  0  2.318074  0
O  O185  1  0.33998422  0.08790432  0.99822285  1  -1.172232  0  -0.314001  -0.546055  0  2.318003  0
O  O186  1  0.66001392  0.08790488  0.49822169  1  -1.172243  0  -0.314042  -0.546155  0  2.318005  0
O  O187  1  0.66001406  0.91209581  0.00177816  1  -1.172287  0  -0.314037  -0.546137  0  2.318011  0
O  O188  1  0.66092147  0.91371806  0.49912154  1  -1.159997  0  -0.317734  -0.545477  0  2.302088  0
O  O189  1  0.66092525  0.08628133  0.00087669  1  -1.160057  0  -0.317724  -0.545407  0  2.302227  0
O  O190  1  0.33907681  0.08628207  0.50087729  1  -1.160039  0  -0.317746  -0.545457  0  2.302188  0
O  O191  1  0.33907567  0.91371814  0.99912078  1  -1.159913  0  -0.317705  -0.545437  0  2.302065  0
O  O192  1  0.53741209  0.96753914  0.60755670  1  -1.174852  0  -0.318159  -0.560344  0  2.333895  0
O  O193  1  0.53741116  0.03246102  0.89244401  1  -1.174799  0  -0.318143  -0.560329  0  2.333764  0
O  O194  1  0.46258795  0.03245968  0.39244268  1  -1.174796  0  -0.318165  -0.560359  0  2.333705  0
O  O195  1  0.46258624  0.96754040  0.10755535  1  -1.175047  0  -0.318229  -0.560464  0  2.333863  0
O  O196  1  0.67918658  0.92351057  0.32991970  1  -1.159276  0  -0.297712  -0.4289  0  2.33722  0
O  O197  1  0.67918406  0.07649141  0.17008177  1  -1.15929  0  -0.297736  -0.428887  0  2.337341  0
O  O198  1  0.32081523  0.07649151  0.67008156  1  -1.159313  0  -0.297748  -0.428904  0  2.337391  0
O  O199  1  0.32081422  0.92351132  0.82991976  1  -1.159266  0  -0.297784  -0.428948  0  2.337113  0
