# generated using pymatgen
data_CdH38C44(SN6)2
_symmetry_space_group_name_H-M   'P 1'
_cell_length_a   5.71721856
_cell_length_b   10.32454679
_cell_length_c   17.56983880
_cell_angle_alpha   90.11012063
_cell_angle_beta   87.68486141
_cell_angle_gamma   87.72274568
_symmetry_Int_Tables_number   1
_chemical_formula_structural   CdH38C44(SN6)2
_chemical_formula_sum   'Cd1 H38 C44 S2 N12'
_cell_volume   1035.43562467
_cell_formula_units_Z   1
loop_
 _symmetry_equiv_pos_site_id
 _symmetry_equiv_pos_as_xyz
  1  'x, y, z'
loop_
 _atom_site_type_symbol
 _atom_site_label
 _atom_site_symmetry_multiplicity
 _atom_site_fract_x
 _atom_site_fract_y
 _atom_site_fract_z
 _atom_site_occupancy
 _atom_site_hle17_bader_spin_density
 _atom_site_hle17_ddec_charge
 _atom_site_hle17_ddec_spin_density
 _atom_site_hle17_ddec_sum_bond_order
 _atom_site_hle17_magmom
 _atom_site_hse06_10hf_bader_spin_density
 _atom_site_hse06_10hf_ddec_charge
 _atom_site_hse06_10hf_ddec_spin_density
 _atom_site_hse06_10hf_ddec_sum_bond_order
 _atom_site_hse06_10hf_magmom
 _atom_site_hse06_bader_spin_density
 _atom_site_hse06_ddec_charge
 _atom_site_hse06_ddec_spin_density
 _atom_site_hse06_ddec_sum_bond_order
 _atom_site_hse06_magmom
 _atom_site_pbe_bader_spin_density
 _atom_site_pbe_cm5_charge
 _atom_site_pbe_ddec_charge
 _atom_site_pbe_ddec_spin_density
 _atom_site_pbe_ddec_sum_bond_order
 _atom_site_pbe_magmom
Cd  Cd0  1  0.49997565  0.00000755  0.00000315  1  0  0.971179  0  1.935514  0  0  0.795512  0  2.392107  0  0  0.839875  0  2.356682  0  0  0.721712  0.763519  0  2.416384  0
H  H1  1  0.65614806  0.12158599  0.44504229  1  0  0.104111  0  0.943552  0  0  0.118785  0  1.004273  0  0  0.120975  0  1.003824  0  0  0.101664  0.117286  0  1.00463  0
H  H2  1  0.34384284  0.87843138  0.55496270  1  0  0.104176  0  0.943378  0  0  0.118762  0  1.004186  0  0  0.120952  0  1.003737  0  0  0.101661  0.117267  0  1.004534  0
H  H3  1  0.60132886  0.21116270  0.36180175  1  0  0.092384  0  0.94995  0  0  0.110805  0  1.011024  0  0  0.11184  0  1.012742  0  0  0.097443  0.110034  0  1.00991  0
H  H4  1  0.39868992  0.78885567  0.63819997  1  0  0.09245  0  0.949865  0  0  0.11083  0  1.010985  0  0  0.111869  0  1.012698  0  0  0.097424  0.110051  0  1.009881  0
H  H5  1  0.79152600  0.46854760  0.48768291  1  0  0.091817  0  0.96942  0  0  0.113174  0  1.033909  0  0  0.114529  0  1.033849  0  0  0.083821  0.112133  0  1.034068  0
H  H6  1  0.20844785  0.53146382  0.51231953  1  0  0.091795  0  0.969526  0  0  0.11314  0  1.034021  0  0  0.114492  0  1.033963  0  0  0.083785  0.112099  0  1.034179  0
H  H7  1  0.60578503  0.34035299  0.51396578  1  0  0.111277  0  0.959739  0  0  0.131152  0  1.021494  0  0  0.132906  0  1.021244  0  0  0.089347  0.129853  0  1.021821  0
H  H8  1  0.39421478  0.65963998  0.48603129  1  0  0.111304  0  0.959743  0  0  0.131195  0  1.021468  0  0  0.13295  0  1.021217  0  0  0.089366  0.129896  0  1.021796  0
H  H9  1  0.57323578  0.42149087  0.42522331  1  0  0.093533  0  0.956933  0  0  0.114012  0  1.021261  0  0  0.115056  0  1.022015  0  0  0.082967  0.113164  0  1.020857  0
H  H10  1  0.42675900  0.57849914  0.57477272  1  0  0.093622  0  0.95692  0  0  0.114055  0  1.021297  0  0  0.115098  0  1.022049  0  0  0.08299  0.113207  0  1.020892  0
H  H11  1  0.95463386  0.19275855  0.53475951  1  0  0.106477  0  0.977745  0  0  0.123968  0  1.045666  0  0  0.125459  0  1.045903  0  0  0.083839  0.122886  0  1.045557  0
H  H12  1  0.04539784  0.80725215  0.46524379  1  0  0.106404  0  0.977753  0  0  0.123896  0  1.045703  0  0  0.125382  0  1.045946  0  0  0.083821  0.122813  0  1.045596  0
H  H13  1  0.14796108  0.31793765  0.50920820  1  0  0.09438  0  0.965312  0  0  0.115747  0  1.028297  0  0  0.117019  0  1.028683  0  0  0.082563  0.1148  0  1.028072  0
H  H14  1  0.85206707  0.68207295  0.49079173  1  0  0.094227  0  0.965319  0  0  0.115654  0  1.028255  0  0  0.116928  0  1.028637  0  0  0.082543  0.114708  0  1.028031  0
H  H15  1  0.17877983  0.16541174  0.46266072  1  0  0.100922  0  0.959219  0  0  0.120809  0  1.022251  0  0  0.121824  0  1.023599  0  0  0.081996  0.120067  0  1.021305  0
H  H16  1  0.82124176  0.83459405  0.53734162  1  0  0.100884  0  0.959223  0  0  0.120764  0  1.02227  0  0  0.121776  0  1.023618  0  0  0.081976  0.120022  0  1.021324  0
H  H17  1  0.87871674  0.40511343  0.32588986  1  0  0.092526  0  0.93642  0  0  0.111932  0  0.994581  0  0  0.112808  0  0.996207  0  0  0.098986  0.111332  0  0.993378  0
H  H18  1  0.12128638  0.59488255  0.67411112  1  0  0.092577  0  0.936457  0  0  0.11196  0  0.994657  0  0  0.112838  0  0.996283  0  0  0.098999  0.111363  0  0.993452  0
H  H19  1  0.12141280  0.42440493  0.38278237  1  0  0.086529  0  0.935213  0  0  0.106327  0  0.991548  0  0  0.107787  0  0.991152  0  0  0.098917  0.105156  0  0.992263  0
H  H20  1  0.87859301  0.57559966  0.61721282  1  0  0.086556  0  0.935142  0  0  0.106364  0  0.991473  0  0  0.107826  0  0.99108  0  0  0.098918  0.105193  0  0.992191  0
H  H21  1  0.19739344  0.06143911  0.27150082  1  0  0.1067  0  0.950356  0  0  0.118637  0  1.01001  0  0  0.12201  0  1.010068  0  0  0.102083  0.116137  0  1.010471  0
H  H22  1  0.80257606  0.93856055  0.72849722  1  0  0.106722  0  0.950301  0  0  0.118632  0  1.010008  0  0  0.122013  0  1.010049  0  0  0.102083  0.116128  0  1.010479  0
H  H23  1  0.43598602  0.22649151  0.22828166  1  0  0.092317  0  0.967814  0  0  0.102653  0  1.033292  0  0  0.105918  0  1.032274  0  0  0.095131  0.100296  0  1.034225  0
H  H24  1  0.56402490  0.77351618  0.77172083  1  0  0.092331  0  0.967709  0  0  0.102662  0  1.03319  0  0  0.105927  0  1.032171  0  0  0.095142  0.100303  0  1.034128  0
H  H25  1  0.27792251  0.50128813  0.28431363  1  0  0.095467  0  0.947323  0  0  0.108069  0  1.006482  0  0  0.11067  0  1.004596  0  0  0.107744  0.105896  0  1.008455  0
H  H26  1  0.72209966  0.49871089  0.71568932  1  0  0.095445  0  0.94733  0  0  0.108096  0  1.006443  0  0  0.110697  0  1.004558  0  0  0.10774  0.10592  0  1.008417  0
H  H27  1  0.44513781  0.67662957  0.22758308  1  0  0.106718  0  0.977788  0  0  0.112916  0  1.046422  0  0  0.116412  0  1.043885  0  0  0.100563  0.110658  0  1.047564  0
H  H28  1  0.55489049  0.32337908  0.77241629  1  0  0.10672  0  0.977855  0  0  0.112917  0  1.046492  0  0  0.116412  0  1.043961  0  0  0.100558  0.11066  0  1.047633  0
H  H29  1  0.75948636  0.77708630  0.15097358  1  0  0.089278  0  0.997611  0  0  0.095049  0  1.07024  0  0  0.097295  0  1.070199  0  0  0.094116  0.094041  0  1.069453  0
H  H30  1  0.24053593  0.22290849  0.84901518  1  0  0.089265  0  0.99766  0  0  0.094984  0  1.070312  0  0  0.097224  0  1.070281  0  0  0.094088  0.093976  0  1.06952  0
H  H31  1  0.08387177  0.39890698  0.10436477  1  0  0.111239  0  0.949865  0  0  0.120018  0  1.014014  0  0  0.123201  0  1.012211  0  0  0.107965  0.117782  0  1.0151  0
H  H32  1  0.91611990  0.60107925  0.89563589  1  0  0.111379  0  0.949713  0  0  0.120109  0  1.013907  0  0  0.123296  0  1.012096  0  0  0.107959  0.117874  0  1.014992  0
H  H33  1  0.76324235  0.29741620  0.17746618  1  0  0.085176  0  0.989832  0  0  0.092277  0  1.059567  0  0  0.094273  0  1.059812  0  0  0.091126  0.091147  0  1.058739  0
H  H34  1  0.23673421  0.70258249  0.82253062  1  0  0.08518  0  0.98984  0  0  0.092297  0  1.05955  0  0  0.094291  0  1.059798  0  0  0.091134  0.091169  0  1.058719  0
H  H35  1  0.08439263  0.85360932  0.11926102  1  0  0.094726  0  0.988922  0  0  0.101028  0  1.059815  0  0  0.10314  0  1.057049  0  0  0.131937  0.09975  0  1.061111  0
H  H36  1  0.91562746  0.14637107  0.88073413  1  0  0.094656  0  0.988811  0  0  0.100971  0  1.059717  0  0  0.103077  0  1.056968  0  0  0.131932  0.099693  0  1.061011  0
H  H37  1  0.57293263  0.65502108  0.97136046  1  0  0.098208  0  0.93963  0  0  0.102421  0  1.010704  0  0  0.10535  0  1.006767  0  0  0.134097  0.10031  0  1.013516  0
H  H38  1  0.42707008  0.34497863  0.02863424  1  0  0.098186  0  0.939709  0  0  0.102458  0  1.010715  0  0  0.105425  0  1.006742  0  0  0.134122  0.100348  0  1.013528  0
C  C39  1  0.98156711  0.85926636  0.30234799  1  0  0.288027  0  3.812116  0  0  0.26973  0  4.086248  0  0  0.282073  0  4.105038  0  0  0.186724  0.261652  0  4.074027  0
C  C40  1  0.01841932  0.14073902  0.69764349  1  0  0.287921  0  3.811888  0  0  0.269627  0  4.086046  0  0  0.28198  0  4.104837  0  0  0.186764  0.26155  0  4.07382  0
C  C41  1  0.63032850  0.90635700  0.38070218  1  0  0.278591  0  3.801021  0  0  0.265945  0  4.067431  0  0  0.277244  0  4.087745  0  0  0.187806  0.258451  0  4.053899  0
C  C42  1  0.36966729  0.09364394  0.61930400  1  0  0.278736  0  3.800865  0  0  0.2661  0  4.067278  0  0  0.277407  0  4.087594  0  0  0.187858  0.258604  0  4.053747  0
C  C43  1  0.83799720  0.95091081  0.34453307  1  0  -0.136679  0  3.901636  0  0  -0.115768  0  4.131057  0  0  -0.127614  0  4.15074  0  0  -0.001641  -0.108761  0  4.118444  0
C  C44  1  0.16199308  0.04909297  0.65547146  1  0  -0.136622  0  3.901848  0  0  -0.115763  0  4.131279  0  0  -0.127628  0  4.150978  0  0  -0.001664  -0.108755  0  4.118669  0
C  C45  1  0.89533890  0.08055920  0.34970054  1  0  0.187565  0  3.693841  0  0  0.187083  0  3.941455  0  0  0.201386  0  3.958013  0  0  0.03519  0.178251  0  3.929741  0
C  C46  1  0.10465326  0.91944261  0.65030227  1  0  0.187524  0  3.693701  0  0  0.187162  0  3.941153  0  0  0.201474  0  3.957705  0  0  0.035266  0.178329  0  3.929439  0
C  C47  1  0.74250809  0.17259822  0.39751914  1  0  -0.232051  0  3.643631  0  0  -0.268798  0  3.865147  0  0  -0.273976  0  3.877257  0  0  -0.153962  -0.265149  0  3.856529  0
C  C48  1  0.25749412  0.82740950  0.60248575  1  0  -0.232123  0  3.643319  0  0  -0.268839  0  3.864893  0  0  -0.274021  0  3.876999  0  0  -0.153952  -0.265183  0  3.856278  0
C  C49  1  0.87661828  0.28668646  0.42808318  1  0  0.228396  0  3.572194  0  0  0.264428  0  3.797483  0  0  0.265884  0  3.816921  0  0  -0.014992  0.263397  0  3.784042  0
C  C50  1  0.12339115  0.71331833  0.57191992  1  0  0.228241  0  3.572397  0  0  0.26432  0  3.797645  0  0  0.265777  0  3.817082  0  0  -0.015012  0.263286  0  3.784202  0
C  C51  1  0.70106895  0.38491827  0.46592493  1  0  -0.341362  0  3.661305  0  0  -0.422114  0  3.899601  0  0  -0.42508  0  3.909622  0  0  -0.244519  -0.419825  0  3.892688  0
C  C52  1  0.29892853  0.61508256  0.53407667  1  0  -0.34147  0  3.661596  0  0  -0.422201  0  3.899904  0  0  -0.425162  0  3.909924  0  0  -0.244555  -0.419911  0  3.892991  0
C  C53  1  0.05024347  0.23753302  0.48691719  1  0  -0.353213  0  3.655448  0  0  -0.432354  0  3.887671  0  0  -0.436272  0  3.898988  0  0  -0.251547  -0.429377  0  3.879772  0
C  C54  1  0.94977787  0.76247566  0.51308457  1  0  -0.352839  0  3.655347  0  0  -0.432026  0  3.887537  0  0  -0.435934  0  3.898864  0  0  -0.251435  -0.429048  0  3.879643  0
C  C55  1  0.00630630  0.35127054  0.36076458  1  0  -0.227484  0  3.654361  0  0  -0.269257  0  3.882556  0  0  -0.273506  0  3.895815  0  0  -0.154839  -0.265963  0  3.872965  0
C  C56  1  0.99369512  0.64872881  0.63923982  1  0  -0.227519  0  3.654419  0  0  -0.269294  0  3.882631  0  0  -0.273559  0  3.895914  0  0  -0.154829  -0.266003  0  3.873045  0
C  C57  1  0.14608475  0.25736837  0.30965826  1  0  0.176644  0  3.702019  0  0  0.190013  0  3.947026  0  0  0.200503  0  3.966813  0  0  0.017403  0.1833  0  3.933179  0
C  C58  1  0.85392340  0.74263057  0.69034376  1  0  0.176668  0  3.701912  0  0  0.190041  0  3.946944  0  0  0.200532  0  3.966729  0  0  0.017389  0.183328  0  3.933096  0
C  C59  1  0.09121849  0.12853140  0.30796663  1  0  -0.215122  0  3.696289  0  0  -0.243203  0  3.955587  0  0  -0.257205  0  3.977483  0  0  -0.096741  -0.23451  0  3.941052  0
C  C60  1  0.90876846  0.87146934  0.69203284  1  0  -0.215246  0  3.696419  0  0  -0.243347  0  3.955715  0  0  -0.25735  0  3.977612  0  0  -0.096816  -0.234654  0  3.941178  0
C  C61  1  0.33586910  0.30095505  0.26161582  1  0  -0.14791  0  3.754397  0  0  -0.166617  0  4.010966  0  0  -0.175478  0  4.03262  0  0  -0.095287  -0.161126  0  3.99643  0
C  C62  1  0.66412521  0.69904192  0.73838699  1  0  -0.147745  0  3.754359  0  0  -0.166428  0  4.010897  0  0  -0.17529  0  4.032556  0  0  -0.095209  -0.160937  0  3.996358  0
C  C63  1  0.38943362  0.42797051  0.25402843  1  0  -0.05838  0  3.698979  0  0  -0.083614  0  3.954772  0  0  -0.079243  0  3.972789  0  0  -0.068356  -0.08611  0  3.942811  0
C  C64  1  0.61057745  0.57203521  0.74597293  1  0  -0.058416  0  3.699308  0  0  -0.083694  0  3.955095  0  0  -0.079325  0  3.973115  0  0  -0.068364  -0.086187  0  3.943135  0
C  C65  1  0.57966275  0.47983138  0.20831903  1  0  0.069151  0  3.819447  0  0  0.086803  0  4.055067  0  0  0.084157  0  4.08029  0  0  -0.015346  0.087794  0  4.038409  0
C  C66  1  0.42035063  0.52016754  0.79168121  1  0  0.069192  0  3.819227  0  0  0.086849  0  4.054866  0  0  0.084208  0  4.080083  0  0  -0.015252  0.087839  0  4.038212  0
C  C67  1  0.58521082  0.61568341  0.20054868  1  0  -0.085029  0  3.696964  0  0  -0.106135  0  3.942473  0  0  -0.107728  0  3.963719  0  0  -0.084549  -0.105036  0  3.928127  0
C  C68  1  0.41480583  0.38431846  0.79945320  1  0  -0.085087  0  3.697439  0  0  -0.106214  0  3.942953  0  0  -0.107806  0  3.964192  0  0  -0.08463  -0.105116  0  3.928607  0
C  C69  1  0.76243773  0.67224453  0.15791799  1  0  -0.134129  0  3.76248  0  0  -0.153218  0  4.017594  0  0  -0.157893  0  4.040203  0  0  -0.091891  -0.150437  0  4.002205  0
C  C70  1  0.23757411  0.32774921  0.84206922  1  0  -0.134218  0  3.762866  0  0  -0.153275  0  4.017941  0  0  -0.157947  0  4.040546  0  0  -0.091932  -0.150488  0  4.00255  0
C  C71  1  0.94325598  0.59387881  0.12422852  1  0  0.179481  0  3.749432  0  0  0.156294  0  4.000814  0  0  0.161833  0  4.021982  0  0  0.107042  0.152908  0  3.986545  0
C  C72  1  0.05676813  0.40611722  0.87577101  1  0  0.179687  0  3.749153  0  0  0.156595  0  4.000356  0  0  0.16215  0  4.021507  0  0  0.107141  0.153203  0  3.986093  0
C  C73  1  0.94278024  0.45881144  0.13105149  1  0  -0.126801  0  3.735812  0  0  -0.15246  0  3.999122  0  0  -0.156493  0  4.020058  0  0  -0.08437  -0.149945  0  3.984716  0
C  C74  1  0.05722963  0.54118634  0.86894255  1  0  -0.126964  0  3.735977  0  0  -0.152616  0  3.999271  0  0  -0.156651  0  4.020207  0  0  -0.084315  -0.150099  0  3.984867  0
C  C75  1  0.76154191  0.40264991  0.17238330  1  0  -0.084763  0  3.70823  0  0  -0.100322  0  3.950836  0  0  -0.102162  0  3.973554  0  0  -0.082136  -0.097878  0  3.934285  0
C  C76  1  0.23845400  0.59734901  0.82761948  1  0  -0.084816  0  3.708265  0  0  -0.100395  0  3.950905  0  0  -0.102236  0  3.973623  0  0  -0.082244  -0.097949  0  3.934349  0
C  C77  1  0.18059270  0.78059262  0.08516519  1  0  0.194034  0  3.624072  0  0  0.118784  0  3.884794  0  0  0.133841  0  3.896505  0  0  0.165579  0.109521  0  3.875849  0
C  C78  1  0.81940874  0.21940127  0.91482957  1  0  0.194159  0  3.62415  0  0  0.118839  0  3.884942  0  0  0.133906  0  3.89664  0  0  0.165525  0.109573  0  3.875996  0
C  C79  1  0.42602970  0.67684706  0.01076983  1  0  0.212768  0  3.695405  0  0  0.158082  0  3.990421  0  0  0.16985  0  4.003139  0  0  0.151152  0.150366  0  3.981473  0
C  C80  1  0.57398722  0.32315083  0.98922752  1  0  0.212788  0  3.695301  0  0  0.158046  0  3.990351  0  0  0.169784  0  4.003043  0  0  0.1512  0.150329  0  3.981407  0
C  C81  1  0.01542620  0.92099460  0.90895208  1  0  0.303276  0  3.989389  0  0  0.285478  0  4.29015  0  0  0.306562  0  4.304765  0  0  0.144942  0.270847  0  4.279998  0
C  C82  1  0.98450753  0.07899554  0.09105851  1  0  0.303085  0  3.988735  0  0  0.285277  0  4.28956  0  0  0.306348  0  4.30417  0  0  0.14484  0.270654  0  4.279409  0
S  S83  1  0.26412077  0.95699450  0.86655261  1  0  -0.327862  0  2.116824  0  0  -0.296768  0  2.433063  0  0  -0.312906  0  2.426419  0  0  -0.12661  -0.284605  0  2.436624  0
S  S84  1  0.73579948  0.04298984  0.13346107  1  0  -0.32795  0  2.116744  0  0  -0.296865  0  2.433004  0  0  -0.312997  0  2.426358  0  0  -0.126611  -0.2847  0  2.436565  0
N  N85  1  0.10365162  0.78463624  0.26791774  1  0  -0.410215  0  2.615953  0  0  -0.385432  0  2.846186  0  0  -0.398053  0  2.859023  0  0  -0.302158  -0.377361  0  2.837883  0
N  N86  1  0.89632176  0.21539799  0.73206575  1  0  -0.410144  0  2.615502  0  0  -0.385369  0  2.845737  0  0  -0.397986  0  2.858562  0  0  -0.302187  -0.377292  0  2.837422  0
N  N87  1  0.45570986  0.87292354  0.41017809  1  0  -0.391404  0  2.585699  0  0  -0.367974  0  2.807456  0  0  -0.380015  0  2.821467  0  0  -0.294075  -0.360082  0  2.797989  0
N  N88  1  0.54431092  0.12705028  0.58982564  1  0  -0.391555  0  2.585434  0  0  -0.36811  0  2.807186  0  0  -0.380155  0  2.821197  0  0  -0.294134  -0.36022  0  2.797723  0
N  N89  1  0.12892429  0.65392685  0.08400021  1  0  0.019073  0  3.572437  0  0  0.136396  0  3.749841  0  0  0.126071  0  3.771599  0  0  -0.111519  0.141959  0  3.737097  0
N  N90  1  0.87109836  0.34606524  0.91599709  1  0  0.018803  0  3.572607  0  0  0.136197  0  3.749875  0  0  0.12582  0  3.771718  0  0  -0.111553  0.141765  0  3.737132  0
N  N91  1  0.28616278  0.58640096  0.03681512  1  0  -0.251723  0  2.848454  0  0  -0.250143  0  3.119295  0  0  -0.258309  0  3.133825  0  0  -0.20719  -0.244189  0  3.109347  0
N  N92  1  0.71384910  0.41359396  0.96318062  1  0  -0.251567  0  2.848444  0  0  -0.25  0  3.119274  0  0  -0.258152  0  3.133808  0  0  -0.207156  -0.244048  0  3.109328  0
N  N93  1  0.36713744  0.79824911  0.03905144  1  0  -0.418339  0  3.222225  0  0  -0.340342  0  3.505075  0  0  -0.364433  0  3.523089  0  0  -0.347584  -0.323778  0  3.492081  0
N  N94  1  0.63287634  0.20174385  0.96094314  1  0  -0.418374  0  3.222214  0  0  -0.340368  0  3.505118  0  0  -0.364458  0  3.523138  0  0  -0.347605  -0.323799  0  3.492116  0
N  N95  1  0.83351541  0.89620634  0.93925628  1  0  -0.533901  0  2.80019  0  0  -0.482053  0  3.065501  0  0  -0.501443  0  3.072623  0  0  -0.393718  -0.46881  0  3.060576  0
N  N96  1  0.16640022  0.10377019  0.06075582  1  0  -0.53363  0  2.799503  0  0  -0.481748  0  3.064809  0  0  -0.501148  0  3.071964  0  0  -0.393599  -0.468512  0  3.059888  0
