# generated using pymatgen
data_H10Pb2C12I2N2O5
_symmetry_space_group_name_H-M   'P 1'
_cell_length_a   7.92544239
_cell_length_b   11.14396622
_cell_length_c   11.14389829
_cell_angle_alpha   112.93565823
_cell_angle_beta   93.08808698
_cell_angle_gamma   93.08904975
_symmetry_Int_Tables_number   1
_chemical_formula_structural   H10Pb2C12I2N2O5
_chemical_formula_sum   'H20 Pb4 C24 I4 N4 O10'
_cell_volume   902.10591871
_cell_formula_units_Z   2
loop_
 _symmetry_equiv_pos_site_id
 _symmetry_equiv_pos_as_xyz
  1  'x, y, z'
loop_
 _atom_site_type_symbol
 _atom_site_label
 _atom_site_symmetry_multiplicity
 _atom_site_fract_x
 _atom_site_fract_y
 _atom_site_fract_z
 _atom_site_occupancy
 _atom_site_hle17_bader_spin_density
 _atom_site_hle17_ddec_charge
 _atom_site_hle17_ddec_spin_density
 _atom_site_hle17_ddec_sum_bond_order
 _atom_site_hle17_magmom
 _atom_site_hse06_10hf_bader_spin_density
 _atom_site_hse06_10hf_ddec_charge
 _atom_site_hse06_10hf_ddec_spin_density
 _atom_site_hse06_10hf_ddec_sum_bond_order
 _atom_site_hse06_10hf_magmom
 _atom_site_hse06_bader_spin_density
 _atom_site_hse06_ddec_charge
 _atom_site_hse06_ddec_spin_density
 _atom_site_hse06_ddec_sum_bond_order
 _atom_site_hse06_magmom
 _atom_site_pbe_bader_spin_density
 _atom_site_pbe_cm5_charge
 _atom_site_pbe_ddec_charge
 _atom_site_pbe_ddec_spin_density
 _atom_site_pbe_ddec_sum_bond_order
 _atom_site_pbe_magmom
H  H0  1  0.79027788  0.99449004  0.48376051  1  0  0.095629  0  0.953377  0  0  0.101055  0  1.022299  0  0  0.104537  0  1.018737  0  0  0.114106  0.098427  0  1.024962  0
H  H1  1  0.70970489  0.51624124  0.00551234  1  0  0.095586  0  0.953376  0  0  0.101056  0  1.022236  0  0  0.104558  0  1.018638  0  0  0.114067  0.098404  0  1.024943  0
H  H2  1  0.20971381  0.00551607  0.51623349  1  0  0.095623  0  0.95339  0  0  0.101072  0  1.022305  0  0  0.104553  0  1.018745  0  0  0.114109  0.098442  0  1.024968  0
H  H3  1  0.29026303  0.48375186  0.99448033  1  0  0.095662  0  0.953427  0  0  0.101122  0  1.02229  0  0  0.104624  0  1.018694  0  0  0.114113  0.098495  0  1.024937  0
H  H4  1  0.56453347  0.98826747  0.80931241  1  0  0.068122  0  0.976602  0  0  0.072008  0  1.051438  0  0  0.075137  0  1.048439  0  0  0.095029  0.069325  0  1.054158  0
H  H5  1  0.93546367  0.19070504  0.01175431  1  0  0.068075  0  0.976654  0  0  0.07203  0  1.051437  0  0  0.075162  0  1.048435  0  0  0.094999  0.069346  0  1.054156  0
H  H6  1  0.43546009  0.01174352  0.19069523  1  0  0.068142  0  0.976586  0  0  0.072044  0  1.051401  0  0  0.075177  0  1.048399  0  0  0.095055  0.069362  0  1.054116  0
H  H7  1  0.06451265  0.80929694  0.98824659  1  0  0.068146  0  0.976558  0  0  0.071986  0  1.051436  0  0  0.075115  0  1.04844  0  0  0.095021  0.069309  0  1.054148  0
H  H8  1  0.43540346  0.19889193  0.84682806  1  0  0.116936  0  0.959659  0  0  0.122281  0  1.028887  0  0  0.126711  0  1.025676  0  0  0.097839  0.119062  0  1.031395  0
H  H9  1  0.06458673  0.15317488  0.80113121  1  0  0.116997  0  0.959707  0  0  0.122323  0  1.02895  0  0  0.126758  0  1.025727  0  0  0.097878  0.119104  0  1.031457  0
H  H10  1  0.56460616  0.80113100  0.15317846  1  0  0.11714  0  0.959663  0  0  0.122452  0  1.028892  0  0  0.126885  0  1.025673  0  0  0.097893  0.119231  0  1.0314  0
H  H11  1  0.93539034  0.84681929  0.19887561  1  0  0.117107  0  0.959645  0  0  0.122418  0  1.028866  0  0  0.126843  0  1.025662  0  0  0.097886  0.119197  0  1.031373  0
H  H12  1  0.66463372  0.20108764  0.50443910  1  0  0.101381  0  0.968739  0  0  0.105838  0  1.043091  0  0  0.109738  0  1.040711  0  0  0.098592  0.10358  0  1.043987  0
H  H13  1  0.83536350  0.49557121  0.79891800  1  0  0.10135  0  0.968714  0  0  0.105798  0  1.043086  0  0  0.109699  0  1.040702  0  0  0.098566  0.103543  0  1.043978  0
H  H14  1  0.33535682  0.79893210  0.49557457  1  0  0.101414  0  0.968755  0  0  0.105865  0  1.043109  0  0  0.109765  0  1.040731  0  0  0.098637  0.103609  0  1.044005  0
H  H15  1  0.16463925  0.50443114  0.20107486  1  0  0.101417  0  0.968684  0  0  0.105881  0  1.043018  0  0  0.109782  0  1.040632  0  0  0.098611  0.103625  0  1.043917  0
H  H16  1  0.85062193  0.44211799  0.55999989  1  0  0.422954  0  0.882132  0  0  0.389813  0  0.949493  0  0  0.400845  0  0.933708  0  0  0.284823  0.38216  0  0.960227  0
H  H17  1  0.64936228  0.44000590  0.55788196  1  0  0.423023  0  0.882037  0  0  0.389835  0  0.949494  0  0  0.400865  0  0.933709  0  0  0.284782  0.382173  0  0.960243  0
H  H18  1  0.14936732  0.55787245  0.43999687  1  0  0.422994  0  0.88208  0  0  0.389804  0  0.949541  0  0  0.400834  0  0.933757  0  0  0.284786  0.382139  0  0.960298  0
H  H19  1  0.35062950  0.56000119  0.44211333  1  0  0.422921  0  0.882176  0  0  0.389789  0  0.949524  0  0  0.400818  0  0.933742  0  0  0.28479  0.38213  0  0.960268  0
Pb  Pb20  1  0.79032296  0.74891787  0.59942353  1  0  1.1242  0  1.524487  0  0  0.944658  0  1.927577  0  0  1.008871  0  1.883653  0  0  0.502423  0.899818  0  1.957165  0
Pb  Pb21  1  0.70973314  0.40052146  0.25099143  1  0  1.124146  0  1.524399  0  0  0.944515  0  1.927614  0  0  1.008751  0  1.883666  0  0  0.50246  0.899746  0  1.957078  0
Pb  Pb22  1  0.20976281  0.25101619  0.40056298  1  0  1.124242  0  1.524262  0  0  0.944673  0  1.927389  0  0  1.008882  0  1.883471  0  0  0.502527  0.899847  0  1.956953  0
Pb  Pb23  1  0.29029316  0.59943635  0.74895325  1  0  1.124266  0  1.524047  0  0  0.944683  0  1.927171  0  0  1.008902  0  1.883251  0  0  0.502556  0.89986  0  1.956722  0
C  C24  1  0.46346829  0.34243541  0.69657957  1  0  0.639915  0  3.904394  0  0  0.584039  0  4.196913  0  0  0.618131  0  4.191852  0  0  0.212569  0.560901  0  4.199453  0
C  C25  1  0.03649405  0.30340088  0.65755068  1  0  0.639812  0  3.904466  0  0  0.583961  0  4.196907  0  0  0.618063  0  4.191842  0  0  0.212487  0.560823  0  4.19945  0
C  C26  1  0.53655081  0.65756223  0.30343168  1  0  0.639803  0  3.904495  0  0  0.583785  0  4.197213  0  0  0.617873  0  4.192153  0  0  0.212417  0.560644  0  4.199759  0
C  C27  1  0.96348985  0.69658558  0.34244615  1  0  0.639842  0  3.90435  0  0  0.584047  0  4.196734  0  0  0.618145  0  4.191669  0  0  0.212582  0.560914  0  4.199275  0
C  C28  1  0.70991946  0.04208736  0.56216214  1  0  0.131744  0  3.686916  0  0  0.099465  0  3.944067  0  0  0.106072  0  3.962807  0  0  0.045702  0.095273  0  3.931532  0
C  C29  1  0.79006241  0.43783593  0.95791069  1  0  0.13192  0  3.68662  0  0  0.099652  0  3.943723  0  0  0.106261  0  3.962455  0  0  0.045776  0.095457  0  3.931195  0
C  C30  1  0.29007187  0.95791386  0.43783353  1  0  0.131876  0  3.686841  0  0  0.099556  0  3.944041  0  0  0.106165  0  3.962779  0  0  0.045779  0.095356  0  3.93152  0
C  C31  1  0.20991999  0.56216518  0.04207928  1  0  0.131645  0  3.686766  0  0  0.099427  0  3.943788  0  0  0.106038  0  3.962515  0  0  0.045724  0.095239  0  3.93127  0
C  C32  1  0.58463195  0.03909561  0.74432791  1  0  0.120181  0  3.721994  0  0  0.092822  0  3.973133  0  0  0.098588  0  3.992818  0  0  0.042955  0.089132  0  3.960165  0
C  C33  1  0.91536077  0.25567704  0.96091091  1  0  0.120178  0  3.722107  0  0  0.092739  0  3.973258  0  0  0.098507  0  3.992946  0  0  0.042974  0.089045  0  3.960292  0
C  C34  1  0.41538541  0.96091276  0.25568032  1  0  0.12008  0  3.722082  0  0  0.092707  0  3.973202  0  0  0.098473  0  3.992889  0  0  0.042895  0.089017  0  3.960225  0
C  C35  1  0.08461166  0.74432392  0.03908857  1  0  0.120164  0  3.721858  0  0  0.092821  0  3.973038  0  0  0.098591  0  3.992718  0  0  0.042902  0.089127  0  3.960068  0
C  C36  1  0.51198782  0.15569398  0.76463898  1  0  -0.099264  0  3.672848  0  0  -0.12203  0  3.919527  0  0  -0.126195  0  3.938575  0  0  -0.076137  -0.119108  0  3.906903  0
C  C37  1  0.98801430  0.23537264  0.84431257  1  0  -0.099127  0  3.672947  0  0  -0.121913  0  3.919604  0  0  -0.126079  0  3.938651  0  0  -0.076155  -0.118991  0  3.906984  0
C  C38  1  0.48803874  0.84431743  0.23537700  1  0  -0.099382  0  3.673229  0  0  -0.122117  0  3.919816  0  0  -0.126283  0  3.938862  0  0  -0.076152  -0.119198  0  3.907186  0
C  C39  1  0.01196837  0.76462942  0.15568944  1  0  -0.099451  0  3.672889  0  0  -0.122164  0  3.9195  0  0  -0.126329  0  3.938546  0  0  -0.07612  -0.119236  0  3.906877  0
C  C40  1  0.63990898  0.15770609  0.57473744  1  0  -0.124326  0  3.713973  0  0  -0.147336  0  3.96657  0  0  -0.15314  0  3.988041  0  0  -0.083867  -0.144262  0  3.95243  0
C  C41  1  0.86007851  0.42526534  0.84229219  1  0  -0.124198  0  3.71386  0  0  -0.147231  0  3.966377  0  0  -0.153057  0  3.987902  0  0  -0.083779  -0.144143  0  3.952211  0
C  C42  1  0.36010236  0.84230513  0.42527531  1  0  -0.124373  0  3.714167  0  0  -0.147409  0  3.966798  0  0  -0.153212  0  3.988266  0  0  -0.083948  -0.144344  0  3.952671  0
C  C43  1  0.13990748  0.57473288  0.15769945  1  0  -0.124411  0  3.714107  0  0  -0.147457  0  3.966666  0  0  -0.15328  0  3.988179  0  0  -0.083907  -0.144375  0  3.952511  0
C  C44  1  0.53949593  0.21636490  0.67810115  1  0  -0.016267  0  3.72967  0  0  0.005629  0  3.960231  0  0  0.002708  0  3.98104  0  0  0.001331  0.007597  0  3.946405  0
C  C45  1  0.96048299  0.32189734  0.78363400  1  0  -0.016467  0  3.73  0  0  0.005525  0  3.96042  0  0  0.002599  0  3.981226  0  0  0.001331  0.007489  0  3.946607  0
C  C46  1  0.46052707  0.78364939  0.32191585  1  0  -0.01636  0  3.730082  0  0  0.005622  0  3.960592  0  0  0.002708  0  3.981398  0  0  0.001317  0.007599  0  3.946743  0
C  C47  1  0.03950143  0.67809597  0.21636284  1  0  -0.016155  0  3.729801  0  0  0.005722  0  3.960319  0  0  0.002799  0  3.981122  0  0  0.001343  0.007676  0  3.946522  0
I  I48  1  0.63423625  0.75688851  0.87671153  1  0  -0.519639  0  0.941201  0  0  -0.453905  0  1.238618  0  0  -0.480544  0  1.217567  0  0  -0.162273  -0.434756  0  1.253509  0
I  I49  1  0.86578762  0.12329726  0.24312667  1  0  -0.519598  0  0.941241  0  0  -0.453827  0  1.238636  0  0  -0.480478  0  1.217593  0  0  -0.162227  -0.434686  0  1.253517  0
I  I50  1  0.36577446  0.24312081  0.12327174  1  0  -0.519593  0  0.941254  0  0  -0.453829  0  1.238681  0  0  -0.480473  0  1.217632  0  0  -0.162235  -0.434689  0  1.253558  0
I  I51  1  0.13420545  0.87675179  0.75690307  1  0  -0.519724  0  0.941243  0  0  -0.45394  0  1.238572  0  0  -0.480582  0  1.21752  0  0  -0.162329  -0.434795  0  1.253472  0
N  N52  1  0.68192254  0.98304369  0.64508108  1  0  -0.345897  0  3.216482  0  0  -0.267423  0  3.467112  0  0  -0.289175  0  3.491892  0  0  -0.300288  -0.253312  0  3.450156  0
N  N53  1  0.81807403  0.35491992  0.01695812  1  0  -0.345969  0  3.216776  0  0  -0.267434  0  3.467338  0  0  -0.28919  0  3.492115  0  0  -0.300276  -0.253328  0  3.450408  0
N  N54  1  0.31809048  0.01695877  0.35492201  1  0  -0.345893  0  3.216859  0  0  -0.267344  0  3.467416  0  0  -0.289101  0  3.492199  0  0  -0.300319  -0.253236  0  3.450479  0
N  N55  1  0.18190706  0.64508019  0.98303411  1  0  -0.345882  0  3.216429  0  0  -0.267391  0  3.466973  0  0  -0.289144  0  3.491745  0  0  -0.300278  -0.253285  0  3.45003  0
O  O56  1  0.39719660  0.40343766  0.80163164  1  0  -0.588588  0  1.964989  0  0  -0.526114  0  2.197658  0  0  -0.554844  0  2.192434  0  0  -0.283531  -0.506157  0  2.200697  0
O  O57  1  0.10278838  0.19835786  0.59656183  1  0  -0.588556  0  1.964988  0  0  -0.526105  0  2.197634  0  0  -0.554794  0  2.192319  0  0  -0.283462  -0.50615  0  2.200675  0
O  O58  1  0.60281333  0.59655594  0.19837865  1  0  -0.588543  0  1.965017  0  0  -0.525958  0  2.197664  0  0  -0.554706  0  2.192489  0  0  -0.283458  -0.506002  0  2.200711  0
O  O59  1  0.89722954  0.80163975  0.40345475  1  0  -0.58858  0  1.96481  0  0  -0.526098  0  2.197363  0  0  -0.554775  0  2.192031  0  0  -0.283515  -0.506143  0  2.200405  0
O  O60  1  0.46831354  0.38250714  0.60255893  1  0  -0.694634  0  2.032565  0  0  -0.604189  0  2.254519  0  0  -0.636949  0  2.248484  0  0  -0.305252  -0.580562  0  2.257462  0
O  O61  1  0.03165276  0.39741732  0.61747183  1  0  -0.694487  0  2.032373  0  0  -0.604177  0  2.254445  0  0  -0.636905  0  2.24832  0  0  -0.305324  -0.580552  0  2.257379  0
O  O62  1  0.53170562  0.61750513  0.39746344  1  0  -0.694458  0  2.032567  0  0  -0.604065  0  2.254593  0  0  -0.63682  0  2.248558  0  0  -0.305117  -0.580444  0  2.257538  0
O  O63  1  0.96832931  0.60256425  0.38251315  1  0  -0.694538  0  2.032624  0  0  -0.604185  0  2.254617  0  0  -0.636938  0  2.248549  0  0  -0.305282  -0.580557  0  2.257558  0
O  O64  1  0.74999547  0.47314282  0.52685013  1  0  -0.865147  0  1.858773  0  0  -0.793445  0  2.043171  0  0  -0.821279  0  2.013847  0  0  -0.568213  -0.774465  0  2.062419  0
O  O65  1  0.25000229  0.52684580  0.47313451  1  0  -0.865127  0  1.858837  0  0  -0.793436  0  2.043223  0  0  -0.821264  0  2.013904  0  0  -0.568189  -0.774448  0  2.062477  0
