# generated using pymatgen
data_ZnH10C16N2(ClO2)2
_symmetry_space_group_name_H-M   'P 1'
_cell_length_a   11.61830576
_cell_length_b   12.71451659
_cell_length_c   15.76038628
_cell_angle_alpha   90.00000202
_cell_angle_beta   89.99999341
_cell_angle_gamma   116.83210644
_symmetry_Int_Tables_number   1
_chemical_formula_structural   ZnH10C16N2(ClO2)2
_chemical_formula_sum   'Zn4 H40 C64 N8 Cl8 O16'
_cell_volume   2077.47821162
_cell_formula_units_Z   4
loop_
 _symmetry_equiv_pos_site_id
 _symmetry_equiv_pos_as_xyz
  1  'x, y, z'
loop_
 _atom_site_type_symbol
 _atom_site_label
 _atom_site_symmetry_multiplicity
 _atom_site_fract_x
 _atom_site_fract_y
 _atom_site_fract_z
 _atom_site_occupancy
 _atom_site_pbe_bader_charge
 _atom_site_pbe_bader_spin_density
 _atom_site_pbe_cm5_charge
 _atom_site_pbe_ddec_charge
 _atom_site_pbe_ddec_spin_density
 _atom_site_pbe_ddec_sum_bond_order
 _atom_site_pbe_magmom
Zn  Zn0  1  0.15847924  0.31724717  0.38149001  1  1.295321  0  0.670956  0.744128  0  2.373369  0
Zn  Zn1  1  0.34152158  0.68275343  0.88148981  1  1.295305  0  0.670941  0.744108  0  2.373366  0
Zn  Zn2  1  0.84152090  0.68275248  0.61850956  1  1.295356  0  0.67095  0.744109  0  2.373373  0
Zn  Zn3  1  0.65847857  0.31724622  0.11850976  1  1.295301  0  0.670949  0.744116  0  2.373393  0
H  H4  1  0.98189442  0.31581549  0.23364398  1  0.094362  0  0.111859  0.078808  0  1.037249  0
H  H5  1  0.51810547  0.68418410  0.73364444  1  0.09437  0  0.111819  0.078767  0  1.037289  0
H  H6  1  0.01810486  0.68418416  0.76635559  1  0.094353  0  0.111835  0.078796  0  1.037276  0
H  H7  1  0.48189512  0.31581644  0.26635640  1  0.094368  0  0.111821  0.078764  0  1.037297  0
H  H8  1  0.92916504  0.23414777  0.08728463  1  0.139046  0  0.105043  0.119877  0  1.026142  0
H  H9  1  0.57083574  0.76585182  0.58728445  1  0.139011  0  0.105058  0.119889  0  1.026178  0
H  H10  1  0.07083641  0.76585276  0.91271558  1  0.139007  0  0.105045  0.11987  0  1.026128  0
H  H11  1  0.42916441  0.23414783  0.41271576  1  0.139055  0  0.105045  0.119869  0  1.026154  0
H  H12  1  0.06021829  0.14139536  0.02318027  1  0.064658  0  0.103339  0.098586  0  0.994212  0
H  H13  1  0.43978259  0.85860524  0.52318006  1  0.064666  0  0.10334  0.098593  0  0.994212  0
H  H14  1  0.93978230  0.85860517  0.97681930  1  0.064664  0  0.103346  0.098593  0  0.994214  0
H  H15  1  0.56021799  0.14139529  0.47681951  1  0.064691  0  0.10334  0.098599  0  0.99421  0
H  H16  1  0.22938752  0.12389385  0.11314570  1  0.104194  0  0.099858  0.106621  0  1.043417  0
H  H17  1  0.27061291  0.87610587  0.61314551  1  0.104207  0  0.09986  0.106628  0  1.043423  0
H  H18  1  0.77061263  0.87610580  0.88685388  1  0.104197  0  0.099863  0.106648  0  1.043409  0
H  H19  1  0.72938767  0.12389466  0.38685407  1  0.104194  0  0.099856  0.106645  0  1.04341  0
H  H20  1  0.25660359  0.19555150  0.26367119  1  0.107541  0  0.118823  0.092604  0  1.013283  0
H  H21  1  0.24339639  0.80444910  0.76367100  1  0.107548  0  0.118805  0.092595  0  1.013278  0
H  H22  1  0.74339614  0.80444903  0.73632838  1  0.107532  0  0.118828  0.092602  0  1.013281  0
H  H23  1  0.75660333  0.19555144  0.23632857  1  0.107544  0  0.118782  0.092559  0  1.013293  0
H  H24  1  0.28583036  0.58387647  0.38246334  1  0.107368  0  0.116528  0.090713  0  0.991021  0
H  H25  1  0.21416917  0.41612324  0.88246377  1  0.107363  0  0.116536  0.090759  0  0.990982  0
H  H26  1  0.71416893  0.41612318  0.61753687  1  0.107367  0  0.116523  0.090743  0  0.990994  0
H  H27  1  0.78583098  0.58387641  0.11753707  1  0.107364  0  0.116518  0.090727  0  0.991022  0
H  H28  1  0.22053783  0.74598401  0.39791538  1  0.110419  0  0.098056  0.09986  0  1.03489  0
H  H29  1  0.27946212  0.25401482  0.89791517  1  0.11041  0  0.098071  0.099895  0  1.034855  0
H  H30  1  0.77946146  0.25401564  0.60208420  1  0.110412  0  0.09806  0.099909  0  1.034818  0
H  H31  1  0.72053845  0.74598395  0.10208504  1  0.110416  0  0.098055  0.099864  0  1.034887  0
H  H32  1  0.98408999  0.69231490  0.40514486  1  0.108692  0  0.112101  0.116769  0  0.986077  0
H  H33  1  0.51591031  0.30768557  0.90514468  1  0.10866  0  0.11213  0.116811  0  0.986112  0
H  H34  1  0.01590974  0.30768564  0.59485598  1  0.108658  0  0.112119  0.116796  0  0.986125  0
H  H35  1  0.48409027  0.69231497  0.09485553  1  0.108692  0  0.112103  0.11675  0  0.986104  0
H  H36  1  0.82413448  0.47974379  0.39602389  1  0.116433  0  0.104807  0.113214  0  1.011115  0
H  H37  1  0.67586496  0.52025668  0.89602370  1  0.11643  0  0.104805  0.113206  0  1.011133  0
H  H38  1  0.17586525  0.52025675  0.60397631  1  0.116421  0  0.104806  0.113214  0  1.011134  0
H  H39  1  0.32413476  0.47974386  0.10397587  1  0.116431  0  0.104805  0.113195  0  1.011148  0
H  H40  1  0.90606508  0.32806682  0.38817890  1  0.094322  0  0.112028  0.079891  0  1.046684  0
H  H41  1  0.59393522  0.67193364  0.88817936  1  0.09432  0  0.112023  0.0799  0  1.046673  0
H  H42  1  0.09393550  0.67193371  0.61182067  1  0.09432  0  0.112021  0.079899  0  1.046663  0
H  H43  1  0.40606407  0.32806601  0.11182085  1  0.094335  0  0.112025  0.079926  0  1.04664  0
C  C44  1  0.42943617  0.46182690  0.42075744  1  0.794191  0  0.099868  0.227896  0  4.132893  0
C  C45  1  0.07056422  0.53817458  0.92075789  1  0.794227  0  0.09991  0.227987  0  4.132782  0
C  C46  1  0.57056399  0.53817452  0.57924277  1  0.794275  0  0.099881  0.227921  0  4.132846  0
C  C47  1  0.92943594  0.46182684  0.07924295  1  0.794242  0  0.099914  0.227989  0  4.132807  0
C  C48  1  0.56320702  0.53159610  0.41755130  1  0.109283  0  -0.05103  -0.154358  0  4.120027  0
C  C49  1  0.93679242  0.46840437  0.91755172  1  0.109322  0  -0.05097  -0.154256  0  4.119839  0
C  C50  1  0.43679185  0.46840444  0.58244891  1  0.109282  0  -0.050989  -0.154278  0  4.119887  0
C  C51  1  0.06320730  0.53159617  0.08244913  1  0.109285  0  -0.051021  -0.154349  0  4.12002  0
C  C52  1  0.63766712  0.56975287  0.49213957  1  0.751147  0  0.106704  0.244776  0  4.110819  0
C  C53  1  0.86233229  0.43024583  0.99214126  1  0.751135  0  0.106696  0.244724  0  4.110826  0
C  C54  1  0.36233259  0.43024590  0.50785810  1  0.75118  0  0.106721  0.244764  0  4.110757  0
C  C55  1  0.13766786  0.56975382  0.00786022  1  0.75114  0  0.106678  0.244715  0  4.110886  0
C  C56  1  0.98530485  0.10123399  0.46939264  1  0.824214  0  0.107831  0.248016  0  4.107393  0
C  C57  1  0.51469630  0.89876648  0.96939247  1  0.824214  0  0.107825  0.248  0  4.107403  0
C  C58  1  0.01469703  0.89876743  0.53060757  1  0.824171  0  0.107842  0.248032  0  4.107349  0
C  C59  1  0.48530385  0.10123318  0.03060710  1  0.824273  0  0.107831  0.247992  0  4.107425  0
C  C60  1  0.88695279  0.01643376  0.51878230  1  0.04332  0  -0.047473  -0.15179  0  4.093075  0
C  C61  1  0.61304714  0.98356583  0.01878252  1  0.043299  0  -0.047455  -0.151798  0  4.093061  0
C  C62  1  0.11304736  0.98356589  0.48121791  1  0.043283  0  -0.047487  -0.151791  0  4.093057  0
C  C63  1  0.38695258  0.01643470  0.98121769  1  0.043302  0  -0.047437  -0.151725  0  4.093012  0
C  C64  1  0.89342362  0.91493215  0.54883424  1  0.830933  0  0.113346  0.260083  0  4.09327  0
C  C65  1  0.60657717  0.08506744  0.04883444  1  0.830938  0  0.113338  0.260126  0  4.093147  0
C  C66  1  0.10657653  0.08506750  0.45116597  1  0.830929  0  0.113307  0.260026  0  4.093203  0
C  C67  1  0.39342384  0.91493221  0.95116577  1  0.830942  0  0.113329  0.260053  0  4.093171  0
C  C68  1  0.03239207  0.27011691  0.20545563  1  0.447968  0  0.045426  0.090641  0  3.932902  0
C  C69  1  0.46760706  0.72988369  0.70545542  1  0.448058  0  0.045462  0.090626  0  3.932883  0
C  C70  1  0.96760765  0.72988363  0.79454458  1  0.448018  0  0.045452  0.090596  0  3.932929  0
C  C71  1  0.53239267  0.27011684  0.29454479  1  0.447978  0  0.045455  0.09063  0  3.93289  0
C  C72  1  0.00623579  0.22778041  0.12260360  1  0.002858  0  -0.086191  -0.129845  0  3.974002  0
C  C73  1  0.49376508  0.77222019  0.62260338  1  0.002779  0  -0.086175  -0.129778  0  3.973943  0
C  C74  1  0.99376394  0.77222012  0.87739598  1  0.002592  0  -0.086171  -0.129757  0  3.973931  0
C  C75  1  0.50623551  0.22778035  0.37739682  1  0.002832  0  -0.08617  -0.129769  0  3.973935  0
C  C76  1  0.07763256  0.17468203  0.08811903  1  -0.081742  0  -0.069758  -0.031585  0  3.975627  0
C  C77  1  0.42236788  0.82531769  0.58811946  1  -0.081753  0  -0.069751  -0.031604  0  3.975621  0
C  C78  1  0.92236803  0.82531850  0.91188054  1  -0.081494  0  -0.069765  -0.03161  0  3.975582  0
C  C79  1  0.57763227  0.17468196  0.41188075  1  -0.081771  0  -0.069757  -0.031626  0  3.975628  0
C  C80  1  0.17068403  0.16365880  0.13813493  1  -0.01372  0  -0.087431  -0.132568  0  3.984072  0
C  C81  1  0.32931683  0.83634180  0.63813474  1  -0.013739  0  -0.087451  -0.132593  0  3.984116  0
C  C82  1  0.82931569  0.83634174  0.86186527  1  -0.013737  0  -0.087452  -0.132619  0  3.984055  0
C  C83  1  0.67068462  0.16365873  0.36186547  1  -0.013735  0  -0.087434  -0.1326  0  3.984076  0
C  C84  1  0.18813263  0.20523626  0.22116589  1  0.487483  0  0.048275  0.098352  0  3.910137  0
C  C85  1  0.31186822  0.79476434  0.72116506  1  0.487483  0  0.048297  0.098364  0  3.910135  0
C  C86  1  0.81186710  0.79476428  0.77883431  1  0.487487  0  0.04827  0.09836  0  3.910104  0
C  C87  1  0.68813236  0.20523619  0.27883451  1  0.487488  0  0.048319  0.098425  0  3.910096  0
C  C88  1  0.18471036  0.56491862  0.38677732  1  0.437885  0  0.04157  0.087602  0  3.947627  0
C  C89  1  0.31528917  0.43508109  0.88677712  1  0.43788  0  0.041606  0.087645  0  3.947581  0
C  C90  1  0.81529023  0.43508191  0.61322289  1  0.43789  0  0.041626  0.087634  0  3.947604  0
C  C91  1  0.68471012  0.56491856  0.11322246  1  0.437888  0  0.041591  0.087592  0  3.94759  0
C  C92  1  0.14783683  0.65437509  0.39451127  1  -0.05976  0  -0.086733  -0.13311  0  3.994128  0
C  C93  1  0.35216269  0.34562463  0.89451169  1  -0.059739  0  -0.086802  -0.133282  0  3.99417  0
C  C94  1  0.85216246  0.34562457  0.60548830  1  -0.05973  0  -0.086775  -0.133222  0  3.994037  0
C  C95  1  0.64783746  0.65437503  0.10548851  1  -0.059759  0  -0.086749  -0.133144  0  3.994158  0
C  C96  1  0.01668811  0.62485316  0.39797820  1  -0.015768  0  -0.057691  -0.009465  0  3.923067  0
C  C97  1  0.48331357  0.37514744  0.89797861  1  -0.015738  0  -0.05768  -0.009424  0  3.923083  0
C  C98  1  0.98331419  0.37514738  0.60202201  1  -0.015753  0  -0.05771  -0.009489  0  3.923109  0
C  C99  1  0.51668788  0.62485310  0.10202160  1  -0.015761  0  -0.057683  -0.009423  0  3.923043  0
C  C100  1  0.92724532  0.50635009  0.39380504  1  0.001794  0  -0.078414  -0.109251  0  3.94613  0
C  C101  1  0.57275541  0.49364950  0.89380485  1  0.002217  0  -0.078415  -0.109243  0  3.946089  0
C  C102  1  0.07275440  0.49364868  0.60619517  1  0.002275  0  -0.078448  -0.109303  0  3.946244  0
C  C103  1  0.42724474  0.50635016  0.10619536  1  0.002273  0  -0.07841  -0.109228  0  3.946214  0
C  C104  1  0.97192569  0.42187281  0.38804312  1  0.453825  0  0.044706  0.084394  0  3.94076  0
C  C105  1  0.52807418  0.57812677  0.88804294  1  0.453396  0  0.044679  0.084328  0  3.940736  0
C  C106  1  0.02807446  0.57812684  0.61195709  1  0.453361  0  0.044723  0.084412  0  3.940729  0
C  C107  1  0.47192641  0.42187376  0.11195727  1  0.453346  0  0.04469  0.084328  0  3.940815  0
N  N108  1  0.12106054  0.25851670  0.25430151  1  -1.237288  0  -0.322376  -0.22332  0  3.531294  0
N  N109  1  0.37893988  0.74148478  0.75430130  1  -1.237298  0  -0.322393  -0.223309  0  3.531327  0
N  N110  1  0.87894005  0.74148384  0.74569807  1  -1.237312  0  -0.322377  -0.223295  0  3.531268  0
N  N111  1  0.62105984  0.25851575  0.24569890  1  -1.237286  0  -0.322383  -0.223317  0  3.531303  0
N  N112  1  0.09830517  0.45019389  0.38399694  1  -1.223033  0  -0.328455  -0.236106  0  3.567145  0
N  N113  1  0.40169521  0.54980582  0.88399672  1  -1.223024  0  -0.328452  -0.236087  0  3.567144  0
N  N114  1  0.90169498  0.54980576  0.61600327  1  -1.22304  0  -0.328449  -0.236093  0  3.567169  0
N  N115  1  0.59830450  0.45019295  0.11600348  1  -1.223044  0  -0.328452  -0.236086  0  3.567092  0
Cl  Cl116  1  0.64036158  0.57095183  0.32059618  1  -0.221769  0  -0.015766  -0.052236  0  1.654154  0
Cl  Cl117  1  0.85963830  0.42904776  0.82059597  1  -0.221769  0  -0.015782  -0.05227  0  1.654086  0
Cl  Cl118  1  0.35963857  0.42904782  0.67940402  1  -0.221772  0  -0.015773  -0.052251  0  1.65415  0
Cl  Cl119  1  0.14036185  0.57095190  0.17940360  1  -0.221775  0  -0.015772  -0.052248  0  1.654168  0
Cl  Cl120  1  0.75062033  0.03348907  0.54253934  1  -0.235404  0  -0.002265  -0.049679  0  1.635908  0
Cl  Cl121  1  0.74938003  0.96651141  0.04253955  1  -0.235399  0  -0.002276  -0.049684  0  1.635908  0
Cl  Cl122  1  0.24937939  0.96651147  0.45746024  1  -0.23539  0  -0.002275  -0.049693  0  1.635911  0
Cl  Cl123  1  0.25062141  0.03348913  0.95746066  1  -0.235397  0  -0.002288  -0.049708  0  1.635914  0
O  O124  1  0.35730723  0.42179882  0.35601728  1  -1.121366  0  -0.291401  -0.425258  0  2.327655  0
O  O125  1  0.14269230  0.57820090  0.85601709  1  -1.121346  0  -0.291449  -0.425332  0  2.327634  0
O  O126  1  0.64269292  0.57820084  0.64398293  1  -1.121381  0  -0.291404  -0.425272  0  2.327667  0
O  O127  1  0.85730699  0.42179875  0.14398248  1  -1.121353  0  -0.291442  -0.425314  0  2.327584  0
O  O128  1  0.98231009  0.19170463  0.43773289  1  -1.119584  0  -0.284952  -0.423805  0  2.3384  0
O  O129  1  0.51769020  0.80829583  0.93773272  1  -1.119594  0  -0.284936  -0.423779  0  2.338423  0
O  O130  1  0.01769049  0.80829590  0.56226732  1  -1.119584  0  -0.284951  -0.423812  0  2.338392  0
O  O131  1  0.48231038  0.19170470  0.06226749  1  -1.119676  0  -0.284947  -0.423802  0  2.338412  0
O  O132  1  0.75883622  0.62905062  0.49267699  1  -1.087815  0  -0.276402  -0.405665  0  2.332572  0
O  O133  1  0.74116320  0.37094985  0.99267742  1  -1.087816  0  -0.276399  -0.40565  0  2.332594  0
O  O134  1  0.24116350  0.37094992  0.50732322  1  -1.087821  0  -0.276431  -0.405681  0  2.332551  0
O  O135  1  0.25883652  0.62905069  0.00732279  1  -1.087817  0  -0.27638  -0.405634  0  2.332626  0
O  O136  1  0.80512702  0.83438582  0.59086938  1  -1.109998  0  -0.274799  -0.414809  0  2.345232  0
O  O137  1  0.69487333  0.16561465  0.09087021  1  -1.110034  0  -0.274802  -0.414827  0  2.345129  0
O  O138  1  0.19487356  0.16561471  0.40913019  1  -1.110021  0  -0.274747  -0.414736  0  2.345098  0
O  O139  1  0.30512682  0.83438500  0.90913000  1  -1.109999  0  -0.274794  -0.414798  0  2.345155  0
