# generated using pymatgen
data_Zn2H17C38I4N2O8F
_symmetry_space_group_name_H-M   'P 1'
_cell_length_a   10.79222791
_cell_length_b   13.49735562
_cell_length_c   13.54102794
_cell_angle_alpha   69.51943449
_cell_angle_beta   71.34865995
_cell_angle_gamma   55.96882583
_symmetry_Int_Tables_number   1
_chemical_formula_structural   Zn2H17C38I4N2O8F
_chemical_formula_sum   'Zn2 H17 C38 I4 N2 O8 F1'
_cell_volume   1511.67271573
_cell_formula_units_Z   1
loop_
 _symmetry_equiv_pos_site_id
 _symmetry_equiv_pos_as_xyz
  1  'x, y, z'
loop_
 _atom_site_type_symbol
 _atom_site_label
 _atom_site_symmetry_multiplicity
 _atom_site_fract_x
 _atom_site_fract_y
 _atom_site_fract_z
 _atom_site_occupancy
 _atom_site_pbe_bader_charge
 _atom_site_pbe_bader_spin_density
 _atom_site_pbe_cm5_charge
 _atom_site_pbe_ddec_charge
 _atom_site_pbe_ddec_spin_density
 _atom_site_pbe_ddec_sum_bond_order
 _atom_site_pbe_magmom
Zn  Zn0  1  0.41947649  0.64156997  0.48016566  1  1.284175  0  0.672755  0.840103  0  2.388806  0
Zn  Zn1  1  0.60225506  0.39586345  0.46947776  1  1.230857  0  0.605621  0.805264  0  2.389005  0
H  H2  1  0.04447792  0.68139147  0.34547508  1  0.074993  0  0.095583  0.084878  0  0.991666  0
H  H3  1  0.48942293  0.58495227  0.78882025  1  0.106625  0  0.106029  0.113195  0  1.022626  0
H  H4  1  0.48122657  0.70264356  0.84931775  1  0.040775  0  0.104245  0.106731  0  1.005096  0
H  H5  1  0.49057683  0.83678335  0.92683893  1  0.080852  0  0.099886  0.10923  0  1.003243  0
H  H6  1  0.45705135  0.42516296  0.26412683  1  0.110609  0  0.105118  0.132238  0  1.023679  0
H  H7  1  0.12340623  0.81728908  0.59559101  1  0.111644  0  0.127296  0.105345  0  0.968766  0
H  H8  1  0.12035287  0.11518578  0.71518292  1  0.095629  0  0.113164  0.126424  0  0.984518  0
H  H9  1  0.04742249  0.98591076  0.68006430  1  0.10493  0  0.116676  0.129213  0  0.9784  0
H  H10  1  0.52034167  0.81149569  0.42925154  1  0.136166  0  0.118919  0.095174  0  1.047833  0
H  H11  1  0.78812611  0.70974740  0.50886050  1  0.033176  0  0.085344  0.071104  0  1.04066  0
H  H12  1  0.66062160  0.88152467  0.38850718  1  0.086143  0  0.118134  0.120405  0  0.987568  0
H  H13  1  0.83219445  0.96002016  0.36044954  1  0.111948  0  0.116911  0.135793  0  0.977566  0
H  H14  1  0.98828957  0.53524475  0.65683720  1  0.045861  0  0.090563  0.080518  0  1.004198  0
H  H15  1  0.98562710  0.34660318  0.60896028  1  0.08161  0  0.086712  0.077795  0  1.020154  0
H  H16  1  0.24169168  0.31876025  0.44615798  1  0.073434  0  0.075605  0.066116  0  1.068222  0
H  H17  1  0.04016979  0.49367459  0.29786691  1  0.062458  0  0.095342  0.084381  0  0.995766  0
H  H18  1  0.50149593  0.20714912  0.02802436  1  0.102493  0  0.093298  0.118281  0  1.050752  0
C  C19  1  0.50581162  0.58438894  0.27067710  1  1.597539  0  0.208863  0.602745  0  4.173448  0
C  C20  1  0.13979247  0.40508290  0.46050133  1  -0.04871  0  -0.092647  -0.079818  0  3.668501  0
C  C21  1  0.03077297  0.50250349  0.37767196  1  -0.02405  0  -0.073981  -0.058311  0  3.613656  0
C  C22  1  0.88970828  0.51837669  0.46883560  1  0.010915  0  -0.00985  -0.025671  0  3.638513  0
C  C23  1  0.50066957  0.29048935  0.97749963  1  0.039748  0  -0.114636  -0.2722  0  4.008061  0
C  C24  1  0.50990254  0.41738969  0.79833714  1  0.030531  0  -0.025935  -0.13824  0  3.961383  0
C  C25  1  0.49580709  0.72473500  0.08708903  1  -0.235409  0  -0.044094  0.045222  0  3.896483  0
C  C26  1  0.48957244  0.75423458  0.97757640  1  -0.009642  0  -0.101451  -0.123636  0  4.045497  0
C  C27  1  0.48414792  0.67795210  0.93457143  1  -0.002161  0  -0.088411  -0.115346  0  3.997475  0
C  C28  1  0.48326667  0.57018457  0.99845581  1  0.010796  0  -0.002141  0.032313  0  3.963759  0
C  C29  1  0.48341609  0.54332922  0.11012834  1  -0.017553  0  0.002879  0.077805  0  3.936752  0
C  C30  1  0.75905951  0.51609898  0.45738514  1  1.544372  0  0.214767  0.606736  0  4.152652  0
C  C31  1  0.48613129  0.48497202  0.95421742  1  -0.000982  0  -0.006477  0.02563  0  3.956925  0
C  C32  1  0.48410499  0.37731883  0.02290787  1  0.032635  0  -0.008776  0.072274  0  4.024231  0
C  C33  1  0.46614898  0.36321337  0.13580553  1  -0.326231  0  -0.046547  0.013638  0  3.904251  0
C  C34  1  0.46799937  0.44053524  0.17803950  1  0.109151  0  -0.092561  -0.155899  0  3.952381  0
C  C35  1  0.49412520  0.50237363  0.84414580  1  -0.037483  0  -0.075993  -0.108548  0  3.94282  0
C  C36  1  0.51753718  0.30905571  0.86843932  1  0.41154  0  0.102596  0.291902  0  4.04137  0
C  C37  1  0.49384640  0.62030743  0.15392570  1  0.032939  0  -0.01222  -0.087484  0  3.880491  0
C  C38  1  0.15318790  0.95009556  0.62469445  1  -0.022317  0  -0.08037  -0.180474  0  3.969069  0
C  C39  1  0.68015768  0.07780814  0.47426124  1  0.45299  0  0.101244  0.19356  0  3.983199  0
C  C40  1  0.72696083  0.99015297  0.41688955  1  0.033714  0  -0.086383  -0.164072  0  4.006119  0
C  C41  1  0.51577031  0.44710594  0.67957964  1  1.610358  0  0.210782  0.60844  0  4.165493  0
C  C42  1  0.63057597  0.94694069  0.43351715  1  -0.041611  0  -0.065627  -0.071256  0  3.964829  0
C  C43  1  0.49352441  0.98890421  0.50630684  1  0.019438  0  0.002403  0.007712  0  3.956159  0
C  C44  1  0.46181257  0.07522232  0.56166546  1  0.540937  0  0.116775  0.174678  0  3.993649  0
C  C45  1  0.38761379  0.94744106  0.52841678  1  0.001402  0  -0.003287  -0.014626  0  3.968495  0
C  C46  1  0.25230627  0.99507231  0.60315876  1  -0.033803  0  0.009961  0.121484  0  4.003543  0
C  C47  1  0.22344311  0.08151909  0.65712462  1  0.079656  0  -0.084438  -0.162162  0  3.96558  0
C  C48  1  0.32533254  0.11860524  0.63909658  1  -0.276216  0  -0.033558  -0.002656  0  3.892642  0
C  C49  1  0.41623281  0.85604070  0.48333799  1  0.537579  0  0.060302  0.062792  0  3.88694  0
C  C50  1  0.19308987  0.85834114  0.57786134  1  0.429646  0  0.045063  0.079584  0  3.965493  0
C  C51  1  0.27531542  0.50812525  0.49265242  1  1.544189  0  0.210275  0.589405  0  4.174226  0
C  C52  1  0.88939561  0.62304977  0.49427555  1  -0.027339  0  -0.084908  -0.066261  0  3.646701  0
C  C53  1  0.02869792  0.60759532  0.40391180  1  -0.037871  0  -0.075323  -0.059865  0  3.616616  0
C  C54  1  0.13990155  0.50857403  0.48705509  1  0.009078  0  -0.012468  -0.032565  0  3.663464  0
C  C55  1  0.99876837  0.52582723  0.57707833  1  -0.017625  0  -0.083229  -0.076308  0  3.659384  0
C  C56  1  0.00048869  0.42076835  0.55077020  1  -0.054783  0  -0.088134  -0.079233  0  3.666048  0
I  I57  1  0.51633248  0.84406254  0.14020909  1  0.090962  0  0.040109  -0.057265  0  1.3754  0
I  I58  1  0.81963607  0.15508354  0.44376640  1  0.158213  0  0.191083  0.085869  0  1.619547  0
I  I59  1  0.28954138  0.23513972  0.72615909  1  0.226694  0  0.152831  0.071359  0  1.583691  0
I  I60  1  0.43405297  0.21874131  0.24193785  1  0.084005  0  0.092804  -0.023298  0  1.562365  0
N  N61  1  0.32421494  0.81110911  0.50870922  1  -1.249503  0  -0.327938  -0.208019  0  3.542829  0
N  N62  1  0.55679204  0.11759819  0.54352277  1  -1.212679  0  -0.302985  -0.274004  0  3.393354  0
O  O63  1  0.40675742  0.66390727  0.32595367  1  -1.155726  0  -0.319262  -0.545438  0  2.34774  0
O  O64  1  0.61172529  0.47810023  0.30395062  1  -1.161915  0  -0.315241  -0.544386  0  2.300197  0
O  O65  1  0.63915226  0.61715723  0.43415949  1  -1.175645  0  -0.317885  -0.564062  0  2.347819  0
O  O66  1  0.77831101  0.40955048  0.47242190  1  -1.154662  0  -0.327674  -0.542142  0  2.310545  0
O  O67  1  0.47694417  0.55811611  0.63264876  1  -1.177413  0  -0.321762  -0.556886  0  2.321999  0
O  O68  1  0.55825514  0.36212748  0.63472371  1  -1.15322  0  -0.317816  -0.545931  0  2.346197  0
O  O69  1  0.25411272  0.59461934  0.52620793  1  -1.164086  0  -0.326314  -0.549423  0  2.273761  0
O  O70  1  0.40384689  0.42186693  0.45950262  1  -1.157897  0  -0.315043  -0.537964  0  2.375712  0
F  F71  1  0.53935183  0.21882950  0.83052027  1  -0.636871  0  -0.104573  -0.141887  0  1.407328  0
