# generated using pymatgen
data_Zn3H38C50(N2O9)2
_symmetry_space_group_name_H-M   'P 1'
_cell_length_a   8.24785868
_cell_length_b   18.43387437
_cell_length_c   18.50561716
_cell_angle_alpha   109.32507881
_cell_angle_beta   89.98941069
_cell_angle_gamma   102.93366222
_symmetry_Int_Tables_number   1
_chemical_formula_structural   Zn3H38C50(N2O9)2
_chemical_formula_sum   'Zn6 H76 C100 N8 O36'
_cell_volume   2579.34247143
_cell_formula_units_Z   2
loop_
 _symmetry_equiv_pos_site_id
 _symmetry_equiv_pos_as_xyz
  1  'x, y, z'
loop_
 _atom_site_type_symbol
 _atom_site_label
 _atom_site_symmetry_multiplicity
 _atom_site_fract_x
 _atom_site_fract_y
 _atom_site_fract_z
 _atom_site_occupancy
 _atom_site_pbe_bader_charge
 _atom_site_pbe_bader_spin_density
 _atom_site_pbe_cm5_charge
 _atom_site_pbe_ddec_charge
 _atom_site_pbe_ddec_spin_density
 _atom_site_pbe_ddec_sum_bond_order
 _atom_site_pbe_magmom
Zn  Zn0  1  0.06214906  0.58045049  0.23827611  1  1.287543  0  0.684177  0.845861  0  2.240987  0
Zn  Zn1  1  0.48202032  0.41925973  0.26174078  1  1.286575  0  0.683105  0.845089  0  2.240656  0
Zn  Zn2  1  0.93785052  0.41955338  0.76172453  1  1.287401  0  0.68413  0.845787  0  2.241078  0
Zn  Zn3  1  0.51797903  0.58073881  0.73826134  1  1.28663  0  0.683105  0.845112  0  2.240616  0
Zn  Zn4  1  0.27760360  0.00000001  0.25037353  1  1.26294  0  0.671523  0.735468  0  2.348128  0
Zn  Zn5  1  0.72238998  0.99999912  0.74962500  1  1.26283  0  0.671492  0.735395  0  2.348109  0
H  H6  1  0.67607824  0.87782157  0.49747192  1  0.090684  0  0.111697  0.132033  0  0.991781  0
H  H7  1  0.79914770  0.12191107  0.00233016  1  0.090441  0  0.111736  0.132027  0  0.992024  0
H  H8  1  0.32391688  0.12217579  0.50253359  1  0.09064  0  0.111708  0.132071  0  0.991737  0
H  H9  1  0.20084825  0.87809280  0.99766885  1  0.090351  0  0.111718  0.131995  0  0.991958  0
H  H10  1  0.39619238  0.78986247  0.49688353  1  0.102924  0  0.100788  0.106015  0  1.040072  0
H  H11  1  0.60683443  0.20965888  0.00295674  1  0.096203  0  0.101117  0.105281  0  1.040433  0
H  H12  1  0.60379756  0.21013666  0.50311771  1  0.102911  0  0.100778  0.106  0  1.040053  0
H  H13  1  0.39316844  0.79034914  0.99704147  1  0.096193  0  0.10113  0.105259  0  1.04046  0
H  H14  1  0.34850190  0.64509906  0.43346144  1  0.081637  0  0.105635  0.108941  0  1.018483  0
H  H15  1  0.70331992  0.35442579  0.06645750  1  0.071825  0  0.105296  0.108669  0  1.017176  0
H  H16  1  0.65148680  0.35490244  0.56653734  1  0.08162  0  0.105602  0.108864  0  1.018506  0
H  H17  1  0.29668993  0.64558163  0.93354215  1  0.071868  0  0.105275  0.108583  0  1.01729  0
H  H18  1  0.95288339  0.77534932  0.54455806  1  0.097157  0  0.104451  0.120562  0  1.020793  0
H  H19  1  0.17896035  0.22470308  0.95542750  1  0.091663  0  0.104942  0.122074  0  1.019323  0
H  H20  1  0.04711471  0.22465159  0.45544754  1  0.097183  0  0.104431  0.120528  0  1.020856  0
H  H21  1  0.82104166  0.77530079  0.04457206  1  0.091752  0  0.104941  0.122046  0  1.019392  0
H  H22  1  0.19921878  0.82309540  0.64085227  1  0.105739  0  0.098222  0.098244  0  1.045783  0
H  H23  1  0.37717249  0.17675247  0.85900031  1  0.062821  0  0.097981  0.098173  0  1.046055  0
H  H24  1  0.80078811  0.17690611  0.35914867  1  0.105792  0  0.098224  0.098241  0  1.045825  0
H  H25  1  0.62282892  0.82325022  0.14099940  1  0.062775  0  0.097988  0.098194  0  1.046045  0
H  H26  1  0.42826987  0.99210374  0.53726652  1  0.055048  0  0.101442  0.099816  0  1.043411  0
H  H27  1  0.43613839  0.00742727  0.96234860  1  0.083847  0  0.101559  0.100197  0  1.043678  0
H  H28  1  0.57172832  0.00789007  0.46272539  1  0.054864  0  0.101447  0.099765  0  1.043418  0
H  H29  1  0.56386421  0.99257778  0.03765350  1  0.083523  0  0.101613  0.100291  0  1.043582  0
H  H30  1  0.18748045  0.94371465  0.43750934  1  0.090164  0  0.106476  0.134222  0  1.006775  0
H  H31  1  0.24416424  0.05604935  0.06225793  1  0.099752  0  0.106337  0.13423  0  1.006696  0
H  H32  1  0.81251260  0.05627857  0.56248617  1  0.090023  0  0.106474  0.134206  0  1.006783  0
H  H33  1  0.75583623  0.94395630  0.93774221  1  0.0995  0  0.10634  0.13419  0  1.006651  0
H  H34  1  0.40155033  0.56284697  0.19440734  1  0.15703  0  0.119823  0.109725  0  1.030243  0
H  H35  1  0.83934998  0.43718774  0.30578622  1  0.156368  0  0.119801  0.109233  0  1.031036  0
H  H36  1  0.59845052  0.43715217  0.80559660  1  0.157079  0  0.119772  0.109741  0  1.030192  0
H  H37  1  0.16064724  0.56281140  0.69421663  1  0.156333  0  0.119808  0.109249  0  1.031074  0
H  H38  1  0.68356352  0.65020024  0.20910129  1  0.126829  0  0.114361  0.134519  0  1.01027  0
H  H39  1  0.03436037  0.34999067  0.29105963  1  0.127264  0  0.114059  0.13409  0  1.009294  0
H  H40  1  0.31643979  0.34979653  0.79090024  1  0.126711  0  0.114327  0.134497  0  1.010169  0
H  H41  1  0.96563806  0.65000846  0.70894430  1  0.127303  0  0.114074  0.134107  0  1.009257  0
H  H42  1  0.46001438  0.85028178  0.30208078  1  0.09629  0  0.117512  0.13845  0  0.999097  0
H  H43  1  0.61118164  0.14971965  0.19793290  1  0.15453  0  0.117297  0.137548  0  1.001056  0
H  H44  1  0.53999467  0.14971676  0.69791594  1  0.096405  0  0.117543  0.138447  0  0.999094  0
H  H45  1  0.38882164  0.85027948  0.80206563  1  0.158183  0  0.117302  0.137573  0  1.000998  0
H  H46  1  0.18966235  0.75384135  0.29075662  1  0.100566  0  0.119582  0.09214  0  0.999555  0
H  H47  1  0.43691176  0.24595679  0.20932436  1  0.123544  0  0.120614  0.093302  0  0.998964  0
H  H48  1  0.81034453  0.24616016  0.70924486  1  0.100469  0  0.119594  0.092169  0  0.999531  0
H  H49  1  0.56309001  0.75404175  0.79067397  1  0.123541  0  0.120615  0.093349  0  0.998915  0
H  H50  1  0.13599321  0.82364232  0.18018311  1  0.143821  0  0.120011  0.094937  0  0.994945  0
H  H51  1  0.31288943  0.17637805  0.32038561  1  0.114191  0  0.120334  0.094963  0  0.995554  0
H  H52  1  0.86401188  0.17635800  0.81981851  1  0.143865  0  0.120015  0.094961  0  0.994896  0
H  H53  1  0.68711566  0.82362227  0.67961439  1  0.114156  0  0.120279  0.094936  0  0.995677  0
H  H54  1  0.87303716  0.72567110  0.17781313  1  0.119824  0  0.111475  0.133188  0  1.022738  0
H  H55  1  0.14823405  0.27442915  0.32248152  1  0.119297  0  0.111502  0.132574  0  1.024112  0
H  H56  1  0.12696795  0.27432685  0.82218447  1  0.119885  0  0.111509  0.13325  0  1.022724  0
H  H57  1  0.85176560  0.72556998  0.67751755  1  0.119282  0  0.111497  0.132588  0  1.024097  0
H  H58  1  0.70365968  0.91730630  0.34325757  1  0.091689  0  0.112463  0.119146  0  1.015656  0
H  H59  1  0.78754898  0.08282002  0.15690764  1  0.102698  0  0.112621  0.119054  0  1.016258  0
H  H60  1  0.29634575  0.08268988  0.65674161  1  0.091971  0  0.112431  0.119099  0  1.015615  0
H  H61  1  0.21244824  0.91717912  0.84309035  1  0.102717  0  0.112631  0.119064  0  1.016296  0
H  H62  1  0.97262832  0.00598093  0.33795563  1  0.136001  0  0.118255  0.086478  0  1.003683  0
H  H63  1  0.96735799  0.99408359  0.16251351  1  0.108961  0  0.117649  0.08561  0  1.003455  0
H  H64  1  0.02737254  0.99401820  0.66204344  1  0.13596  0  0.118245  0.086453  0  1.003661  0
H  H65  1  0.03263772  0.00591496  0.83748916  1  0.10896  0  0.117665  0.08564  0  1.003357  0
H  H66  1  0.22213611  0.53382596  0.33056938  1  0.649292  0  0.290118  0.386723  0  0.951411  0
H  H67  1  0.68841050  0.46613340  0.16951299  1  0.666606  0  0.29  0.387501  0  0.950677  0
H  H68  1  0.77786078  0.46617495  0.66943082  1  0.64923  0  0.290102  0.386725  0  0.95141  0
H  H69  1  0.31159151  0.53387047  0.83049035  1  0.666659  0  0.290004  0.387532  0  0.950638  0
H  H70  1  0.08058276  0.58103435  0.36770701  1  0.646886  0  0.286978  0.375901  0  0.970241  0
H  H71  1  0.49962304  0.41913489  0.13242791  1  0.64975  0  0.287273  0.376573  0  0.969212  0
H  H72  1  0.91941777  0.41896656  0.63229265  1  0.646871  0  0.286962  0.375912  0  0.970219  0
H  H73  1  0.50037930  0.58086721  0.86757376  1  0.64971  0  0.28728  0.376591  0  0.96921  0
H  H74  1  0.92087444  0.55900603  0.10677966  1  0.624522  0  0.294249  0.374678  0  0.95173  0
H  H75  1  0.36218164  0.44072915  0.39318974  1  0.626706  0  0.294369  0.374856  0  0.951679  0
H  H76  1  0.07913304  0.44099666  0.89322275  1  0.624442  0  0.294285  0.374792  0  0.951604  0
H  H77  1  0.63782134  0.55926939  0.60681022  1  0.626562  0  0.294418  0.374902  0  0.95158  0
H  H78  1  0.05767401  0.61370766  0.07781711  1  0.604501  0  0.314423  0.390962  0  0.894966  0
H  H79  1  0.44475820  0.38613287  0.42207796  1  0.589941  0  0.314112  0.39144  0  0.896417  0
H  H80  1  0.94233225  0.38629502  0.92218476  1  0.604509  0  0.31445  0.391045  0  0.894838  0
H  H81  1  0.55524416  0.61386685  0.57792455  1  0.590177  0  0.314098  0.391372  0  0.896498  0
C  C82  1  0.57134242  0.56207758  0.36053698  1  1.529674  0  0.201899  0.555649  0  4.189132  0
C  C83  1  0.00913672  0.43767330  0.13946324  1  1.537068  0  0.202993  0.557953  0  4.192762  0
C  C84  1  0.42864844  0.43792097  0.63946460  1  1.529435  0  0.20201  0.555873  0  4.18897  0
C  C85  1  0.99087014  0.56233057  0.86053685  1  1.537351  0  0.202955  0.55805  0  4.192439  0
C  C86  1  0.90489635  0.66523088  0.36628225  1  1.628994  0  0.214244  0.610637  0  4.201388  0
C  C87  1  0.23995660  0.33471281  0.13367327  1  1.608494  0  0.215403  0.610417  0  4.202391  0
C  C88  1  0.09509454  0.33476530  0.63371801  1  1.628862  0  0.214201  0.610592  0  4.201329  0
C  C89  1  0.76004757  0.66528810  0.86632368  1  1.608588  0  0.215601  0.610717  0  4.202389  0
C  C90  1  0.60048914  0.64920476  0.40013720  1  -0.009981  0  -0.017007  -0.055671  0  3.986534  0
C  C91  1  0.95134840  0.35054531  0.09980917  1  -0.019741  0  -0.017256  -0.056146  0  3.98624  0
C  C92  1  0.39949867  0.35079497  0.59986531  1  -0.009901  0  -0.016972  -0.055692  0  3.986409  0
C  C93  1  0.04865938  0.64945797  0.90018911  1  -0.019433  0  -0.017304  -0.056333  0  3.986525  0
C  C94  1  0.75915420  0.69834138  0.40063971  1  0.063887  0  -0.003302  -0.116406  0  3.891418  0
C  C95  1  0.06114876  0.30152169  0.09929236  1  0.044621  0  -0.004457  -0.117493  0  3.889933  0
C  C96  1  0.24083335  0.30165538  0.59936129  1  0.063781  0  -0.003372  -0.11655  0  3.891401  0
C  C97  1  0.93885810  0.69848218  0.90070665  1  0.044895  0  -0.004382  -0.11744  0  3.889935  0
C  C98  1  0.78097774  0.78014248  0.43490915  1  0.368416  0  0.081488  0.211714  0  4.033288  0
C  C99  1  0.00147936  0.21970183  0.06494852  1  0.414958  0  0.08248  0.213335  0  4.032307  0
C  C100  1  0.21901466  0.21985429  0.56509401  1  0.368203  0  0.081557  0.211758  0  4.033396  0
C  C101  1  0.99851842  0.78030085  0.93505064  1  0.415012  0  0.082499  0.213351  0  4.032343  0
C  C102  1  0.65332511  0.81371407  0.47050082  1  -0.0256  0  -0.08735  -0.170848  0  3.957876  0
C  C103  1  0.84030813  0.18601878  0.02932708  1  -0.023282  0  -0.088434  -0.172524  0  3.96022  0
C  C104  1  0.34666909  0.18628388  0.52950381  1  -0.025782  0  -0.087365  -0.170885  0  3.958137  0
C  C105  1  0.15969145  0.81398509  0.97067247  1  -0.023476  0  -0.088362  -0.172383  0  3.960154  0
C  C106  1  0.49775742  0.76450408  0.47037442  1  -0.037118  0  -0.091209  -0.062958  0  4.005084  0
C  C107  1  0.73370507  0.23512519  0.02949779  1  -0.044496  0  -0.089826  -0.060814  0  4.006289  0
C  C108  1  0.50223619  0.23549269  0.52962766  1  -0.037074  0  -0.091157  -0.062894  0  4.004964  0
C  C109  1  0.26629845  0.76487927  0.97050033  1  -0.044315  0  -0.089895  -0.060877  0  4.006458  0
C  C110  1  0.47132162  0.68291785  0.43474562  1  -0.036967  0  -0.089992  -0.112044  0  3.990737  0
C  C111  1  0.78850291  0.31671293  0.06516974  1  -0.023582  0  -0.090506  -0.111976  0  3.990849  0
C  C112  1  0.52866924  0.31708070  0.56525488  1  -0.036705  0  -0.090029  -0.11201  0  3.990543  0
C  C113  1  0.21150425  0.68329153  0.93482893  1  -0.02362  0  -0.090464  -0.11181  0  3.991029  0
C  C114  1  0.05595434  0.85695003  0.48589088  1  0.384209  0  0.089641  0.274021  0  4.036502  0
C  C115  1  0.19986045  0.14295458  0.01398644  1  0.383662  0  0.089438  0.274841  0  4.036964  0
C  C116  1  0.94404229  0.14304793  0.51410996  1  0.384504  0  0.089531  0.273825  0  4.03667  0
C  C117  1  0.80013884  0.85704870  0.98601130  1  0.384121  0  0.089471  0.274893  0  4.036699  0
C  C118  1  0.05576259  0.82370418  0.54380116  1  0.014928  0  -0.10955  -0.21613  0  4.012114  0
C  C119  1  0.23321187  0.17626173  0.95613035  1  0.025466  0  -0.110747  -0.220132  0  4.014895  0
C  C120  1  0.94423735  0.17629555  0.45620082  1  0.014905  0  -0.109499  -0.215996  0  4.012067  0
C  C121  1  0.76678742  0.82374155  0.04386955  1  0.025327  0  -0.110822  -0.22024  0  4.014796  0
C  C122  1  0.19307790  0.85007810  0.59715675  1  -0.077622  0  -0.086195  -0.070263  0  3.994628  0
C  C123  1  0.34393326  0.14976695  0.90268943  1  -0.024493  0  -0.084335  -0.067555  0  3.996131  0
C  C124  1  0.80692384  0.14992281  0.40284399  1  -0.077668  0  -0.086235  -0.07036  0  3.994716  0
C  C125  1  0.65606816  0.85023573  0.09730973  1  -0.045064  0  -0.084353  -0.067518  0  3.99593  0
C  C126  1  0.32920555  0.90980838  0.59428293  1  -0.013546  0  -0.035766  -0.072797  0  4.030932  0
C  C127  1  0.41988305  0.08986807  0.90543226  1  -0.011663  0  -0.03569  -0.072817  0  4.031282  0
C  C128  1  0.67079498  0.09019253  0.40571295  1  -0.013815  0  -0.035699  -0.072654  0  4.030682  0
C  C129  1  0.58011411  0.91013580  0.09456729  1  0.008699  0  -0.035634  -0.072866  0  4.031216  0
C  C130  1  0.32358894  0.94434528  0.53756803  1  -0.065717  0  -0.087494  -0.083741  0  4.012037  0
C  C131  1  0.37957339  0.05531822  0.96213283  1  -0.132356  0  -0.087897  -0.085419  0  4.013687  0
C  C132  1  0.67640830  0.05565148  0.46242918  1  -0.065665  0  -0.087448  -0.08356  0  4.011856  0
C  C133  1  0.62042528  0.94468624  0.03786908  1  -0.13229  0  -0.087951  -0.085493  0  4.013632  0
C  C134  1  0.18876227  0.91819281  0.48284632  1  0.035219  0  -0.104255  -0.205604  0  3.970851  0
C  C135  1  0.27110777  0.08159754  0.01693770  1  0.047482  0  -0.104468  -0.205335  0  3.970286  0
C  C136  1  0.81123167  0.08180218  0.51715031  1  0.035407  0  -0.104273  -0.205647  0  3.971188  0
C  C137  1  0.72889152  0.91840574  0.98306273  1  0.04758  0  -0.104425  -0.205202  0  3.969932  0
C  C138  1  0.47940168  0.93309399  0.64856249  1  1.524411  0  0.185611  0.553437  0  4.232955  0
C  C139  1  0.54650732  0.06638738  0.85104284  1  1.514589  0  0.185557  0.552976  0  4.233486  0
C  C140  1  0.52060669  0.06691047  0.35143293  1  1.524965  0  0.185568  0.553265  0  4.233269  0
C  C141  1  0.45349203  0.93361117  0.14895712  1  1.514662  0  0.185582  0.553202  0  4.233303  0
C  C142  1  0.42051692  0.62682685  0.21822827  1  0.475201  0  0.044222  0.089597  0  3.928648  0
C  C143  1  0.79448727  0.37319633  0.28191280  1  0.454624  0  0.044059  0.089819  0  3.931518  0
C  C144  1  0.57948911  0.37317051  0.78177238  1  0.475394  0  0.044291  0.08956  0  3.928599  0
C  C145  1  0.20550935  0.62680162  0.71808859  1  0.454821  0  0.044054  0.089883  0  3.931515  0
C  C146  1  0.57747276  0.67640085  0.22526877  1  -0.091645  0  -0.074646  -0.153457  0  3.908756  0
C  C147  1  0.90209318  0.32372119  0.27486686  1  -0.075487  0  -0.073721  -0.152263  0  3.908102  0
C  C148  1  0.42253025  0.32359532  0.77473149  1  -0.091776  0  -0.074588  -0.153451  0  3.908474  0
C  C149  1  0.09790525  0.67627794  0.72513438  1  -0.075564  0  -0.073726  -0.152331  0  3.90811  0
C  C150  1  0.59759019  0.75869691  0.25586750  1  0.057292  0  0.019064  0.102324  0  3.951821  0
C  C151  1  0.84009290  0.24141933  0.24421654  1  0.050362  0  0.018973  0.102054  0  3.951124  0
C  C152  1  0.40241554  0.24129985  0.74413080  1  0.057475  0  0.019041  0.102393  0  3.951762  0
C  C153  1  0.15990858  0.75857862  0.75578376  1  0.050223  0  0.018981  0.102067  0  3.951114  0
C  C154  1  0.45526914  0.78726649  0.28008225  1  0.014741  0  -0.06972  -0.148004  0  3.896931  0
C  C155  1  0.66926668  0.21274442  0.21995893  1  -0.019788  0  -0.068003  -0.144518  0  3.900049  0
C  C156  1  0.54474263  0.21273264  0.71991629  1  0.012998  0  -0.06976  -0.147933  0  3.896984  0
C  C157  1  0.33073539  0.78725472  0.78003906  1  -0.023718  0  -0.067979  -0.14448  0  3.900151  0
C  C158  1  0.30261475  0.73397280  0.27227240  1  0.480726  0  0.049539  0.09844  0  3.932906  0
C  C159  1  0.56971988  0.26593879  0.22780275  1  0.46295  0  0.047832  0.096151  0  3.931794  0
C  C160  1  0.69739125  0.26602693  0.72772741  1  0.482211  0  0.049507  0.098313  0  3.932959  0
C  C161  1  0.43027826  0.73405976  0.77219612  1  0.463345  0  0.04783  0.096082  0  3.931948  0
C  C162  1  0.03544720  0.84112910  0.21508882  1  0.427785  0  0.051475  0.095115  0  3.935448  0
C  C163  1  0.19501027  0.15893731  0.28538540  1  0.443445  0  0.051968  0.096493  0  3.934067  0
C  C164  1  0.96455759  0.15887062  0.78490991  1  0.427993  0  0.05146  0.095105  0  3.935323  0
C  C165  1  0.80498665  0.84106124  0.71461348  1  0.443393  0  0.052098  0.096644  0  3.934108  0
C  C166  1  0.88793948  0.78700655  0.21472896  1  0.000351  0  -0.072192  -0.155343  0  3.896462  0
C  C167  1  0.10191881  0.21309631  0.28555969  1  0.024305  0  -0.071816  -0.154807  0  3.900138  0
C  C168  1  0.11206743  0.21299258  0.78526849  1  8.8e-05  0  -0.072159  -0.155355  0  3.896508  0
C  C169  1  0.89807598  0.78690283  0.71443993  1  0.024314  0  -0.071835  -0.154867  0  3.900159  0
C  C170  1  0.76127776  0.81303134  0.25971539  1  -0.028424  0  0.020402  0.106933  0  3.951082  0
C  C171  1  0.94943110  0.18708445  0.24044253  1  0.00708  0  0.020059  0.106578  0  3.949072  0
C  C172  1  0.23872493  0.18696661  0.74028276  1  -0.028466  0  0.02038  0.106881  0  3.951073  0
C  C173  1  0.05056972  0.81291706  0.75955894  1  0.007178  0  0.020085  0.106563  0  3.948917  0
C  C174  1  0.79406842  0.89313451  0.30565873  1  0.06081  0  -0.068863  -0.143569  0  3.916277  0
C  C175  1  0.90201330  0.10697342  0.19455986  1  -0.018751  0  -0.070053  -0.145453  0  3.918718  0
C  C176  1  0.20593213  0.10686404  0.69434068  1  0.060462  0  -0.068817  -0.143547  0  3.916227  0
C  C177  1  0.09799027  0.89302631  0.80544157  1  -0.01888  0  -0.070089  -0.145449  0  3.918696  0
C  C178  1  0.94504484  0.94330625  0.30318922  1  0.405743  0  0.050876  0.093395  0  3.940873  0
C  C179  1  0.00253109  0.05676298  0.19722727  1  0.461585  0  0.051951  0.095381  0  3.941445  0
C  C180  1  0.05495664  0.05669170  0.69680892  1  0.405683  0  0.050841  0.093413  0  3.940776  0
C  C181  1  0.99746796  0.94323497  0.80277411  1  0.46165  0  0.051956  0.095377  0  3.941246  0
N  N182  1  0.28476104  0.65509244  0.24102834  1  -1.253588  0  -0.334955  -0.255316  0  3.630748  0
N  N183  1  0.63049293  0.34483679  0.25908335  1  -1.279094  0  -0.33526  -0.255477  0  3.629436  0
N  N184  1  0.71524253  0.34490729  0.75897363  1  -1.253353  0  -0.33495  -0.255261  0  3.630797  0
N  N185  1  0.36950399  0.65516175  0.74091769  1  -1.279189  0  -0.335266  -0.255497  0  3.629457  0
N  N186  1  0.06326950  0.91832456  0.25772633  1  -1.249393  0  -0.324899  -0.229963  0  3.570297  0
N  N187  1  0.14550878  0.08172325  0.24282258  1  -1.245129  0  -0.325299  -0.22955  0  3.568601  0
N  N188  1  0.93673168  0.08167280  0.74227215  1  -1.249359  0  -0.324878  -0.229965  0  3.570071  0
N  N189  1  0.85448965  0.91827588  0.75717865  1  -1.245047  0  -0.325378  -0.229694  0  3.568495  0
O  O190  1  0.41767154  0.51924536  0.33992760  1  -1.182742  0  -0.321576  -0.580014  0  2.291333  0
O  O191  1  0.89823535  0.48049434  0.15992364  1  -1.181584  0  -0.321792  -0.580444  0  2.292634  0
O  O192  1  0.58231571  0.48075081  0.66007698  1  -1.182778  0  -0.321585  -0.580056  0  2.291438  0
O  O193  1  0.10176849  0.51950834  0.84007282  1  -1.181523  0  -0.321767  -0.580402  0  2.292578  0
O  O194  1  0.69128182  0.52978789  0.34493852  1  -1.148165  0  -0.290313  -0.502617  0  2.205918  0
O  O195  1  0.16130076  0.47000689  0.15528696  1  -1.15351  0  -0.290481  -0.503903  0  2.210317  0
O  O196  1  0.30871025  0.47021065  0.65506144  1  -1.147936  0  -0.29038  -0.502727  0  2.205796  0
O  O197  1  0.83870669  0.52999817  0.84471407  1  -1.154154  0  -0.290469  -0.504006  0  2.210114  0
O  O198  1  0.91023335  0.64803294  0.29304830  1  -1.16302  0  -0.3225  -0.552308  0  2.306245  0
O  O199  1  0.26253696  0.35168975  0.20687001  1  -1.163283  0  -0.323374  -0.552866  0  2.307406  0
O  O200  1  0.08975931  0.35196679  0.70695313  1  -1.163033  0  -0.322471  -0.552239  0  2.306162  0
O  O201  1  0.73746056  0.64830997  0.79312656  1  -1.163512  0  -0.323496  -0.552971  0  2.307384  0
O  O202  1  0.00982183  0.65933338  0.41189569  1  -1.169473  0  -0.314172  -0.539732  0  2.143678  0
O  O203  1  0.35072460  0.34085290  0.08807252  1  -1.162405  0  -0.313781  -0.539027  0  2.144893  0
O  O204  1  0.99016571  0.34066339  0.58810585  1  -1.169382  0  -0.31415  -0.539699  0  2.143633  0
O  O205  1  0.64927925  0.65914979  0.91192448  1  -1.16243  0  -0.313926  -0.539236  0  2.145032  0
O  O206  1  0.92986487  0.83040390  0.42795714  1  -1.114  0  -0.154915  -0.223372  0  2.585027  0
O  O207  1  0.10033081  0.16953080  0.07192107  1  -1.106808  0  -0.154794  -0.223315  0  2.584274  0
O  O208  1  0.07012572  0.16959169  0.57204401  1  -1.113935  0  -0.154861  -0.223237  0  2.584993  0
O  O209  1  0.89966670  0.83046893  0.92807658  1  -1.106904  0  -0.154798  -0.223364  0  2.584389  0
O  O210  1  0.47513450  0.90647894  0.70394207  1  -1.174711  0  -0.325855  -0.557158  0  2.201991  0
O  O211  1  0.56873312  0.09288606  0.79554367  1  -1.171956  0  -0.326394  -0.55698  0  2.202471  0
O  O212  1  0.52487686  0.09352907  0.29605831  1  -1.175014  0  -0.325804  -0.557081  0  2.202202  0
O  O213  1  0.43126084  0.90710657  0.20445217  1  -1.172023  0  -0.326418  -0.557089  0  2.202536  0
O  O214  1  0.61198497  0.98014161  0.63868836  1  -1.176265  0  -0.340065  -0.562372  0  2.194671  0
O  O215  1  0.63195052  0.01932803  0.86084665  1  -1.175828  0  -0.339517  -0.561495  0  2.195314  0
O  O216  1  0.38801798  0.01985930  0.36130265  1  -1.176337  0  -0.340115  -0.562402  0  2.194761  0
O  O217  1  0.36804335  0.98067169  0.13915748  1  -1.175821  0  -0.339556  -0.561635  0  2.19526  0
O  O218  1  0.10331813  0.53540275  0.32387612  1  -1.26921  0  -0.572973  -0.734039  0  2.124297  0
O  O219  1  0.56808399  0.46463910  0.17632505  1  -1.29092  0  -0.573329  -0.735468  0  2.122317  0
O  O220  1  0.89668237  0.46460053  0.67612594  1  -1.269187  0  -0.572936  -0.734071  0  2.124226  0
O  O221  1  0.43192015  0.53536417  0.82367917  1  -1.290824  0  -0.573337  -0.735519  0  2.122246  0
O  O222  1  0.97245667  0.61465379  0.11424887  1  -1.223757  0  -0.577306  -0.738965  0  1.944339  0
O  O223  1  0.35861668  0.38511035  0.38560983  1  -1.21183  0  -0.576252  -0.739261  0  1.947629  0
O  O224  1  0.02755444  0.38534889  0.88575461  1  -1.223706  0  -0.577376  -0.739155  0  1.944111  0
O  O225  1  0.64138237  0.61488760  0.61439480  1  -1.211917  0  -0.576275  -0.739227  0  1.947633  0
