# generated using pymatgen
data_ZnH14C27(NO2)2
_symmetry_space_group_name_H-M   'P 1'
_cell_length_a   14.70613279
_cell_length_b   16.09938612
_cell_length_c   17.30123413
_cell_angle_alpha   88.92099056
_cell_angle_beta   106.18695214
_cell_angle_gamma   101.63041035
_symmetry_Int_Tables_number   1
_chemical_formula_structural   ZnH14C27(NO2)2
_chemical_formula_sum   'Zn2 H28 C54 N4 O8'
_cell_volume   3850.03893326
_cell_formula_units_Z   2
loop_
 _symmetry_equiv_pos_site_id
 _symmetry_equiv_pos_as_xyz
  1  'x, y, z'
loop_
 _atom_site_type_symbol
 _atom_site_label
 _atom_site_symmetry_multiplicity
 _atom_site_fract_x
 _atom_site_fract_y
 _atom_site_fract_z
 _atom_site_occupancy
 _atom_site_pbe_bader_charge
 _atom_site_pbe_bader_spin_density
 _atom_site_pbe_cm5_charge
 _atom_site_pbe_ddec_charge
 _atom_site_pbe_ddec_spin_density
 _atom_site_pbe_ddec_sum_bond_order
 _atom_site_pbe_magmom
Zn  Zn0  1  0.59845674  0.49080814  0.52695923  1  1.294358  0  0.674732  0.831434  0  2.41369  0
Zn  Zn1  1  0.40158973  0.50497408  0.47116521  1  1.292978  0  0.674806  0.832081  0  2.402267  0
H  H2  1  0.38749658  0.57634503  0.22679328  1  0.062497  0  0.101261  0.104007  0  1.005377  0
H  H3  1  0.31307629  0.63851092  0.37254510  1  0.121223  0  0.128719  0.105419  0  0.971436  0
H  H4  1  0.15719510  0.69058774  0.34544185  1  0.075392  0  0.113673  0.120649  0  0.982371  0
H  H5  1  0.84023918  0.30170600  0.65116341  1  0.081263  0  0.114151  0.120065  0  0.982173  0
H  H6  1  0.86925242  0.59919918  0.42737658  1  0.105943  0  0.112657  0.112982  0  0.999527  0
H  H7  1  0.13041478  0.39553150  0.57241650  1  0.073961  0  0.111651  0.112155  0  0.99795  0
H  H8  1  0.35139979  0.56140069  0.69463753  1  0.088921  0  0.102954  0.107326  0  1.003361  0
H  H9  1  0.66221290  0.50196923  0.29924045  1  0.097247  0  0.103042  0.108198  0  1.002656  0
H  H10  1  0.42664008  0.61155738  0.97302732  1  0.031071  0  0.099183  0.094647  0  1.00898  0
H  H11  1  0.62934318  0.56978928  0.03174952  1  0.043593  0  0.098051  0.093777  0  1.015062  0
H  H12  1  0.68536038  0.53591995  0.16387085  1  0.034917  0  0.097056  0.094241  0  1.003398  0
H  H13  1  0.65010265  0.54487757  0.77857454  1  0.085451  0  0.103817  0.109778  0  0.999128  0
H  H14  1  0.35327119  0.59856949  0.83450480  1  0.049824  0  0.097577  0.09603  0  1.002166  0
H  H15  1  0.65413741  0.58234979  0.91789655  1  0.058223  0  0.098187  0.097134  0  1.008749  0
H  H16  1  0.40990193  0.61242677  0.09256615  1  0.048145  0  0.09954  0.099169  0  1.007286  0
H  H17  1  0.75511251  0.05149024  0.51181898  1  0.077147  0  0.105479  0.105987  0  0.988886  0
H  H18  1  0.25286417  0.94585008  0.50677539  1  0.061071  0  0.104473  0.104596  0  0.990581  0
H  H19  1  0.26470123  0.24250650  0.50427538  1  0.082102  0  0.109976  0.117258  0  0.989761  0
H  H20  1  0.74208502  0.75620375  0.50041541  1  0.093763  0  0.108864  0.116733  0  0.995257  0
H  H21  1  0.78935031  0.91514904  0.50103820  1  0.074015  0  0.106266  0.104323  0  0.989043  0
H  H22  1  0.21761012  0.08443394  0.51078078  1  0.069735  0  0.105889  0.1039  0  0.988574  0
H  H23  1  0.64508003  0.14418903  0.51508815  1  0.129167  0  0.104779  0.109747  0  1.050776  0
H  H24  1  0.36192454  0.85255781  0.50381060  1  0.083494  0  0.104308  0.110674  0  1.058402  0
H  H25  1  0.99210890  0.67323634  0.36584080  1  0.066954  0  0.110359  0.112601  0  0.982337  0
H  H26  1  0.00683443  0.32038135  0.63261445  1  0.085781  0  0.110603  0.112459  0  0.982027  0
H  H27  1  0.77372776  0.54364799  0.48227702  1  0.119689  0  0.125323  0.095655  0  1.006699  0
H  H28  1  0.22728779  0.45285643  0.51919400  1  0.116455  0  0.125473  0.095763  0  1.001811  0
H  H29  1  0.68404274  0.35303620  0.62275410  1  0.094971  0  0.127427  0.104078  0  0.971253  0
C  C30  1  0.57844799  0.66200595  0.51210828  1  1.558195  0  0.212283  0.585513  0  4.189844  0
C  C31  1  0.47056680  0.18815101  0.48607874  1  0.089414  0  0.013802  0.000219  0  3.980049  0
C  C32  1  0.55608511  0.89737254  0.51394574  1  0.022948  0  0.012967  0.003252  0  3.859787  0
C  C33  1  0.45027918  0.09834832  0.49817274  1  0.025911  0  0.010997  0.003692  0  3.86937  0
C  C34  1  0.65126660  0.93465627  0.50895024  1  -0.077161  0  -0.005498  0.080245  0  4.038357  0
C  C35  1  0.35534741  0.06234762  0.50424308  1  -0.004544  0  -0.00549  0.076694  0  4.041913  0
C  C36  1  0.48787948  0.95294574  0.50890588  1  -0.017886  0  0.0007  0.040497  0  3.926319  0
C  C37  1  0.51865579  0.04279020  0.50521836  1  -0.017435  0  0.000932  0.03833  0  3.928969  0
C  C38  1  0.61788922  0.07622345  0.51115709  1  -0.08406  0  -0.090347  -0.122735  0  4.019213  0
C  C39  1  0.38905288  0.92038979  0.50538153  1  0.015581  0  -0.093221  -0.129118  0  4.01805  0
C  C40  1  0.68041158  0.02437472  0.51045732  1  -0.019063  0  -0.092564  -0.133487  0  4.025803  0
C  C41  1  0.43073986  0.33420799  0.49080943  1  1.583714  0  0.217111  0.59243  0  4.181613  0
C  C42  1  0.32690701  0.97276566  0.50602628  1  -0.081045  0  -0.089962  -0.127752  0  4.026035  0
C  C43  1  0.16952726  0.63720120  0.38391093  1  -0.024851  0  -0.077953  -0.175589  0  3.966171  0
C  C44  1  0.82865275  0.35577477  0.61344991  1  -0.047223  0  -0.078435  -0.176006  0  3.966149  0
C  C45  1  0.50673271  0.51222531  0.35091239  1  1.553969  0  0.210429  0.588361  0  4.173286  0
C  C46  1  0.49714920  0.51894517  0.64634223  1  1.545905  0  0.212882  0.59277  0  4.173057  0
C  C47  1  0.25498099  0.60928100  0.39808156  1  0.458969  0  0.051304  0.09142  0  3.943793  0
C  C48  1  0.74311785  0.38361979  0.59893852  1  0.484805  0  0.051828  0.096068  0  3.944706  0
C  C49  1  0.20646687  0.50427444  0.48089068  1  0.566918  0  0.073447  0.078374  0  3.876446  0
C  C50  1  0.79345446  0.49075639  0.51885149  1  0.50986  0  0.072377  0.076205  0  3.871789  0
C  C51  1  0.11647123  0.52747245  0.47028396  1  -0.023732  0  0.004064  -0.012555  0  3.945022  0
C  C52  1  0.60212789  0.75754618  0.51409739  1  0.038244  0  0.002265  -0.037683  0  3.904905  0
C  C53  1  0.88309764  0.46700286  0.52910399  1  0.007352  0  0.004606  -0.009933  0  3.941925  0
C  C54  1  0.09743007  0.59633537  0.41929641  1  0.021235  0  0.010333  0.111082  0  4.016851  0
C  C55  1  0.90153479  0.39741165  0.57925032  1  0.064853  0  0.009881  0.109802  0  4.015295  0
C  C56  1  0.04461550  0.48413964  0.50763296  1  -0.019659  0  0.006744  0.042257  0  3.962198  0
C  C57  1  0.95511366  0.51054340  0.49204300  1  0.038141  0  0.005613  0.040073  0  3.96239  0
C  C58  1  0.93829734  0.57930390  0.44009976  1  -0.058353  0  -0.074875  -0.108677  0  3.988543  0
C  C59  1  0.06122553  0.41520943  0.55941071  1  -0.064442  0  -0.07515  -0.109846  0  3.989442  0
C  C60  1  0.00663541  0.62093917  0.40530717  1  -0.038097  0  -0.081562  -0.128381  0  3.991364  0
C  C61  1  0.99246802  0.37298253  0.59350276  1  -0.034342  0  -0.079375  -0.124754  0  3.988166  0
C  C62  1  0.52264933  0.53573405  0.27095282  1  -0.012592  0  -0.021485  -0.035002  0  3.963873  0
C  C63  1  0.40489394  0.23885441  0.49177913  1  -0.005926  0  0.004097  -0.033751  0  3.903075  0
C  C64  1  0.49939585  0.54693995  0.72880791  1  -0.012948  0  -0.01952  -0.033191  0  3.960696  0
C  C65  1  0.45267614  0.56805242  0.21223294  1  0.011228  0  -0.085186  -0.089288  0  4.000495  0
C  C66  1  0.58527093  0.55584297  0.79201384  1  -0.028848  0  -0.086242  -0.091023  0  3.996796  0
C  C67  1  0.46573965  0.58802336  0.13716576  1  -0.102216  0  -0.092451  -0.136052  0  3.972375  0
C  C68  1  0.58686539  0.57696264  0.86975435  1  -0.032196  0  -0.092916  -0.136434  0  3.976798  0
C  C69  1  0.54892774  0.57516377  0.11742902  1  0.03967  0  -0.010446  0.116819  0  4.047276  0
C  C70  1  0.50238370  0.58972951  0.88731230  1  0.000614  0  -0.010458  0.114035  0  4.049647  0
C  C71  1  0.62022132  0.54563242  0.17794522  1  -0.08463  0  -0.094714  -0.142913  0  3.986491  0
C  C72  1  0.41849884  0.58632550  0.82238453  1  -0.051192  0  -0.092699  -0.140839  0  3.981596  0
C  C73  1  0.60759137  0.52631559  0.25340256  1  -0.016576  0  -0.087454  -0.09126  0  3.9973  0
C  C74  1  0.71780774  0.88376785  0.50495962  1  -0.050197  0  -0.080192  -0.117473  0  3.999191  0
C  C75  1  0.41668484  0.56483073  0.74442055  1  -0.034186  0  -0.083602  -0.082678  0  3.989289  0
C  C76  1  0.56159793  0.58400219  0.03702819  1  -0.040215  0  -0.094829  -0.136453  0  4.006223  0
C  C77  1  0.49553901  0.59886995  0.96893933  1  -0.06054  0  -0.090794  -0.127871  0  3.99759  0
C  C78  1  0.55174352  0.22829729  0.45899527  1  0.84686  0  0.178117  0.243542  0  4.043374  0
C  C79  1  0.45414563  0.76408674  0.54752450  1  0.869592  0  0.17793  0.249981  0  4.038996  0
C  C80  1  0.28911174  0.11450731  0.50576094  1  -0.000379  0  -0.079152  -0.114539  0  3.991872  0
C  C81  1  0.69286383  0.79683321  0.50519286  1  -0.000605  0  -0.083065  -0.094439  0  4.019742  0
C  C82  1  0.31411834  0.20122855  0.50165819  1  -0.011927  0  -0.084262  -0.100447  0  4.018665  0
C  C83  1  0.53596805  0.80670142  0.52238869  1  0.064084  0  0.015253  -0.00083  0  3.975842  0
N  N84  1  0.27223752  0.54291461  0.44567220  1  -1.245366  0  -0.319997  -0.192729  0  3.54436  0
N  N85  1  0.72683041  0.45124453  0.55281705  1  -1.251083  0  -0.318921  -0.19248  0  3.54178  0
N  N86  1  0.61424992  0.25882236  0.43137338  1  -1.132184  0  -0.322477  -0.367642  0  2.68704  0
N  N87  1  0.39063403  0.73263770  0.57366214  1  -1.13455  0  -0.318352  -0.368075  0  2.701556  0
O  O88  1  0.64882453  0.62382662  0.52777003  1  -1.152735  0  -0.318492  -0.539312  0  2.262631  0
O  O89  1  0.36219003  0.37337618  0.46320641  1  -1.151952  0  -0.317563  -0.535997  0  2.265258  0
O  O90  1  0.48924260  0.62757468  0.49221764  1  -1.158444  0  -0.303951  -0.550783  0  2.392695  0
O  O91  1  0.51939733  0.36734279  0.52089391  1  -1.166634  0  -0.304337  -0.548964  0  2.384107  0
O  O92  1  0.57791990  0.49387298  0.40495579  1  -1.167825  0  -0.316495  -0.552504  0  2.348443  0
O  O93  1  0.41552496  0.50400229  0.59288751  1  -1.179524  0  -0.322006  -0.560698  0  2.337798  0
O  O94  1  0.42342732  0.51268754  0.35958972  1  -1.162634  0  -0.320952  -0.54634  0  2.312141  0
O  O95  1  0.57768078  0.51187781  0.63545831  1  -1.157421  0  -0.322794  -0.548002  0  2.330324  0
