# generated using pymatgen
data_AlH11C16NO6
_symmetry_space_group_name_H-M   'P 1'
_cell_length_a   6.86093868
_cell_length_b   16.98959128
_cell_length_c   17.53001131
_cell_angle_alpha   81.95238407
_cell_angle_beta   82.82816684
_cell_angle_gamma   82.02406339
_symmetry_Int_Tables_number   1
_chemical_formula_structural   AlH11C16NO6
_chemical_formula_sum   'Al2 H22 C32 N2 O12'
_cell_volume   1992.06961629
_cell_formula_units_Z   2
loop_
 _symmetry_equiv_pos_site_id
 _symmetry_equiv_pos_as_xyz
  1  'x, y, z'
loop_
 _atom_site_type_symbol
 _atom_site_label
 _atom_site_symmetry_multiplicity
 _atom_site_fract_x
 _atom_site_fract_y
 _atom_site_fract_z
 _atom_site_occupancy
 _atom_site_pbe_bader_charge
 _atom_site_pbe_bader_spin_density
 _atom_site_pbe_cm5_charge
 _atom_site_pbe_ddec_charge
 _atom_site_pbe_ddec_spin_density
 _atom_site_pbe_ddec_sum_bond_order
 _atom_site_pbe_magmom
Al  Al0  1  0.49996569  0.50007403  0.49998826  1  2.506114  0  0.405043  1.652165  0  2.56591  0
Al  Al1  1  0.99998401  0.50009472  0.50000730  1  2.50751  0  0.412175  1.639744  0  2.54874  0
H  H2  1  0.75825143  0.56438289  0.41200299  1  0.613798  0  0.34898  0.424977  0  0.860583  0
H  H3  1  0.24176258  0.43564482  0.58793992  1  0.615113  0  0.348846  0.424904  0  0.860657  0
H  H4  1  0.14698565  0.26108206  0.49660760  1  0.141937  0  0.105387  0.115268  0  1.037136  0
H  H5  1  0.20776272  0.11310150  0.49652440  1  0.089539  0  0.102741  0.107629  0  1.037738  0
H  H6  1  0.58120834  0.10680604  0.49838491  1  0.096502  0  0.11433  0.136486  0  0.992564  0
H  H7  1  0.41882021  0.89333656  0.50160447  1  0.096328  0  0.114165  0.136196  0  0.992457  0
H  H8  1  0.79234100  0.88704418  0.50336412  1  0.088834  0  0.102684  0.107809  0  1.03801  0
H  H9  1  0.85307473  0.73905488  0.50333235  1  0.143007  0  0.105515  0.115564  0  1.036543  0
H  H10  1  0.64897812  0.49590714  0.28035379  1  0.082657  0  0.108198  0.110767  0  1.008505  0
H  H11  1  0.72804881  0.49592203  0.13810727  1  0.062861  0  0.097733  0.092192  0  1.089137  0
H  H12  1  0.03364633  0.49664325  0.25628387  1  0.0794  0  0.107624  0.115021  0  1.002279  0
H  H13  1  0.96553796  0.50555512  0.74343304  1  0.079596  0  0.107399  0.114755  0  1.002998  0
H  H14  1  0.35186691  0.50105244  0.72006808  1  0.09305  0  0.107947  0.10993  0  1.009393  0
H  H15  1  0.27327827  0.49981427  0.86245510  1  0.068988  0  0.09745  0.092125  0  1.088565  0
H  H16  1  0.48626494  0.31842707  0.49671393  1  0.648092  0  0.313778  0.356295  0  0.966236  0
H  H17  1  0.51381464  0.68169801  0.50329107  1  0.65065  0  0.31369  0.356236  0  0.965785  0
H  H18  1  0.99323836  0.44275842  0.11483028  1  0.053672  0  0.10105  0.141646  0  0.981047  0
H  H19  1  0.13159949  0.49657270  0.03759227  1  0.064939  0  0.092191  0.130098  0  1.038384  0
H  H20  1  0.95948559  0.54974129  0.10204942  1  0.075743  0  0.100361  0.140121  0  0.984508  0
H  H21  1  0.03608219  0.45090805  0.90080715  1  0.042408  0  0.099925  0.139384  0  0.984857  0
H  H22  1  0.86664036  0.50925778  0.96160855  1  0.073543  0  0.092291  0.130361  0  1.037723  0
H  H23  1  0.01068422  0.55769102  0.88227812  1  0.08033  0  0.101155  0.142063  0  0.983443  0
C  C24  1  0.29306478  0.49978818  0.36192066  1  1.552883  0  0.271903  0.652478  0  4.071103  0
C  C25  1  0.19902467  0.64452681  0.50070505  1  1.485648  0  0.262247  0.652471  0  4.077022  0
C  C26  1  0.70688119  0.50023301  0.63808756  1  1.553559  0  0.27172  0.651329  0  4.071958  0
C  C27  1  0.80100337  0.35560247  0.49929927  1  1.485144  0  0.262208  0.652298  0  4.077645  0
C  C28  1  0.83073607  0.26842562  0.49753533  1  0.029175  0  -0.036557  -0.203026  0  3.978562  0
C  C29  1  0.02395147  0.22692829  0.49699580  1  -0.067246  0  -0.081197  -0.047855  0  3.995821  0
C  C30  1  0.05890833  0.14500939  0.49702517  1  0.027442  0  -0.099029  -0.1786  0  3.977278  0
C  C31  1  0.89677054  0.10183121  0.49796590  1  0.33589  0  0.092679  0.198335  0  4.058171  0
C  C32  1  0.70413571  0.14125928  0.49788075  1  -0.008097  0  -0.090149  -0.260762  0  3.886871  0
C  C33  1  0.66865082  0.22458409  0.49742973  1  0.524613  0  0.096237  0.325491  0  4.053358  0
C  C34  1  0.29588844  0.85890168  0.50208895  1  -0.001606  0  -0.09025  -0.261553  0  3.887275  0
C  C35  1  0.10327726  0.89832614  0.50197126  1  0.327187  0  0.09239  0.198952  0  4.057753  0
C  C36  1  0.94116659  0.85515077  0.50289294  1  0.027616  0  -0.099139  -0.17941  0  3.977709  0
C  C37  1  0.97607985  0.77322788  0.50295219  1  -0.097363  0  -0.080846  -0.047339  0  3.994453  0
C  C38  1  0.16930458  0.73172470  0.50243261  1  0.051606  0  -0.036694  -0.203694  0  3.977802  0
C  C39  1  0.33138961  0.77557551  0.50255397  1  0.535055  0  0.096551  0.326538  0  4.053078  0
C  C40  1  0.33553430  0.49742853  0.27683462  1  0.000866  0  -0.014183  -0.044039  0  3.998335  0
C  C41  1  0.53256792  0.49656231  0.24331425  1  0.038196  0  -0.08422  -0.093064  0  4.007766  0
C  C42  1  0.57679507  0.49635588  0.16432515  1  -0.036165  0  -0.089856  -0.130111  0  3.99963  0
C  C43  1  0.42712890  0.49703842  0.11603610  1  0.052531  0  0.003765  0.086036  0  4.077885  0
C  C44  1  0.22820534  0.49667061  0.14936059  1  0.093391  0  0.003612  0.135248  0  3.929203  0
C  C45  1  0.18593203  0.49684705  0.22945072  1  -0.097744  0  -0.079044  -0.14883  0  3.927455  0
C  C46  1  0.47776018  0.49838884  0.03504963  1  0.110534  0  -0.035679  -0.094225  0  4.106022  0
C  C47  1  0.52280658  0.50021919  0.96516151  1  -0.524703  0  -0.034297  -0.091476  0  4.104398  0
C  C48  1  0.57320994  0.50180421  0.88413402  1  0.078163  0  0.00379  0.085938  0  4.075921  0
C  C49  1  0.77149032  0.50404117  0.85056110  1  0.084176  0  0.003403  0.134909  0  3.927533  0
C  C50  1  0.81370192  0.50406655  0.77044166  1  -0.097348  0  -0.078986  -0.148817  0  3.92905  0
C  C51  1  0.66450240  0.50220767  0.72322911  1  0.007102  0  -0.014447  -0.043633  0  3.997906  0
C  C52  1  0.46802090  0.50135847  0.75696501  1  0.029957  0  -0.083865  -0.091843  0  4.006508  0
C  C53  1  0.42400554  0.50096121  0.83603172  1  -0.063618  0  -0.089333  -0.130352  0  3.998926  0
C  C54  1  0.06934215  0.49641822  0.09821035  1  -0.121025  0  -0.236553  -0.418025  0  3.964464  0
C  C55  1  0.92993165  0.50569231  0.90152219  1  -0.121965  0  -0.236061  -0.417869  0  3.966778  0
N  N56  1  0.91263071  0.01774992  0.49899179  1  -0.450003  0  -0.143603  -0.127975  0  3.258731  0
N  N57  1  0.08745191  0.98238548  0.50094351  1  -0.493159  0  -0.143941  -0.127987  0  3.258957  0
O  O58  1  0.44314686  0.50357212  0.39713494  1  -1.280038  0  -0.238315  -0.608818  0  2.375159  0
O  O59  1  0.05016607  0.60877212  0.49684013  1  -1.26505  0  -0.234163  -0.585336  0  2.349772  0
O  O60  1  0.88468151  0.50142400  0.60655297  1  -1.263698  0  -0.236087  -0.593458  0  2.310582  0
O  O61  1  0.62061478  0.39084302  0.49780310  1  -1.262607  0  -0.240832  -0.616148  0  2.38796  0
O  O62  1  0.55681766  0.49652234  0.60284096  1  -1.28003  0  -0.238575  -0.608546  0  2.376042  0
O  O63  1  0.94978624  0.39138294  0.50320535  1  -1.264028  0  -0.233782  -0.585004  0  2.349551  0
O  O64  1  0.11521840  0.49877295  0.39344504  1  -1.262097  0  -0.236355  -0.593981  0  2.310418  0
O  O65  1  0.37944390  0.60929679  0.50218298  1  -1.261764  0  -0.240222  -0.615443  0  2.387153  0
O  O66  1  0.74841812  0.53754052  0.46467069  1  -1.419964  0  -0.44997  -0.982799  0  2.134902  0
O  O67  1  0.25153882  0.46259351  0.53531182  1  -1.42147  0  -0.449758  -0.982907  0  2.135387  0
O  O68  1  0.47980702  0.25975894  0.49728455  1  -1.161334  0  -0.342663  -0.434377  0  2.294034  0
O  O69  1  0.52023762  0.74037488  0.50272407  1  -1.163221  0  -0.342511  -0.434456  0  2.293389  0
