# generated using pymatgen
data_CuPH22C25IN2
_symmetry_space_group_name_H-M   'P 1'
_cell_length_a   9.22516871
_cell_length_b   11.33325584
_cell_length_c   12.42040000
_cell_angle_alpha   74.42784945
_cell_angle_beta   76.61118884
_cell_angle_gamma   71.97977720
_symmetry_Int_Tables_number   1
_chemical_formula_structural   CuPH22C25IN2
_chemical_formula_sum   'Cu2 P2 H44 C50 I2 N4'
_cell_volume   1173.80435024
_cell_formula_units_Z   2
loop_
 _symmetry_equiv_pos_site_id
 _symmetry_equiv_pos_as_xyz
  1  'x, y, z'
loop_
 _atom_site_type_symbol
 _atom_site_label
 _atom_site_symmetry_multiplicity
 _atom_site_fract_x
 _atom_site_fract_y
 _atom_site_fract_z
 _atom_site_occupancy
 _atom_site_hle17_bader_spin_density
 _atom_site_hle17_ddec_charge
 _atom_site_hle17_ddec_spin_density
 _atom_site_hle17_ddec_sum_bond_order
 _atom_site_hle17_magmom
 _atom_site_hse06_10hf_bader_spin_density
 _atom_site_hse06_10hf_ddec_charge
 _atom_site_hse06_10hf_ddec_spin_density
 _atom_site_hse06_10hf_ddec_sum_bond_order
 _atom_site_hse06_10hf_magmom
 _atom_site_hse06_bader_spin_density
 _atom_site_hse06_ddec_charge
 _atom_site_hse06_ddec_spin_density
 _atom_site_hse06_ddec_sum_bond_order
 _atom_site_hse06_magmom
 _atom_site_pbe_bader_charge
 _atom_site_pbe_bader_spin_density
 _atom_site_pbe_cm5_charge
 _atom_site_pbe_ddec_charge
 _atom_site_pbe_ddec_spin_density
 _atom_site_pbe_ddec_sum_bond_order
 _atom_site_pbe_magmom
Cu  Cu0  1  0.86206093  0.10769954  0.02289143  1  0  0.160896  0  2.33319  0  0  0.083304  0  2.817539  0  0  0.082288  0  2.776087  0  0.39543  0  0.341427  0.088453  0  2.840365  0
Cu  Cu1  1  0.13793522  0.89229828  0.97710800  1  0  0.160895  0  2.333184  0  0  0.08334  0  2.817554  0  0  0.082282  0  2.776083  0  0.395384  0  0.341416  0.08848  0  2.840389  0
P  P2  1  0.75833333  0.16774554  0.18481882  1  0  0.304229  0  3.797841  0  0  0.237039  0  4.264614  0  0  0.255109  0  4.251146  0  1.390453  0  -0.041375  0.225583  0  4.27268  0
P  P3  1  0.24167254  0.83225323  0.81518031  1  0  0.304253  0  3.797708  0  0  0.237037  0  4.264666  0  0  0.255139  0  4.251154  0  1.390601  0  -0.041335  0.225586  0  4.27274  0
H  H4  1  0.89191159  0.31017152  0.81793242  1  0  0.068014  0  0.973315  0  0  0.073727  0  1.044853  0  0  0.07708  0  1.041577  0  0.110638  0  0.100402  0.070938  0  1.047588  0
H  H5  1  0.10808902  0.68982630  0.18206866  1  0  0.067992  0  0.97333  0  0  0.0737  0  1.044873  0  0  0.077057  0  1.041594  0  0.110693  0  0.100394  0.07091  0  1.047609  0
H  H6  1  0.75705561  0.41891278  0.64965091  1  0  0.106872  0  0.949686  0  0  0.114386  0  1.012991  0  0  0.118687  0  1.010028  0  0.08099  0  0.110045  0.111196  0  1.015369  0
H  H7  1  0.24293912  0.58108599  0.35035336  1  0  0.106911  0  0.949676  0  0  0.114439  0  1.012963  0  0  0.11874  0  1.01  0  0.080918  0  0.110082  0.111248  0  1.01534  0
H  H8  1  0.43988479  0.18421470  0.79220756  1  0  0.102561  0  0.985726  0  0  0.112496  0  1.049618  0  0  0.115516  0  1.04942  0  0.094765  0  0.096922  0.109214  0  1.051418  0
H  H9  1  0.56011136  0.81578312  0.20779750  1  0  0.102616  0  0.985691  0  0  0.112549  0  1.049573  0  0  0.115573  0  1.049369  0  0.094799  0  0.096958  0.109268  0  1.051374  0
H  H10  1  0.58331708  0.08961794  0.95376433  1  0  0.075759  0  0.952387  0  0  0.083742  0  1.019173  0  0  0.086409  0  1.017044  0  0.109486  0  0.106016  0.079368  0  1.025551  0
H  H11  1  0.41668383  0.91037893  0.04623773  1  0  0.075801  0  0.952285  0  0  0.08379  0  1.019058  0  0  0.086448  0  1.016948  0  0.109565  0  0.106037  0.079416  0  1.025437  0
H  H12  1  0.39149836  0.33568005  0.48934842  1  0  0.130854  0  0.958628  0  0  0.143344  0  1.028498  0  0  0.14685  0  1.025792  0  0.076875  0  0.097036  0.140708  0  1.030436  0
H  H13  1  0.60850083  0.66431872  0.51065428  1  0  0.130851  0  0.958674  0  0  0.14332  0  1.028559  0  0  0.146828  0  1.025853  0  0.07683  0  0.097016  0.140683  0  1.030498  0
H  H14  1  0.31562747  0.28982129  0.63556549  1  0  0.12648  0  0.944015  0  0  0.14908  0  1.002949  0  0  0.150789  0  1.002554  0  0.059002  0  0.098841  0.147051  0  1.004098  0
H  H15  1  0.68437425  0.71017653  0.36443539  1  0  0.126456  0  0.944029  0  0  0.149051  0  1.002954  0  0  0.150758  0  1.002563  0  0.058934  0  0.098813  0.147021  0  1.004104  0
H  H16  1  0.48896237  0.19287043  0.57701625  1  0  0.121402  0  0.944741  0  0  0.143813  0  1.003705  0  0  0.145403  0  1.003748  0  0.072482  0  0.09557  0.142059  0  1.004342  0
H  H17  1  0.51104178  0.80713024  0.42298512  1  0  0.121406  0  0.944758  0  0  0.143807  0  1.003722  0  0  0.145396  0  1.003767  0  0.072454  0  0.095553  0.142051  0  1.004361  0
H  H18  1  0.79017897  0.24862892  0.38601930  1  0  0.08844  0  0.962757  0  0  0.100987  0  1.022229  0  0  0.102886  0  1.022883  0  0.057085  0  0.099197  0.100092  0  1.021275  0
H  H19  1  0.20981880  0.75137079  0.61397535  1  0  0.088453  0  0.962789  0  0  0.101037  0  1.022198  0  0  0.102936  0  1.022857  0  0.057034  0  0.099207  0.100142  0  1.021245  0
H  H20  1  0.84402601  0.44272721  0.40494006  1  0  0.085673  0  0.944341  0  0  0.100399  0  0.997295  0  0  0.103111  0  0.996396  0  0.044536  0  0.100618  0.099038  0  0.997204  0
H  H21  1  0.15597175  0.55727251  0.59505862  1  0  0.085628  0  0.944369  0  0  0.100372  0  0.997311  0  0  0.103074  0  0.996426  0  0.044503  0  0.100589  0.099012  0  0.997219  0
H  H22  1  0.87880811  0.61456558  0.23328967  1  0  0.07447  0  0.986752  0  0  0.084151  0  1.052986  0  0  0.087136  0  1.051367  0  0.072736  0  0.08592  0.08219  0  1.053666  0
H  H23  1  0.12118824  0.38543509  0.76670822  1  0  0.074427  0  0.98677  0  0  0.084102  0  1.053014  0  0  0.08709  0  1.05139  0  0.072715  0  0.085888  0.08214  0  1.053696  0
H  H24  1  0.85863250  0.59082903  0.04584121  1  0  0.089911  0  0.972283  0  0  0.099109  0  1.036109  0  0  0.101585  0  1.036376  0  0.096317  0  0.091765  0.097802  0  1.03491  0
H  H25  1  0.14136801  0.40917259  0.95415412  1  0  0.089955  0  0.972288  0  0  0.099123  0  1.036135  0  0  0.101591  0  1.0364  0  0.096381  0  0.091784  0.097815  0  1.034938  0
H  H26  1  0.81114726  0.39344793  0.02575446  1  0  0.08768  0  0.954193  0  0  0.096943  0  1.020443  0  0  0.10051  0  1.017846  0  0.068112  0  0.096653  0.094922  0  1.021432  0
H  H27  1  0.18885608  0.60655179  0.97423924  1  0  0.087644  0  0.95421  0  0  0.096918  0  1.020445  0  0  0.100485  0  1.017849  0  0.068221  0  0.096634  0.094898  0  1.021433  0
H  H28  1  0.57675330  0.08842902  0.41207553  1  0  0.081206  0  0.985009  0  0  0.091128  0  1.051433  0  0  0.093068  0  1.051827  0  0.066541  0  0.095319  0.089803  0  1.051056  0
H  H29  1  0.42324771  0.91157450  0.58792086  1  0  0.08123  0  0.985021  0  0  0.091144  0  1.051453  0  0  0.093083  0  1.051846  0  0.066526  0  0.095318  0.089819  0  1.051077  0
H  H30  1  0.65666390  0.92852416  0.58455682  1  0  0.079973  0  0.988555  0  0  0.089444  0  1.052946  0  0  0.09133  0  1.053755  0  0.044336  0  0.092854  0.088203  0  1.052357  0
H  H31  1  0.34333235  0.07148031  0.41544096  1  0  0.079994  0  0.988513  0  0  0.089407  0  1.052979  0  0  0.091294  0  1.053787  0  0.044308  0  0.092838  0.088167  0  1.052389  0
H  H32  1  0.92863700  0.80289971  0.58335439  1  0  0.07956  0  0.983687  0  0  0.087459  0  1.052146  0  0  0.089528  0  1.052318  0  0.052839  0  0.093835  0.086143  0  1.051707  0
H  H33  1  0.07135904  0.19710191  0.41664654  1  0  0.079538  0  0.983732  0  0  0.087437  0  1.052195  0  0  0.089506  0  1.052366  0  0.052825  0  0.093832  0.086121  0  1.051756  0
H  H34  1  0.12381501  0.83562341  0.40935917  1  0  0.078175  0  0.968671  0  0  0.091273  0  1.026257  0  0  0.092923  0  1.027202  0  0.058881  0  0.093633  0.090104  0  1.025872  0
H  H35  1  0.87618418  0.16437536  0.59064353  1  0  0.078165  0  0.968676  0  0  0.091275  0  1.026242  0  0  0.092928  0  1.027188  0  0.058865  0  0.093642  0.090106  0  1.025858  0
H  H36  1  0.04319092  0.99051782  0.23551215  1  0  0.086084  0  0.96757  0  0  0.09267  0  1.040077  0  0  0.096223  0  1.0374  0  0.077505  0  0.093163  0.090114  0  1.042132  0
H  H37  1  0.95681303  0.00948000  0.76448915  1  0  0.086082  0  0.967541  0  0  0.092692  0  1.040027  0  0  0.096244  0  1.037354  0  0.077513  0  0.093178  0.090138  0  1.042079  0
H  H38  1  0.55703982  0.02555792  0.17490057  1  0  0.077968  0  0.991423  0  0  0.087168  0  1.061922  0  0  0.09003  0  1.060589  0  0.079782  0  0.086053  0.084925  0  1.063213  0
H  H39  1  0.44296191  0.97443990  0.82509709  1  0  0.078008  0  0.99142  0  0  0.087184  0  1.061933  0  0  0.090046  0  1.060601  0  0.079401  0  0.086063  0.084938  0  1.063227  0
H  H40  1  0.27455927  0.07672028  0.17497271  1  0  0.078601  0  0.987417  0  0  0.087902  0  1.053587  0  0  0.090047  0  1.053626  0  0.054258  0  0.087853  0.086239  0  1.053785  0
H  H41  1  0.72543900  0.92328134  0.82502864  1  0  0.078584  0  0.987432  0  0  0.087869  0  1.053635  0  0  0.090018  0  1.053664  0  0.054438  0  0.08784  0.086206  0  1.053832  0
H  H42  1  0.10658615  0.29080699  0.19547475  1  0  0.084075  0  0.987231  0  0  0.092401  0  1.053849  0  0  0.093738  0  1.0556  0  0.095044  0  0.093386  0.089701  0  1.056206  0
H  H43  1  0.89341719  0.70919273  0.80452941  1  0  0.084154  0  0.987135  0  0  0.092457  0  1.053778  0  0  0.093793  0  1.055528  0  0.094949  0  0.093427  0.089752  0  1.056143  0
H  H44  1  0.21961353  0.45067643  0.22381471  1  0  0.075062  0  0.981138  0  0  0.085734  0  1.044934  0  0  0.087545  0  1.045276  0  0.058212  0  0.092442  0.085319  0  1.042946  0
H  H45  1  0.78039254  0.54932519  0.77618369  1  0  0.075048  0  0.981103  0  0  0.085769  0  1.044855  0  0  0.087552  0  1.045224  0  0.058564  0  0.092441  0.085351  0  1.042867  0
H  H46  1  0.50021445  0.40014556  0.22675326  1  0  0.09113  0  0.967035  0  0  0.099814  0  1.0313  0  0  0.101915  0  1.032023  0  0.072765  0  0.096117  0.097948  0  1.031978  0
H  H47  1  0.49979284  0.59985226  0.77324184  1  0  0.0911  0  0.967123  0  0  0.099799  0  1.031374  0  0  0.101902  0  1.032096  0  0.072711  0  0.096133  0.097935  0  1.032045  0
C  C48  1  0.78909546  0.28753651  0.80903957  1  0  0.111671  0  3.707409  0  0  0.085934  0  3.952689  0  0  0.09169  0  3.968883  0  0.402103  0  0.03544  0.081318  0  3.943973  0
C  C49  1  0.21090433  0.71246036  0.19096188  1  0  0.111862  0  3.707504  0  0  0.08613  0  3.952754  0  0  0.091897  0  3.968957  0  0.402  0  0.03555  0.081515  0  3.944039  0
C  C50  1  0.71517086  0.34657023  0.71602073  1  0  -0.141132  0  3.729172  0  0  -0.16067  0  3.977716  0  0  -0.166633  0  3.996592  0  0.042483  0  -0.078207  -0.157675  0  3.966628  0
C  C51  1  0.28482407  0.65343139  0.28398361  1  0  -0.141224  0  3.729195  0  0  -0.160777  0  3.977745  0  0  -0.166742  0  3.996626  0  0.064071  0  -0.078257  -0.157781  0  3.966656  0
C  C52  1  0.58856977  0.30910985  0.70473937  1  0  0.050758  0  3.750625  0  0  0.063019  0  3.981473  0  0  0.066558  0  4.001577  0  0.01991  0  0.009177  0.060165  0  3.969154  0
C  C53  1  0.41142152  0.69089272  0.29526698  1  0  0.050794  0  3.750688  0  0  0.06303  0  3.981543  0  0  0.066554  0  4.001635  0  -0.001747  0  0.009144  0.06018  0  3.969229  0
C  C54  1  0.54009921  0.21537439  0.79280775  1  0  -0.139521  0  3.696975  0  0  -0.15579  0  3.934442  0  0  -0.162791  0  3.95532  0  0.017811  0  -0.081877  -0.151099  0  3.921137  0
C  C55  1  0.45989461  0.78462723  0.20719758  1  0  -0.139666  0  3.697059  0  0  -0.155929  0  3.934533  0  0  -0.162933  0  3.955408  0  0.018031  0  -0.081931  -0.15124  0  3.921229  0
C  C56  1  0.61885606  0.16261667  0.88438728  1  0  0.125084  0  3.681716  0  0  0.097393  0  3.926743  0  0  0.104508  0  3.941792  0  0.368254  0  0.039672  0.092832  0  3.91849  0
C  C57  1  0.38114059  0.83738305  0.11561642  1  0  0.125154  0  3.681652  0  0  0.097449  0  3.926679  0  0  0.104578  0  3.941729  0  0.368096  0  0.03967  0.092889  0  3.918429  0
C  C58  1  0.51318319  0.36444197  0.60361088  1  0  0.267804  0  3.66203  0  0  0.268527  0  3.923241  0  0  0.27853  0  3.936237  0  0.613759  0  0.148598  0.259776  0  3.916741  0
C  C59  1  0.48681366  0.63556060  0.39639129  1  0  0.267768  0  3.662093  0  0  0.268527  0  3.923248  0  0  0.278583  0  3.93617  0  0.613804  0  0.148595  0.259761  0  3.916769  0
C  C60  1  0.42210040  0.29225040  0.57375559  1  0  -0.379515  0  3.708554  0  0  -0.460788  0  3.943212  0  0  -0.464121  0  3.947883  0  -0.077903  0  -0.239074  -0.457626  0  3.941175  0
C  C61  1  0.57790071  0.70774932  0.42624654  1  0  -0.37948  0  3.708587  0  0  -0.460729  0  3.943228  0  0  -0.464073  0  3.947868  0  -0.077834  0  -0.239009  -0.457556  0  3.94118  0
C  C62  1  0.79647620  0.30852869  0.20483248  1  0  -0.089669  0  3.753202  0  0  -0.046973  0  3.987145  0  0  -0.053082  0  4.012342  0  -0.475193  0  -0.025272  -0.044746  0  3.975012  0
C  C63  1  0.20352572  0.69147198  0.79516364  1  0  -0.089605  0  3.753065  0  0  -0.046971  0  3.987103  0  0  -0.053088  0  4.01231  0  -0.475181  0  -0.025273  -0.044747  0  3.974973  0
C  C64  1  0.80624774  0.32311191  0.31134338  1  0  -0.075543  0  3.741071  0  0  -0.096349  0  3.985157  0  0  -0.09742  0  4.007569  0  -0.058348  0  -0.087344  -0.095438  0  3.970874  0
C  C65  1  0.19375195  0.67688876  0.68865313  1  0  -0.075594  0  3.741054  0  0  -0.096401  0  3.985147  0  0  -0.097477  0  4.007568  0  -0.058178  0  -0.087338  -0.095491  0  3.970865  0
C  C66  1  0.83724411  0.43219978  0.32163085  1  0  -0.074009  0  3.783249  0  0  -0.085988  0  4.032912  0  0  -0.08897  0  4.05545  0  -0.045305  0  -0.093983  -0.082843  0  4.015028  0
C  C67  1  0.16275619  0.56779899  0.67836763  1  0  -0.073981  0  3.78327  0  0  -0.085983  0  4.032945  0  0  -0.088956  0  4.055489  0  -0.045302  0  -0.093949  -0.082837  0  4.015062  0
C  C68  1  0.85631607  0.52811461  0.22613835  1  0  -0.072921  0  3.775644  0  0  -0.084666  0  4.019417  0  0  -0.086749  0  4.042043  0  -0.096649  0  -0.094445  -0.082116  0  4.001332  0
C  C69  1  0.14368282  0.47188511  0.77385853  1  0  -0.07273  0  3.775558  0  0  -0.084456  0  4.019282  0  0  -0.086537  0  4.041906  0  -0.096757  0  -0.094379  -0.081905  0  4.001196  0
C  C70  1  0.84492673  0.51501373  0.11988154  1  0  -0.068028  0  3.763344  0  0  -0.076613  0  4.002162  0  0  -0.079247  0  4.024695  0  -0.014889  0  -0.092425  -0.07413  0  3.984633  0
C  C71  1  0.15507326  0.48498599  0.88011353  1  0  -0.068272  0  3.763352  0  0  -0.07684  0  4.002216  0  0  -0.079464  0  4.024741  0  -0.014615  0  -0.09253  -0.074355  0  3.984688  0
C  C72  1  0.81679587  0.40511109  0.10899971  1  0  -0.07691  0  3.750421  0  0  -0.095108  0  3.990178  0  0  -0.09587  0  4.010354  0  -0.077842  0  -0.084734  -0.094405  0  3.977198  0
C  C73  1  0.18320747  0.59488863  0.89099560  1  0  -0.076853  0  3.750328  0  0  -0.095026  0  3.990082  0  0  -0.095787  0  4.010254  0  -0.078244  0  -0.084699  -0.094323  0  3.977103  0
C  C74  1  0.80515240  0.05010829  0.31318346  1  0  -0.08919  0  3.763524  0  0  -0.04624  0  3.995207  0  0  -0.052663  0  4.021258  0  -0.477538  0  -0.027972  -0.042343  0  3.977647  0
C  C75  1  0.19485063  0.94989238  0.68681489  1  0  -0.089098  0  3.76352  0  0  -0.046133  0  3.995196  0  0  -0.052541  0  4.021195  0  -0.477536  0  -0.027934  -0.042237  0  3.977639  0
C  C76  1  0.69628700  0.03190039  0.41141462  1  0  -0.08665  0  3.760595  0  0  -0.105797  0  3.999275  0  0  -0.107323  0  4.022328  0  -0.091789  0  -0.091862  -0.104058  0  3.982989  0
C  C77  1  0.30371320  0.96810218  0.58858295  1  0  -0.086697  0  3.760772  0  0  -0.105833  0  3.999413  0  0  -0.107356  0  4.022472  0  -0.091801  0  -0.091843  -0.104094  0  3.983125  0
C  C78  1  0.74085662  0.94238568  0.50783208  1  0  -0.078189  0  3.777662  0  0  -0.085843  0  4.018323  0  0  -0.08888  0  4.040758  0  -0.013399  0  -0.096068  -0.083449  0  4.00241  0
C  C79  1  0.25914247  0.05761689  0.49216568  1  0  -0.078139  0  3.777706  0  0  -0.085756  0  4.018366  0  0  -0.088794  0  4.040804  0  -0.013368  0  -0.096056  -0.083362  0  4.002452  0
C  C80  1  0.89452263  0.87154731  0.50734864  1  0  -0.063085  0  3.767286  0  0  -0.074597  0  4.007496  0  0  -0.075647  0  4.029223  0  -0.008485  0  -0.091655  -0.073492  0  3.991653  0
C  C81  1  0.10547423  0.12845525  0.49265191  1  0  -0.063143  0  3.767399  0  0  -0.074659  0  4.007591  0  0  -0.075709  0  4.029324  0  -0.008491  0  -0.091683  -0.073551  0  3.991746  0
C  C82  1  0.00350730  0.88992140  0.40989367  1  0  -0.070822  0  3.7776  0  0  -0.081275  0  4.020091  0  0  -0.084488  0  4.043633  0  -0.038552  0  -0.094447  -0.078648  0  4.003653  0
C  C83  1  0.99649209  0.11008022  0.59010829  1  0  -0.070774  0  3.777604  0  0  -0.081221  0  4.020094  0  0  -0.084439  0  4.043643  0  -0.038565  0  -0.094437  -0.078594  0  4.003657  0
C  C84  1  0.95913676  0.97763821  0.31272122  1  0  -0.070578  0  3.73929  0  0  -0.090276  0  3.982173  0  0  -0.091372  0  4.004236  0  -0.089623  0  -0.086158  -0.0897  0  3.967784  0
C  C85  1  0.04086658  0.02236151  0.68727892  1  0  -0.070691  0  3.739275  0  0  -0.090426  0  3.982198  0  0  -0.091525  0  4.004268  0  -0.089573  0  -0.086235  -0.089851  0  3.96781  0
C  C86  1  0.54781197  0.20923228  0.20053224  1  0  -0.088326  0  3.746435  0  0  -0.046885  0  3.982604  0  0  -0.05247  0  4.007401  0  -0.52626  0  -0.028735  -0.043045  0  3.96598  0
C  C87  1  0.45219310  0.79076554  0.79946404  1  0  -0.088285  0  3.746373  0  0  -0.04694  0  3.982655  0  0  -0.052532  0  4.007453  0  -0.526359  0  -0.028782  -0.043101  0  3.966032  0
C  C88  1  0.48206766  0.11835896  0.18709920  1  0  -0.093298  0  3.761989  0  0  -0.110774  0  4.003095  0  0  -0.112569  0  4.024562  0  -0.13359  0  -0.094377  -0.109461  0  3.988742  0
C  C89  1  0.51793487  0.88163981  0.81289889  1  0  -0.093373  0  3.761934  0  0  -0.110788  0  4.003051  0  0  -0.112583  0  4.024521  0  -0.133043  0  -0.094399  -0.109471  0  3.988701  0
C  C90  1  0.32407298  0.14704680  0.18686743  1  0  -0.072476  0  3.783234  0  0  -0.082388  0  4.025867  0  0  -0.08475  0  4.047225  0  -0.009733  0  -0.097061  -0.080939  0  4.011891  0
C  C91  1  0.67592813  0.85295292  0.81313309  1  0  -0.072493  0  3.783295  0  0  -0.082406  0  4.025922  0  0  -0.084767  0  4.047279  0  -0.009932  0  -0.097043  -0.080955  0  4.011944  0
C  C92  1  0.22948217  0.26737336  0.19863484  1  0  -0.063409  0  3.759147  0  0  -0.075545  0  3.999859  0  0  -0.075896  0  4.02052  0  -0.041004  0  -0.092488  -0.07488  0  3.987477  0
C  C93  1  0.77052036  0.73262541  0.80136809  1  0  -0.063391  0  3.759126  0  0  -0.07549  0  3.999819  0  0  -0.075839  0  4.020468  0  -0.047105  0  -0.092506  -0.074827  0  3.987436  0
C  C94  1  0.29349893  0.35720970  0.21365521  1  0  -0.076187  0  3.784987  0  0  -0.083538  0  4.02399  0  0  -0.086557  0  4.046482  0  -0.080677  0  -0.094879  -0.081949  0  4.007636  0
C  C95  1  0.70650664  0.64279001  0.78634535  1  0  -0.076188  0  3.784945  0  0  -0.083575  0  4.023941  0  0  -0.086572  0  4.046445  0  -0.074914  0  -0.094864  -0.081982  0  4.007584  0
C  C96  1  0.45185955  0.32880864  0.21509353  1  0  -0.081585  0  3.745766  0  0  -0.09942  0  3.981156  0  0  -0.101011  0  4.004413  0  -0.005409  0  -0.091917  -0.098123  0  3.966281  0
C  C97  1  0.54814551  0.67118917  0.78490356  1  0  -0.081583  0  3.745733  0  0  -0.099416  0  3.981182  0  0  -0.101007  0  4.004436  0  -0.005389  0  -0.091911  -0.098116  0  3.966307  0
I  I98  1  0.85514365  0.86588856  0.05716396  1  0  -0.442175  0  1.441811  0  0  -0.395872  0  1.848355  0  0  -0.412623  0  1.818292  0  -0.495668  0  -0.204283  -0.380819  0  1.86813  0
I  I99  1  0.14485980  0.13410736  0.94283950  1  0  -0.442197  0  1.441755  0  0  -0.395876  0  1.848268  0  0  -0.412629  0  1.818212  0  -0.495689  0  -0.204283  -0.380826  0  1.868041  0
N  N100  1  0.74435960  0.19503840  0.89237200  1  0  -0.248787  0  3.353616  0  0  -0.176131  0  3.632688  0  0  -0.185513  0  3.640928  0  -1.230393  0  -0.358765  -0.170992  0  3.628025  0
N  N101  1  0.25564070  0.80496037  0.10762809  1  0  -0.24895  0  3.353779  0  0  -0.176264  0  3.632827  0  0  -0.185678  0  3.641085  0  -1.230361  0  -0.358818  -0.171126  0  3.628165  0
N  N102  1  0.53581888  0.47408631  0.54679316  1  0  -0.248325  0  3.051701  0  0  -0.224798  0  3.338184  0  0  -0.234282  0  3.354366  0  -0.775422  0  -0.208531  -0.219165  0  3.329273  0
N  N103  1  0.46417656  0.52591720  0.45321063  1  0  -0.248425  0  3.051808  0  0  -0.224919  0  3.338301  0  0  -0.234414  0  3.354452  0  -0.754868  0  -0.208574  -0.219282  0  3.329397  0
