# generated using pymatgen
data_CuH11C17SN2O7
_symmetry_space_group_name_H-M   'P 1'
_cell_length_a   9.16399516
_cell_length_b   10.70610907
_cell_length_c   10.56753692
_cell_angle_alpha   88.31378143
_cell_angle_beta   102.22877944
_cell_angle_gamma   114.33868312
_symmetry_Int_Tables_number   1
_chemical_formula_structural   CuH11C17SN2O7
_chemical_formula_sum   'Cu2 H22 C34 S2 N4 O14'
_cell_volume   921.25838848
_cell_formula_units_Z   2
loop_
 _symmetry_equiv_pos_site_id
 _symmetry_equiv_pos_as_xyz
  1  'x, y, z'
loop_
 _atom_site_type_symbol
 _atom_site_label
 _atom_site_symmetry_multiplicity
 _atom_site_fract_x
 _atom_site_fract_y
 _atom_site_fract_z
 _atom_site_occupancy
 _atom_site_pbe_cm5_charge
 _atom_site_pbe_ddec_charge
 _atom_site_pbe_ddec_spin_density
 _atom_site_pbe_ddec_sum_bond_order
 _atom_site_pbe_magmom
Cu  Cu0  1  0.86993320  0.84320643  0.55084164  1  0.756276  0.8041  -0.729296  2.207174  -0.567
Cu  Cu1  1  0.13006074  0.15679951  0.44915305  1  0.75631  0.80413  -0.729283  2.20718  -0.567
H  H2  1  0.84402389  0.87910057  0.04261328  1  0.108982  0.117717  -1.2e-05  1.012338  0.0
H  H3  1  0.15598067  0.12090975  0.95737808  1  0.109  0.117758  -1.2e-05  1.012217  0.0
H  H4  1  0.57629606  0.87499194  0.06651269  1  0.107915  0.11993  1.9e-05  1.016256  0.0
H  H5  1  0.42371097  0.12501271  0.93348715  1  0.107893  0.119914  1.9e-05  1.016299  0.0
H  H6  1  0.33912487  0.79966932  0.87836826  1  0.112222  0.120188  -0.000255  0.983069  0.0
H  H7  1  0.66086865  0.20031521  0.12163936  1  0.112255  0.120184  -0.000255  0.983148  0.0
H  H8  1  0.37132464  0.74299596  0.66378629  1  0.109306  0.120964  4.9e-05  1.018153  0.0
H  H9  1  0.62866481  0.25698772  0.33621799  1  0.109324  0.120974  4.9e-05  1.018135  0.0
H  H10  1  0.40626690  0.62486858  0.52802906  1  0.136604  0.120188  -0.002574  0.954203  -0.003
H  H11  1  0.59372548  0.37511546  0.47196985  1  0.136608  0.12019  -0.002573  0.954289  -0.003
H  H12  1  0.91146615  0.77336095  0.28392198  1  0.127252  0.106364  -0.001399  1.018958  -0.002
H  H13  1  0.08854161  0.22664256  0.71607979  1  0.12727  0.106446  -0.0014  1.018886  -0.002
H  H14  1  0.72397747  0.60417834  0.10024003  1  0.117127  0.119952  -0.000697  0.989644  -0.001
H  H15  1  0.27603424  0.39582956  0.89975767  1  0.117135  0.119907  -0.000697  0.98971  -0.001
H  H16  1  0.42309072  0.47753552  0.10448878  1  0.112376  0.105174  -4.9e-05  1.003635  0.0
H  H17  1  0.57692156  0.52247285  0.89550139  1  0.112342  0.105154  -4.9e-05  1.00352  0.0
H  H18  1  0.32708700  0.51776737  0.29611774  1  0.120761  0.151169  -0.000799  0.997564  -0.001
H  H19  1  0.67291964  0.48223165  0.70387316  1  0.120788  0.15119  -0.000798  0.99748  -0.001
H  H20  1  0.36423012  0.01316869  0.67520815  1  0.114188  0.127459  -6e-05  0.988027  0.0
H  H21  1  0.63576828  0.98683032  0.32479898  1  0.114164  0.127436  -6e-05  0.988148  0.0
H  H22  1  0.12475234  0.82967400  0.11727662  1  0.318776  0.388443  -0.000279  0.923895  0.0
H  H23  1  0.87525783  0.17032883  0.88271965  1  0.318779  0.388399  -0.000279  0.923938  0.0
C  C24  1  0.75783939  0.81215716  0.84105927  1  -0.018093  -0.167678  -0.002177  3.946229  -0.003
C  C25  1  0.24215900  0.18784678  0.15893483  1  -0.018105  -0.167515  -0.002177  3.946323  -0.003
C  C26  1  0.73958092  0.84762087  0.96048173  1  -0.085479  -0.08796  0.001341  4.014305  0.001
C  C27  1  0.26042346  0.15238813  0.03951428  1  -0.085465  -0.088087  0.001341  4.01428  0.001
C  C28  1  0.59010381  0.84542248  0.97367914  1  -0.075489  -0.052291  -0.003387  3.932785  -0.003
C  C29  1  0.40989619  0.15457706  0.02631963  1  -0.07548  -0.052245  -0.003385  3.932711  -0.003
C  C30  1  0.45659193  0.80337282  0.86760539  1  -0.077193  -0.053901  0.000943  3.954273  0.0
C  C31  1  0.54340813  0.19661724  0.13239663  1  -0.077241  -0.053883  0.000943  3.954299  0.0
C  C32  1  0.47449290  0.77011069  0.74701991  1  -0.08426  -0.157153  -0.005277  3.941259  -0.005
C  C33  1  0.52550213  0.22988041  0.25298162  1  -0.0842  -0.157123  -0.005275  3.941342  -0.005
C  C34  1  0.62633770  0.77745017  0.73147825  1  0.088293  0.18576  -0.000647  4.042762  0.0
C  C35  1  0.37365668  0.22254744  0.26851789  1  0.088272  0.185733  -0.000648  4.042709  0.0
C  C36  1  0.53288022  0.67866916  0.51610996  1  0.088273  0.060169  0.006973  3.888843  0.004
C  C37  1  0.46711484  0.32132337  0.48388500  1  0.088333  0.060263  0.006972  3.888887  0.004
C  C38  1  0.57113260  0.66081913  0.39381226  1  0.109951  0.172108  -0.00148  4.052707  -0.002
C  C39  1  0.42886859  0.33917635  0.60618545  1  0.109881  0.171913  -0.00148  4.052818  -0.002
C  C40  1  0.78247289  0.71365007  0.28388842  1  0.072438  0.136811  0.003192  3.865208  0.002
C  C41  1  0.21753702  0.28635349  0.71611263  1  0.072404  0.136571  0.003191  3.865216  0.002
C  C42  1  0.67515214  0.62010868  0.18070887  1  -0.06212  -0.103793  -0.00353  3.913974  -0.004
C  C43  1  0.32485593  0.37989802  0.81929121  1  -0.062141  -0.10367  -0.00353  3.913909  -0.004
C  C44  1  0.51018156  0.54976003  0.18385703  1  -0.0533  -0.005319  0.004598  3.922866  0.002
C  C45  1  0.48982834  0.45024104  0.81613435  1  -0.053218  -0.005271  0.004597  3.922774  0.002
C  C46  1  0.45587222  0.57155206  0.29147091  1  -0.059869  -0.121462  -0.001315  3.87051  -0.002
C  C47  1  0.54413640  0.42844570  0.70852394  1  -0.059888  -0.121417  -0.001315  3.870421  -0.002
C  C48  1  0.15209555  0.84707314  0.48145064  1  0.201497  0.569668  0.000505  4.243606  0.002
C  C49  1  0.84789889  0.15294630  0.51855920  1  0.201462  0.569425  0.000502  4.244223  0.002
C  C50  1  0.32954021  0.93073198  0.48224281  1  -0.006738  -0.031658  -0.00975  3.94864  -0.011
C  C51  1  0.67045664  0.06927337  0.51776168  1  -0.006679  -0.031396  -0.009744  3.948304  -0.011
C  C52  1  0.40547496  0.92260185  0.38224822  1  -0.009417  -0.05475  -0.001882  3.957179  -0.002
C  C53  1  0.59451886  0.07739728  0.61775652  1  -0.009406  -0.054913  -0.001885  3.957313  -0.002
C  C54  1  0.31612725  0.85517833  0.24976293  1  0.234612  0.584494  -0.000193  4.11015  0.0
C  C55  1  0.68387428  0.14482085  0.75024169  1  0.234712  0.584637  -0.000193  4.11004  0.0
C  C56  1  0.42401670  0.00900236  0.59750703  1  -0.078876  -0.131066  -0.00225  3.970965  -0.002
C  C57  1  0.57597955  0.99099260  0.40249868  1  -0.078807  -0.131098  -0.002252  3.970876  -0.002
S  S58  1  0.94345539  0.79989229  0.82999631  1  0.504406  1.158621  -0.00177  6.204612  0.0
S  S59  1  0.05654271  0.20010646  0.16999840  1  0.504205  1.158075  -0.00177  6.205056  0.0
N  N60  1  0.73129054  0.73209691  0.38821276  1  -0.337671  -0.263063  -0.062352  3.589166  -0.082
N  N61  1  0.26871197  0.26790039  0.61178901  1  -0.337654  -0.262943  -0.062349  3.589092  -0.082
N  N62  1  0.65231112  0.75465888  0.60929879  1  -0.329553  -0.278149  -0.055076  3.632078  -0.072
N  N63  1  0.34767994  0.24533674  0.39069592  1  -0.329643  -0.278235  -0.055063  3.632123  -0.072
O  O64  1  0.89749231  0.65824077  0.78760385  1  -0.336702  -0.577142  -0.000396  2.158637  -0.001
O  O65  1  0.10249673  0.34175667  0.21239456  1  -0.336761  -0.577029  -0.000395  2.1587  -0.001
O  O66  1  0.05544748  0.84741839  0.95667177  1  -0.323904  -0.57781  -0.00944  2.26266  -0.013
O  O67  1  0.94454899  0.15257934  0.04332270  1  -0.323676  -0.577558  -0.00944  2.262651  -0.013
O  O68  1  0.07203551  0.92287470  0.48568434  1  -0.329815  -0.553198  -0.074264  2.466001  -0.106
O  O69  1  0.92796125  0.07713962  0.51430831  1  -0.329824  -0.553133  -0.074278  2.465919  -0.106
O  O70  1  0.09812379  0.72080106  0.48571023  1  -0.313105  -0.513036  -0.00338  2.04592  -0.006
O  O71  1  0.90187325  0.27921165  0.51432517  1  -0.313124  -0.512978  -0.003375  2.046414  -0.006
O  O72  1  0.16575421  0.85363829  0.21303666  1  -0.324778  -0.475898  -0.000362  2.293176  -0.001
O  O73  1  0.83424491  0.14635708  0.78696272  1  -0.324839  -0.475922  -0.000362  2.293218  -0.001
O  O74  1  0.37924757  0.81323409  0.17943137  1  -0.281143  -0.488359  -0.000721  2.152624  -0.001
O  O75  1  0.62075859  0.18676690  0.82057767  1  -0.28115  -0.488384  -0.000721  2.152715  -0.001
O  O76  1  0.00896560  0.89983318  0.73109688  1  -0.353801  -0.575608  -0.042556  2.297449  -0.059
O  O77  1  0.99102880  0.10016045  0.26889712  1  -0.353783  -0.575487  -0.042565  2.297465  -0.059
