# generated using pymatgen
data_CdH14C17O10
_symmetry_space_group_name_H-M   'P 1'
_cell_length_a   7.67491196
_cell_length_b   11.34575066
_cell_length_c   22.54321978
_cell_angle_alpha   90.00027460
_cell_angle_beta   89.99977333
_cell_angle_gamma   109.75893223
_symmetry_Int_Tables_number   1
_chemical_formula_structural   CdH14C17O10
_chemical_formula_sum   'Cd4 H56 C68 O40'
_cell_volume   1847.43479610
_cell_formula_units_Z   4
loop_
 _symmetry_equiv_pos_site_id
 _symmetry_equiv_pos_as_xyz
  1  'x, y, z'
loop_
 _atom_site_type_symbol
 _atom_site_label
 _atom_site_symmetry_multiplicity
 _atom_site_fract_x
 _atom_site_fract_y
 _atom_site_fract_z
 _atom_site_occupancy
 _atom_site_pbe_bader_charge
 _atom_site_pbe_bader_spin_density
 _atom_site_pbe_cm5_charge
 _atom_site_pbe_ddec_charge
 _atom_site_pbe_ddec_spin_density
 _atom_site_pbe_ddec_sum_bond_order
 _atom_site_pbe_magmom
Cd  Cd0  1  0.90712770  0.00000874  0.41975929  1  1.33645  0  0.764846  1.044069  0  1.981284  0
Cd  Cd1  1  0.09287717  0.99999319  0.91975841  1  1.336504  0  0.764834  1.044034  0  1.981315  0
Cd  Cd2  1  0.90712804  0.00000556  0.08024124  1  1.336363  0  0.764834  1.044039  0  1.981369  0
Cd  Cd3  1  0.09287407  0.99999094  0.58024258  1  1.336478  0  0.764813  1.04399  0  1.981389  0
H  H4  1  0.04138132  0.47318904  0.24999944  1  0.062317  0  0.094409  0.101206  0  1.047219  0
H  H5  1  0.95861989  0.52680690  0.75000021  1  0.062288  0  0.094433  0.101195  0  1.047267  0
H  H6  1  0.56838578  0.52662594  0.24999870  1  0.059897  0  0.094074  0.100655  0  1.046502  0
H  H7  1  0.43161162  0.47337281  0.74999962  1  0.059857  0  0.094073  0.100667  0  1.046527  0
H  H8  1  0.87281750  0.32285554  0.25000002  1  0.035769  0  0.105141  0.118906  0  0.963885  0
H  H9  1  0.12718204  0.67714227  0.75000052  1  0.035786  0  0.105152  0.118924  0  0.963873  0
H  H10  1  0.55017709  0.67701662  0.24999978  1  0.051159  0  0.104637  0.118447  0  0.963635  0
H  H11  1  0.44982041  0.32298493  0.75000031  1  0.051164  0  0.104629  0.118452  0  0.963581  0
H  H12  1  0.62560414  0.54093176  0.45554429  1  0.148104  0  0.112732  0.120194  0  1.054992  0
H  H13  1  0.37438640  0.45906576  0.95554393  1  0.148126  0  0.112706  0.120169  0  1.054916  0
H  H14  1  0.08503342  0.45908182  0.04444579  1  0.131221  0  0.112428  0.119721  0  1.054638  0
H  H15  1  0.91497047  0.54092002  0.54444843  1  0.130939  0  0.112431  0.119754  0  1.054524  0
H  H16  1  0.37438487  0.45906324  0.54445536  1  0.148104  0  0.112762  0.120184  0  1.055003  0
H  H17  1  0.62561043  0.54092924  0.04445617  1  0.148146  0  0.112722  0.120179  0  1.054983  0
H  H18  1  0.91496762  0.54092161  0.95555342  1  0.130912  0  0.112436  0.119762  0  1.054591  0
H  H19  1  0.08503579  0.45908341  0.45555433  1  0.131252  0  0.112436  0.119738  0  1.054635  0
H  H20  1  0.94180319  0.65799632  0.29633937  1  0.123626  0  0.110373  0.118188  0  1.004053  0
H  H21  1  0.05820689  0.34200278  0.79633605  1  0.114766  0  0.110421  0.118236  0  1.004136  0
H  H22  1  0.28371679  0.34186796  0.20369295  1  0.114206  0  0.110505  0.118086  0  1.005414  0
H  H23  1  0.71627314  0.65813043  0.70369349  1  0.105476  0  0.110453  0.11802  0  1.005515  0
H  H24  1  0.05820119  0.34200336  0.70366295  1  0.123598  0  0.110413  0.118225  0  1.004085  0
H  H25  1  0.94179823  0.65799316  0.20366228  1  0.114835  0  0.110388  0.118182  0  1.004114  0
H  H26  1  0.71627373  0.65813266  0.79630803  1  0.11416  0  0.110486  0.118054  0  1.005489  0
H  H27  1  0.28371680  0.34186644  0.29630616  1  0.105418  0  0.110494  0.118061  0  1.005463  0
H  H28  1  0.66990276  0.26402412  0.33242797  1  0.077573  0  0.112989  0.121137  0  0.985796  0
H  H29  1  0.33008703  0.73597433  0.83243189  1  0.077421  0  0.112969  0.121136  0  0.985719  0
H  H30  1  0.40640085  0.73587600  0.16753125  1  0.074671  0  0.113488  0.121835  0  0.985099  0
H  H31  1  0.59360556  0.26412586  0.66753144  1  0.074741  0  0.113467  0.121835  0  0.985141  0
H  H32  1  0.33009203  0.73597463  0.66756902  1  0.077586  0  0.112975  0.121119  0  0.98574  0
H  H33  1  0.66990505  0.26402161  0.16756998  1  0.077535  0  0.112978  0.121098  0  0.985819  0
H  H34  1  0.59359926  0.26412556  0.83246751  1  0.074653  0  0.113466  0.121805  0  0.985133  0
H  H35  1  0.40639976  0.73587570  0.33246688  1  0.074669  0  0.113477  0.121836  0  0.985071  0
H  H36  1  0.36373154  0.28288245  0.51385837  1  0.669722  0  0.304213  0.374398  0  0.974635  0
H  H37  1  0.63626763  0.71711447  0.01386048  1  0.669064  0  0.304161  0.374326  0  0.974738  0
H  H38  1  0.08093585  0.71723173  0.98621486  1  0.673464  0  0.304156  0.374504  0  0.97446  0
H  H39  1  0.91907505  0.28277071  0.48621508  1  0.673466  0  0.304175  0.3745  0  0.974447  0
H  H40  1  0.63626101  0.71711442  0.48613907  1  0.669186  0  0.304171  0.374325  0  0.974735  0
H  H41  1  0.36373060  0.28288334  0.98614095  1  0.669694  0  0.304169  0.374356  0  0.974695  0
H  H42  1  0.91906119  0.28276889  0.01378523  1  0.673495  0  0.304162  0.374494  0  0.974465  0
H  H43  1  0.08094481  0.71723647  0.51378723  1  0.673156  0  0.30413  0.374466  0  0.974507  0
H  H44  1  0.28985010  0.07373416  0.45995460  1  0.630186  0  0.293204  0.384834  0  0.951233  0
H  H45  1  0.71015307  0.92626527  0.95995402  1  0.63018  0  0.293215  0.384816  0  0.951263  0
H  H46  1  0.21617764  0.92625795  0.04008310  1  0.635769  0  0.293616  0.38559  0  0.950038  0
H  H47  1  0.78382759  0.07374385  0.54008300  1  0.635741  0  0.293638  0.385585  0  0.950057  0
H  H48  1  0.71015167  0.92626552  0.54004550  1  0.630184  0  0.29322  0.384823  0  0.951252  0
H  H49  1  0.28985392  0.07373441  0.04004519  1  0.654203  0  0.293287  0.38503  0  0.950989  0
H  H50  1  0.78382591  0.07374266  0.95991789  1  0.635754  0  0.293633  0.385588  0  0.950055  0
H  H51  1  0.21617867  0.92625957  0.45991665  1  0.635774  0  0.293611  0.385574  0  0.950071  0
H  H52  1  0.51334834  0.92645467  0.40052741  1  0.631175  0  0.293816  0.393526  0  0.935199  0
H  H53  1  0.48665444  0.07354523  0.90052684  1  0.631157  0  0.293826  0.393474  0  0.935261  0
H  H54  1  0.58701713  0.07378761  0.09941672  1  0.634199  0  0.293337  0.392578  0  0.936774  0
H  H55  1  0.41298978  0.92621372  0.59941921  1  0.634295  0  0.293358  0.392586  0  0.936728  0
H  H56  1  0.48665791  0.07354875  0.59947224  1  0.631036  0  0.293802  0.393447  0  0.935283  0
H  H57  1  0.51334770  0.92645257  0.09947148  1  0.631105  0  0.293812  0.393501  0  0.935214  0
H  H58  1  0.41298938  0.92621113  0.90058160  1  0.634273  0  0.293339  0.392557  0  0.936779  0
H  H59  1  0.58701564  0.07379065  0.40058133  1  0.634192  0  0.293329  0.39254  0  0.936822  0
C  C60  1  0.89145166  0.42318957  0.24999968  1  -0.008058  0  -0.156791  -0.257248  0  3.9578  0
C  C61  1  0.10854751  0.57681012  0.75000086  1  -0.007996  0  -0.156789  -0.257148  0  3.957621  0
C  C62  1  0.46846804  0.57666325  0.24999883  1  -0.017605  0  -0.155141  -0.255177  0  3.954219  0
C  C63  1  0.53153029  0.42333737  0.74999949  1  -0.017637  0  -0.15512  -0.255172  0  3.954289  0
C  C64  1  0.81409026  0.45631330  0.30698054  1  -0.02474  0  -0.004509  0.120211  0  3.951065  0
C  C65  1  0.18591490  0.54368401  0.80698242  1  -0.024924  0  -0.004603  0.120024  0  3.951098  0
C  C66  1  0.35792273  0.54353757  0.19303362  1  -0.021116  0  -0.004704  0.120615  0  3.950109  0
C  C67  1  0.64207129  0.45646354  0.69303510  1  -0.021109  0  -0.004752  0.120584  0  3.950325  0
C  C68  1  0.18591413  0.54368638  0.69301822  1  -0.024946  0  -0.004568  0.12007  0  3.951192  0
C  C69  1  0.81408631  0.45631192  0.19301901  1  -0.024948  0  -0.004557  0.120071  0  3.951153  0
C  C70  1  0.64207216  0.45646398  0.80696514  1  -0.021321  0  -0.00474  0.120584  0  3.950151  0
C  C71  1  0.35792350  0.54353520  0.30696455  1  -0.021108  0  -0.004751  0.120547  0  3.950345  0
C  C72  1  0.67947610  0.51921968  0.41409141  1  -0.071157  0  -0.073436  -0.094908  0  3.910207  0
C  C73  1  0.32051960  0.48077940  0.91408940  1  -0.071193  0  -0.073416  -0.094905  0  3.910404  0
C  C74  1  0.16054170  0.48079962  0.08590923  1  -0.053923  0  -0.073053  -0.094358  0  3.909278  0
C  C75  1  0.83945443  0.51920067  0.58591103  1  -0.05367  0  -0.073142  -0.094435  0  3.909244  0
C  C76  1  0.32051646  0.48077720  0.58590913  1  -0.071024  0  -0.073483  -0.095019  0  3.910446  0
C  C77  1  0.67947733  0.51921841  0.08590892  1  -0.071161  0  -0.073404  -0.094817  0  3.910059  0
C  C78  1  0.83946064  0.51920381  0.91408998  1  -0.053626  0  -0.073077  -0.094388  0  3.909166  0
C  C79  1  0.16054605  0.48079901  0.41409083  1  -0.053995  0  -0.073072  -0.094383  0  3.909329  0
C  C80  1  0.82669945  0.74929032  0.39138454  1  1.542136  0  0.203736  0.567339  0  4.182741  0
C  C81  1  0.17330283  0.25070577  0.89138261  1  1.541953  0  0.203724  0.567326  0  4.182641  0
C  C82  1  0.07752142  0.25067240  0.10859521  1  1.504496  0  0.203533  0.566629  0  4.182035  0
C  C83  1  0.92247631  0.74932900  0.60859746  1  1.504857  0  0.203518  0.566669  0  4.182069  0
C  C84  1  0.17330092  0.25070656  0.60861644  1  1.541956  0  0.203648  0.56728  0  4.182661  0
C  C85  1  0.82669838  0.74929016  0.10861615  1  1.542311  0  0.203699  0.567383  0  4.182643  0
C  C86  1  0.92247525  0.74933009  0.89140311  1  1.504408  0  0.203527  0.566693  0  4.182092  0
C  C87  1  0.07752082  0.25067443  0.39140397  1  1.504376  0  0.203563  0.566667  0  4.182053  0
C  C88  1  0.51907654  0.29583317  0.43857178  1  1.532655  0  0.240506  0.596039  0  4.108772  0
C  C89  1  0.48091797  0.70417453  0.93857275  1  1.53281  0  0.240484  0.596039  0  4.109008  0
C  C90  1  0.22357839  0.70423268  0.06144800  1  1.522156  0  0.240796  0.597224  0  4.108819  0
C  C91  1  0.77643329  0.29577211  0.56144979  1  1.522172  0  0.240828  0.597206  0  4.108695  0
C  C92  1  0.48091241  0.70417214  0.56142698  1  1.532986  0  0.240439  0.59593  0  4.108956  0
C  C93  1  0.51907973  0.29583265  0.06142690  1  1.532739  0  0.240539  0.59607  0  4.108617  0
C  C94  1  0.77642770  0.29577824  0.93855298  1  1.521988  0  0.240723  0.597136  0  4.108683  0
C  C95  1  0.22357547  0.70422851  0.43855296  1  1.522084  0  0.240744  0.597145  0  4.108804  0
C  C96  1  0.85491536  0.58177003  0.32382964  1  -0.038005  0  -0.06859  -0.126614  0  3.894055  0
C  C97  1  0.14507664  0.41822741  0.82383082  1  -0.037667  0  -0.068607  -0.126636  0  3.894148  0
C  C98  1  0.27325794  0.41810801  0.17616726  1  -0.053618  0  -0.069101  -0.126916  0  3.896823  0
C  C99  1  0.72673564  0.58188923  0.67616937  1  -0.053683  0  -0.069012  -0.126775  0  3.896959  0
C  C100  1  0.14507860  0.41822965  0.67617001  1  -0.037673  0  -0.068623  -0.126636  0  3.894168  0
C  C101  1  0.85491498  0.58176759  0.17616972  1  -0.037668  0  -0.068565  -0.126496  0  3.894169  0
C  C102  1  0.72673696  0.58189355  0.82383239  1  -0.053524  0  -0.069096  -0.126898  0  3.896872  0
C  C103  1  0.27325868  0.41810858  0.32383073  1  -0.053734  0  -0.069061  -0.126861  0  3.896912  0
C  C104  1  0.78549025  0.61399976  0.37654314  1  0.006371  0  -0.017498  -0.034921  0  3.991769  0
C  C105  1  0.21451616  0.38599902  0.87654326  1  0.006061  0  -0.017503  -0.034864  0  3.991769  0
C  C106  1  0.17165477  0.38595205  0.12343569  1  0.049008  0  -0.017305  -0.035228  0  3.991947  0
C  C107  1  0.82833977  0.61404853  0.62343685  1  0.048817  0  -0.017286  -0.035396  0  3.992057  0
C  C108  1  0.21451106  0.38599898  0.62345696  1  0.006102  0  -0.017486  -0.034848  0  3.991703  0
C  C109  1  0.78548906  0.61399972  0.12345773  1  0.006068  0  -0.017512  -0.035028  0  3.991788  0
C  C110  1  0.82834143  0.61404951  0.87656396  1  0.048902  0  -0.017274  -0.035304  0  3.992004  0
C  C111  1  0.17165512  0.38595303  0.37656413  1  0.049053  0  -0.017281  -0.035227  0  3.991913  0
C  C112  1  0.63885417  0.39361683  0.39836771  1  -0.006996  0  -0.019636  -0.051585  0  4.01406  0
C  C113  1  0.36113764  0.60637932  0.89837172  1  -0.007368  0  -0.019642  -0.051604  0  4.014132  0
C  C114  1  0.24550884  0.60637526  0.10163778  1  0.009122  0  -0.019219  -0.052035  0  4.013901  0
C  C115  1  0.75449462  0.39362702  0.60163762  1  0.00918  0  -0.019154  -0.051837  0  4.013621  0
C  C116  1  0.36113568  0.60637723  0.60162972  1  -0.007525  0  -0.019577  -0.051456  0  4.014122  0
C  C117  1  0.63886096  0.39361662  0.10163104  1  -0.007243  0  -0.019669  -0.05166  0  4.014082  0
C  C118  1  0.75448902  0.39362442  0.89836054  1  0.008646  0  -0.019218  -0.051988  0  4.013946  0
C  C119  1  0.24551164  0.60637641  0.39836248  1  0.009224  0  -0.019267  -0.052022  0  4.013878  0
C  C120  1  0.70445311  0.36233701  0.34466190  1  -0.019687  0  -0.069907  -0.129134  0  3.895439  0
C  C121  1  0.29555484  0.63766153  0.84466164  1  -0.019115  0  -0.069893  -0.129116  0  3.895337  0
C  C122  1  0.34241414  0.63755751  0.15534880  1  -0.012514  0  -0.070292  -0.129787  0  3.89534  0
C  C123  1  0.65758183  0.36244144  0.65535092  1  -0.012527  0  -0.070262  -0.129824  0  3.895074  0
C  C124  1  0.29555081  0.63766173  0.65533819  1  -0.019309  0  -0.069912  -0.129132  0  3.895452  0
C  C125  1  0.70444683  0.36233534  0.15533846  1  -0.019327  0  -0.069898  -0.129049  0  3.895394  0
C  C126  1  0.65757851  0.36244217  0.84465085  1  -0.011741  0  -0.070279  -0.129796  0  3.895316  0
C  C127  1  0.34241687  0.63755730  0.34465007  1  -0.012464  0  -0.070242  -0.129753  0  3.895206  0
O  O128  1  0.18062433  0.99997550  0.47218386  1  -1.22525  0  -0.571772  -0.767389  0  2.170422  0
O  O129  1  0.81937885  0.00002683  0.97218354  1  -1.225259  0  -0.571794  -0.76737  0  2.170347  0
O  O130  1  0.18062740  0.99997660  0.02781611  1  -1.249267  0  -0.571864  -0.767598  0  2.170208  0
O  O131  1  0.81937968  0.00002605  0.52781623  1  -1.225245  0  -0.571786  -0.767356  0  2.170412  0
O  O132  1  0.48432881  0.18098071  0.43102084  1  -1.176971  0  -0.281713  -0.516629  0  2.230432  0
O  O133  1  0.51567390  0.81901194  0.93102293  1  -1.177029  0  -0.281621  -0.516489  0  2.230997  0
O  O134  1  0.30361704  0.81905225  0.06903219  1  -1.179788  0  -0.282098  -0.517242  0  2.230821  0
O  O135  1  0.69638479  0.18094604  0.56903026  1  -1.179674  0  -0.282151  -0.517267  0  2.23064  0
O  O136  1  0.51566922  0.81901148  0.56897704  1  -1.176987  0  -0.281675  -0.516543  0  2.230902  0
O  O137  1  0.48432877  0.18097650  0.06897672  1  -1.176894  0  -0.281732  -0.516676  0  2.230209  0
O  O138  1  0.69637588  0.18094275  0.93096746  1  -1.17959  0  -0.282075  -0.517243  0  2.230351  0
O  O139  1  0.30362631  0.81905926  0.43096762  1  -1.179724  0  -0.282004  -0.517183  0  2.230578  0
O  O140  1  0.75826649  0.78114066  0.43903399  1  -1.181468  0  -0.329991  -0.572292  0  2.300728  0
O  O141  1  0.24173163  0.21885861  0.93903366  1  -1.181462  0  -0.329923  -0.572261  0  2.300753  0
O  O142  1  0.97744321  0.21884904  0.06090482  1  -1.180125  0  -0.329967  -0.571826  0  2.300484  0
O  O143  1  0.02255618  0.78115199  0.56090706  1  -1.180498  0  -0.329936  -0.571791  0  2.300408  0
O  O144  1  0.24172914  0.21885715  0.56096611  1  -1.181458  0  -0.329926  -0.57227  0  2.300711  0
O  O145  1  0.75827145  0.78114107  0.06096554  1  -1.181343  0  -0.329947  -0.57229  0  2.30069  0
O  O146  1  0.02255550  0.78114971  0.93909571  1  -1.180103  0  -0.329988  -0.571875  0  2.300349  0
O  O147  1  0.97744439  0.21885050  0.43909481  1  -1.180226  0  -0.329981  -0.571784  0  2.300405  0
O  O148  1  0.92826850  0.83271495  0.35743334  1  -1.135952  0  -0.312737  -0.520289  0  2.120949  0
O  O149  1  0.07172930  0.16728182  0.85743313  1  -1.135838  0  -0.312765  -0.520299  0  2.120892  0
O  O150  1  0.09551632  0.16724849  0.14257560  1  -1.130802  0  -0.313222  -0.520321  0  2.119849  0
O  O151  1  0.90447584  0.83275036  0.64257763  1  -1.130769  0  -0.31322  -0.520316  0  2.119924  0
O  O152  1  0.07172192  0.16728286  0.64256675  1  -1.135844  0  -0.312726  -0.520274  0  2.120825  0
O  O153  1  0.92827191  0.83271412  0.14256785  1  -1.136089  0  -0.312722  -0.520287  0  2.120856  0
O  O154  1  0.90448675  0.83275119  0.85742405  1  -1.13074  0  -0.313193  -0.520287  0  2.120024  0
O  O155  1  0.09551635  0.16724838  0.35742291  1  -1.130637  0  -0.313244  -0.520392  0  2.119902  0
O  O156  1  0.61943070  0.00013111  0.38823249  1  -1.22311  0  -0.591459  -0.771132  0  2.020939  0
O  O157  1  0.38057488  0.99987151  0.88823255  1  -1.223173  0  -0.591468  -0.771084  0  2.020976  0
O  O158  1  0.61942997  0.00012911  0.11176577  1  -1.223057  0  -0.591448  -0.771124  0  2.020996  0
O  O159  1  0.38057649  0.99987419  0.61176760  1  -1.223148  0  -0.591451  -0.771074  0  2.020989  0
O  O160  1  0.45090355  0.34297464  0.48234602  1  -1.195415  0  -0.315492  -0.48346  0  2.41207  0
O  O161  1  0.54908846  0.65702122  0.98234723  1  -1.19486  0  -0.315511  -0.483499  0  2.411869  0
O  O162  1  0.10816319  0.65713206  0.01768498  1  -1.198532  0  -0.315699  -0.483925  0  2.411051  0
O  O163  1  0.89185179  0.34287051  0.51768894  1  -1.198569  0  -0.315723  -0.483962  0  2.411106  0
O  O164  1  0.54908109  0.65701942  0.51765141  1  -1.195026  0  -0.315461  -0.483419  0  2.411818  0
O  O165  1  0.45090185  0.34297378  0.01765464  1  -1.195541  0  -0.31546  -0.483429  0  2.412105  0
O  O166  1  0.89183207  0.34286762  0.98231467  1  -1.198564  0  -0.31564  -0.483817  0  2.41122  0
O  O167  1  0.10817457  0.65713666  0.48231648  1  -1.198203  0  -0.3157  -0.483888  0  2.411248  0
