# generated using pymatgen
data_AgH16C18N3O4
_symmetry_space_group_name_H-M   'P 1'
_cell_length_a   7.51428254
_cell_length_b   8.24014095
_cell_length_c   13.73770304
_cell_angle_alpha   106.77173828
_cell_angle_beta   94.36476538
_cell_angle_gamma   94.08219964
_symmetry_Int_Tables_number   1
_chemical_formula_structural   AgH16C18N3O4
_chemical_formula_sum   'Ag2 H32 C36 N6 O8'
_cell_volume   808.20082314
_cell_formula_units_Z   2
loop_
 _symmetry_equiv_pos_site_id
 _symmetry_equiv_pos_as_xyz
  1  'x, y, z'
loop_
 _atom_site_type_symbol
 _atom_site_label
 _atom_site_symmetry_multiplicity
 _atom_site_fract_x
 _atom_site_fract_y
 _atom_site_fract_z
 _atom_site_occupancy
 _atom_site_hle17_bader_spin_density
 _atom_site_hle17_ddec_charge
 _atom_site_hle17_ddec_spin_density
 _atom_site_hle17_ddec_sum_bond_order
 _atom_site_hle17_magmom
 _atom_site_hse06_10hf_bader_spin_density
 _atom_site_hse06_10hf_ddec_charge
 _atom_site_hse06_10hf_ddec_spin_density
 _atom_site_hse06_10hf_ddec_sum_bond_order
 _atom_site_hse06_10hf_magmom
 _atom_site_hse06_bader_spin_density
 _atom_site_hse06_ddec_charge
 _atom_site_hse06_ddec_spin_density
 _atom_site_hse06_ddec_sum_bond_order
 _atom_site_hse06_magmom
 _atom_site_pbe_bader_spin_density
 _atom_site_pbe_cm5_charge
 _atom_site_pbe_ddec_charge
 _atom_site_pbe_ddec_spin_density
 _atom_site_pbe_ddec_sum_bond_order
 _atom_site_pbe_magmom
Ag  Ag0  1  0.32844248  0.98984782  0.54875739  1  0  0.476426  0  1.510772  0  0  0.325231  0  1.972716  0  0  0.354944  0  1.927877  0  0  0.463316  0.304947  0  2.003697  0
Ag  Ag1  1  0.67156296  0.01015019  0.45124170  1  0  0.476459  0  1.510753  0  0  0.325241  0  1.972733  0  0  0.35496  0  1.927892  0  0  0.463303  0.304957  0  2.003718  0
H  H2  1  0.71186544  0.37399382  0.24654317  1  0  0.065464  0  0.963111  0  0  0.085051  0  1.024559  0  0  0.085342  0  1.025542  0  0  0.090548  0.084742  0  1.024006  0
H  H3  1  0.28813628  0.62600676  0.75345618  1  0  0.065467  0  0.963081  0  0  0.085054  0  1.024533  0  0  0.085344  0  1.025518  0  0  0.090549  0.084745  0  1.023979  0
H  H4  1  0.57830121  0.48802492  0.18581270  1  0  0.069381  0  0.956261  0  0  0.086561  0  1.02351  0  0  0.087614  0  1.022987  0  0  0.089352  0.085707  0  1.023999  0
H  H5  1  0.42169576  0.51196930  0.81418824  1  0  0.069383  0  0.956234  0  0  0.086556  0  1.023497  0  0  0.08761  0  1.022973  0  0  0.089351  0.0857  0  1.023984  0
H  H6  1  0.49043031  0.73390683  0.65522774  1  0  0.095887  0  0.927318  0  0  0.102975  0  0.993556  0  0  0.105716  0  0.99058  0  0  0.121857  0.100792  0  0.995952  0
H  H7  1  0.50958116  0.26609626  0.34476670  1  0  0.095914  0  0.927246  0  0  0.102953  0  0.993543  0  0  0.105696  0  0.990566  0  0  0.121826  0.100773  0  0.995938  0
H  H8  1  0.66620641  0.75524447  0.82194708  1  0  0.128867  0  0.954568  0  0  0.136676  0  1.015135  0  0  0.140388  0  1.013091  0  0  0.113654  0.133944  0  1.016844  0
H  H9  1  0.33379927  0.24475482  0.17804788  1  0  0.12888  0  0.954637  0  0  0.136693  0  1.015178  0  0  0.140411  0  1.013125  0  0  0.113676  0.133949  0  1.016899  0
H  H10  1  0.76485200  0.03945502  0.94364120  1  0  0.10258  0  0.94578  0  0  0.114463  0  1.004601  0  0  0.117676  0  1.001471  0  0  0.111952  0.112104  0  1.006925  0
H  H11  1  0.23514706  0.96054557  0.05635803  1  0  0.102549  0  0.945796  0  0  0.114459  0  1.004597  0  0  0.117671  0  1.001468  0  0  0.111938  0.112102  0  1.006916  0
H  H12  1  0.50105665  0.25924448  0.72795376  1  0  0.083592  0  0.984727  0  0  0.091122  0  1.05485  0  0  0.093145  0  1.053081  0  0  0.115815  0.089511  0  1.056287  0
H  H13  1  0.49894389  0.74075738  0.27204503  1  0  0.083588  0  0.984751  0  0  0.091087  0  1.054908  0  0  0.093108  0  1.053146  0  0  0.115818  0.089481  0  1.056352  0
H  H14  1  0.69185549  0.44201685  0.85949406  1  0  0.10775  0  0.98129  0  0  0.112856  0  1.054689  0  0  0.116721  0  1.050826  0  0  0.105857  0.109971  0  1.057584  0
H  H15  1  0.30813061  0.55798763  0.14050667  1  0  0.107716  0  0.981328  0  0  0.112816  0  1.054738  0  0  0.11668  0  1.050877  0  0  0.105812  0.109929  0  1.05764  0
H  H16  1  0.64342347  0.21909327  0.06027470  1  0  0.076796  0  0.943342  0  0  0.094933  0  1.003628  0  0  0.095451  0  1.004356  0  0  0.092916  0.094515  0  1.003155  0
H  H17  1  0.35657487  0.78090096  0.93972412  1  0  0.076773  0  0.94332  0  0  0.094921  0  1.003609  0  0  0.095439  0  1.004335  0  0  0.092905  0.094505  0  1.003136  0
H  H18  1  0.87736562  0.27877838  0.08996049  1  0  0.08002  0  0.928405  0  0  0.099515  0  0.98807  0  0  0.099769  0  0.98801  0  0  0.095427  0.099268  0  0.98818  0
H  H19  1  0.12263376  0.72122477  0.91003701  1  0  0.079993  0  0.92837  0  0  0.099511  0  0.98802  0  0  0.099754  0  0.987972  0  0  0.09542  0.099264  0  0.988132  0
H  H20  1  0.19893350  0.31271769  0.52271023  1  0  0.095012  0  0.948687  0  0  0.108664  0  1.00654  0  0  0.110743  0  1.003931  0  0  0.120652  0.107018  0  1.008634  0
H  H21  1  0.80107638  0.68727264  0.47729139  1  0  0.095059  0  0.9487  0  0  0.108699  0  1.00656  0  0  0.110777  0  1.003951  0  0  0.120637  0.107045  0  1.008665  0
H  H22  1  0.02177801  0.41497076  0.39571249  1  0  0.119735  0  0.946456  0  0  0.129026  0  1.00429  0  0  0.132075  0  1.003293  0  0  0.114206  0.126792  0  1.005208  0
H  H23  1  0.97823008  0.58502848  0.60429423  1  0  0.119703  0  0.946405  0  0  0.129  0  1.004233  0  0  0.132049  0  1.003235  0  0  0.11416  0.126747  0  1.005173  0
H  H24  1  0.88982789  0.19984097  0.23072753  1  0  0.094771  0  0.967228  0  0  0.108555  0  1.024384  0  0  0.110539  0  1.023786  0  0  0.108584  0.107083  0  1.024911  0
H  H25  1  0.11017563  0.80016469  0.76927644  1  0  0.094747  0  0.967257  0  0  0.108523  0  1.024417  0  0  0.110514  0  1.023817  0  0  0.108582  0.10705  0  1.024948  0
H  H26  1  0.10508165  0.80970184  0.34439564  1  0  0.089823  0  0.972791  0  0  0.095464  0  1.043453  0  0  0.097343  0  1.042165  0  0  0.117077  0.09401  0  1.04448  0
H  H27  1  0.89491834  0.19029492  0.65560224  1  0  0.089861  0  0.972751  0  0  0.095501  0  1.043402  0  0  0.097377  0  1.042111  0  0  0.117089  0.094045  0  1.044432  0
H  H28  1  0.88587479  0.92497476  0.11452706  1  0  0.098967  0  0.95364  0  0  0.106531  0  1.021382  0  0  0.110634  0  1.017725  0  0  0.103642  0.10358  0  1.023987  0
H  H29  1  0.11411675  0.07503096  0.88547561  1  0  0.098958  0  0.95371  0  0  0.106574  0  1.021395  0  0  0.110675  0  1.017737  0  0  0.103651  0.103621  0  1.024003  0
H  H30  1  0.98835546  0.54929199  0.23540347  1  0  0.095338  0  0.932908  0  0  0.113638  0  0.992924  0  0  0.114723  0  0.992104  0  0  0.098242  0.112701  0  0.993665  0
H  H31  1  0.01164206  0.45070607  0.76459233  1  0  0.09532  0  0.932889  0  0  0.11362  0  0.992893  0  0  0.114697  0  0.992088  0  0  0.098243  0.11268  0  0.993634  0
H  H32  1  0.83157197  0.67742429  0.30122562  1  0  0.071799  0  0.950007  0  0  0.089812  0  1.01867  0  0  0.090651  0  1.017643  0  0  0.091779  0.08905  0  1.01959  0
H  H33  1  0.16842830  0.32257502  0.69877272  1  0  0.071793  0  0.950041  0  0  0.089792  0  1.018713  0  0  0.090634  0  1.017681  0  0  0.0918  0.089028  0  1.019634  0
C  C34  1  0.79544385  0.61279726  0.04039360  1  0  0.356437  0  3.719117  0  0  0.341809  0  3.975029  0  0  0.36514  0  3.981051  0  0  0.1486  0.326226  0  3.970518  0
C  C35  1  0.20453808  0.38720596  0.95960817  1  0  0.356722  0  3.719032  0  0  0.342112  0  3.974883  0  0  0.365445  0  3.980894  0  0  0.14876  0.326527  0  3.970378  0
C  C36  1  0.71269246  0.44422972  0.18982416  1  0  -0.105807  0  3.702754  0  0  -0.149169  0  3.964415  0  0  -0.150034  0  3.977505  0  0  -0.169753  -0.148333  0  3.955156  0
C  C37  1  0.28730643  0.55576959  0.81017629  1  0  -0.105753  0  3.702589  0  0  -0.149175  0  3.964346  0  0  -0.15004  0  3.977431  0  0  -0.169732  -0.148335  0  3.955084  0
C  C38  1  0.53066096  0.85667789  0.71212376  1  0  0.126744  0  3.657201  0  0  0.091771  0  3.908771  0  0  0.098927  0  3.928519  0  0  0.049374  0.087139  0  3.895459  0
C  C39  1  0.46934871  0.14332138  0.28787212  1  0  0.126815  0  3.657222  0  0  0.091883  0  3.908759  0  0  0.099042  0  3.928504  0  0  0.049445  0.087252  0  3.895439  0
C  C40  1  0.62863587  0.86998433  0.80484333  1  0  -0.107295  0  3.713293  0  0  -0.119136  0  3.965315  0  0  -0.126583  0  3.987684  0  0  -0.077665  -0.114353  0  3.950318  0
C  C41  1  0.37136876  0.13001752  0.19515202  1  0  -0.107308  0  3.713312  0  0  -0.119127  0  3.965287  0  0  -0.126577  0  3.987656  0  0  -0.077682  -0.114332  0  3.950297  0
C  C42  1  0.68232210  0.03026657  0.87332477  1  0  -0.046952  0  3.656779  0  0  -0.071894  0  3.899323  0  0  -0.06837  0  3.916367  0  0  -0.060794  -0.073881  0  3.887644  0
C  C43  1  0.31767817  0.96973274  0.12667357  1  0  -0.046973  0  3.656906  0  0  -0.071951  0  3.899459  0  0  -0.068429  0  3.916506  0  0  -0.060826  -0.073936  0  3.887775  0
C  C44  1  0.63814506  0.17706850  0.84758795  1  0  0.050129  0  3.791507  0  0  0.074817  0  4.024132  0  0  0.069746  0  4.049921  0  0  -0.003604  0.077866  0  4.006725  0
C  C45  1  0.36184884  0.82293340  0.15240980  1  0  0.050196  0  3.791468  0  0  0.074882  0  4.024129  0  0  0.069813  0  4.049914  0  0  -0.003604  0.077931  0  4.006722  0
C  C46  1  0.53775132  0.15067863  0.75264523  1  0  0.069334  0  3.651333  0  0  0.031798  0  3.89324  0  0  0.037397  0  3.914174  0  0  0.044973  0.028279  0  3.879003  0
C  C47  1  0.46225160  0.84932067  0.24735396  1  0  0.069361  0  3.651171  0  0  0.03181  0  3.89314  0  0  0.037407  0  3.914079  0  0  0.044952  0.02828  0  3.878913  0
C  C48  1  0.69311633  0.35345382  0.90543504  1  0  -0.106912  0  3.679363  0  0  -0.145346  0  3.93833  0  0  -0.144029  0  3.959623  0  0  -0.074093  -0.145797  0  3.923869  0
C  C49  1  0.30688055  0.64655187  0.09456788  1  0  -0.106836  0  3.679387  0  0  -0.145307  0  3.938361  0  0  -0.143993  0  3.959654  0  0  -0.074012  -0.145759  0  3.923896  0
C  C50  1  0.74316298  0.42454209  0.00680580  1  0  -0.006502  0  3.64539  0  0  0.013998  0  3.887132  0  0  0.004076  0  3.913845  0  0  -0.012764  0.020348  0  3.869111  0
C  C51  1  0.25682849  0.57546236  0.99319373  1  0  -0.006647  0  3.645354  0  0  0.01391  0  3.887031  0  0  0.003992  0  3.91373  0  0  -0.012797  0.020265  0  3.869008  0
C  C52  1  0.74534986  0.32931960  0.08518098  1  0  -0.144992  0  3.729071  0  0  -0.18935  0  3.982538  0  0  -0.188886  0  3.996718  0  0  -0.162524  -0.189341  0  3.972582  0
C  C53  1  0.25464500  0.67067973  0.91482002  1  0  -0.144923  0  3.728985  0  0  -0.189301  0  3.982404  0  0  -0.188833  0  3.996586  0  0  -0.162495  -0.1893  0  3.97245  0
C  C54  1  0.13213513  0.22345903  0.45282186  1  0  0.130348  0  3.641473  0  0  0.094221  0  3.889627  0  0  0.101847  0  3.907526  0  0  0.04895  0.089074  0  3.877859  0
C  C55  1  0.86787248  0.77653513  0.54718031  1  0  0.130161  0  3.64171  0  0  0.094066  0  3.889845  0  0  0.101694  0  3.907744  0  0  0.048965  0.088925  0  3.878079  0
C  C56  1  0.03346707  0.27939228  0.38103458  1  0  -0.078678  0  3.71345  0  0  -0.091053  0  3.966037  0  0  -0.097078  0  3.986061  0  0  -0.075467  -0.087434  0  3.95304  0
C  C57  1  0.96654004  0.72060953  0.61896889  1  0  -0.078615  0  3.713531  0  0  -0.090985  0  3.966107  0  0  -0.09701  0  3.986127  0  0  -0.075418  -0.087344  0  3.953099  0
C  C58  1  0.96114897  0.16036820  0.29072798  1  0  -0.051849  0  3.676185  0  0  -0.077532  0  3.920943  0  0  -0.075089  0  3.939231  0  0  -0.063055  -0.078884  0  3.90863  0
C  C59  1  0.03885812  0.83963362  0.70927622  1  0  -0.051764  0  3.676088  0  0  -0.07746  0  3.920851  0  0  -0.075021  0  3.939142  0  0  -0.063063  -0.078807  0  3.908521  0
C  C60  1  0.97947633  0.98590014  0.27434416  1  0  0.031133  0  3.836935  0  0  0.056059  0  4.071931  0  0  0.051494  0  4.096623  0  0  -0.011849  0.058811  0  4.055287  0
C  C61  1  0.02052259  0.01409918  0.72565485  1  0  0.03107  0  3.836825  0  0  0.05602  0  4.071816  0  0  0.051452  0  4.096505  0  0  -0.011876  0.058774  0  4.055174  0
C  C62  1  0.07943066  0.94076900  0.35171465  1  0  0.064365  0  3.653292  0  0  0.025795  0  3.901804  0  0  0.032592  0  3.920115  0  0  0.041085  0.021408  0  3.889398  0
C  C63  1  0.92057346  0.05922901  0.64828438  1  0  0.064311  0  3.65323  0  0  0.025748  0  3.901767  0  0  0.032536  0  3.920107  0  0  0.041058  0.021362  0  3.889359  0
C  C64  1  0.90625710  0.86771113  0.17669954  1  0  -0.109714  0  3.705391  0  0  -0.146009  0  3.961001  0  0  -0.145167  0  3.982192  0  0  -0.078288  -0.146158  0  3.946511  0
C  C65  1  0.09374445  0.13228817  0.82330104  1  0  -0.109671  0  3.705264  0  0  -0.146017  0  3.960869  0  0  -0.145174  0  3.982063  0  0  -0.078281  -0.146166  0  3.946379  0
C  C66  1  0.85704161  0.69790924  0.15106448  1  0  -0.010834  0  3.654094  0  0  0.011747  0  3.892166  0  0  0.002557  0  3.918702  0  0  -0.013721  0.017264  0  3.874883  0
C  C67  1  0.14295223  0.30209265  0.84893545  1  0  -0.010912  0  3.654106  0  0  0.011655  0  3.892176  0  0  0.002462  0  3.918708  0  0  -0.013725  0.017176  0  3.874886  0
C  C68  1  0.85546065  0.59534514  0.22544657  1  0  -0.146793  0  3.716736  0  0  -0.18968  0  3.961091  0  0  -0.189797  0  3.975894  0  0  -0.164891  -0.189216  0  3.950806  0
C  C69  1  0.14453684  0.40465292  0.77454996  1  0  -0.146788  0  3.71684  0  0  -0.189632  0  3.961135  0  0  -0.189744  0  3.97593  0  0  -0.164929  -0.189174  0  3.95086  0
N  N70  1  0.34756741  0.60668805  0.39320221  1  0  0.68319  0  4.161582  0  0  0.734648  0  4.430073  0  0  0.763161  0  4.435225  0  0  0.087393  0.71535  0  4.426034  0
N  N71  1  0.65244076  0.39331121  0.60680087  1  0  0.683331  0  4.161537  0  0  0.734721  0  4.430107  0  0  0.763233  0  4.435258  0  0  0.087462  0.715421  0  4.426066  0
N  N72  1  0.48446441  0.99612899  0.68713215  1  0  -0.294811  0  3.394806  0  0  -0.199291  0  3.668591  0  0  -0.220449  0  3.688887  0  0  -0.352562  -0.185015  0  3.65452  0
N  N73  1  0.51554167  0.00387413  0.31286422  1  0  -0.294921  0  3.394936  0  0  -0.199371  0  3.668674  0  0  -0.220536  0  3.688982  0  0  -0.35253  -0.185094  0  3.654607  0
N  N74  1  0.15643059  0.05755714  0.43753031  1  0  -0.293047  0  3.387792  0  0  -0.200134  0  3.664338  0  0  -0.221417  0  3.684701  0  0  -0.352158  -0.185727  0  3.650285  0
N  N75  1  0.84357178  0.94243706  0.56246797  1  0  -0.292939  0  3.387738  0  0  -0.200072  0  3.66433  0  0  -0.221358  0  3.684688  0  0  -0.352148  -0.185666  0  3.650276  0
O  O76  1  0.28855152  0.51652597  0.30355088  1  0  -0.477116  0  1.752427  0  0  -0.473899  0  1.965472  0  0  -0.488201  0  1.959538  0  0  -0.196995  -0.463387  0  1.969195  0
O  O77  1  0.71145729  0.48347839  0.69644948  1  0  -0.477193  0  1.752582  0  0  -0.473965  0  1.965683  0  0  -0.488266  0  1.959748  0  0  -0.197024  -0.463453  0  1.969403  0
O  O78  1  0.23703050  0.66428337  0.45813613  1  0  -0.503321  0  1.784912  0  0  -0.489962  0  2.017163  0  0  -0.506703  0  2.008579  0  0  -0.218663  -0.477917  0  2.022783  0
O  O79  1  0.76297621  0.33571463  0.54186593  1  0  -0.503421  0  1.784847  0  0  -0.490018  0  2.017107  0  0  -0.506758  0  2.008522  0  0  -0.218728  -0.477982  0  2.022749  0
O  O80  1  0.51466101  0.64255877  0.41809328  1  0  -0.495569  0  1.765631  0  0  -0.496248  0  1.993766  0  0  -0.510181  0  1.983785  0  0  -0.211308  -0.486198  0  2.000382  0
O  O81  1  0.48534568  0.35743922  0.58191024  1  0  -0.495537  0  1.765538  0  0  -0.496222  0  1.993755  0  0  -0.510156  0  1.983773  0  0  -0.211292  -0.486171  0  2.000369  0
O  O82  1  0.79183382  0.69608304  0.97779066  1  0  -0.483717  0  1.933308  0  0  -0.439009  0  2.140209  0  0  -0.458394  0  2.13731  0  0  -0.275088  -0.425826  0  2.141939  0
O  O83  1  0.20813328  0.30391898  0.02221091  1  0  -0.483908  0  1.933404  0  0  -0.439228  0  2.14031  0  0  -0.458614  0  2.137408  0  0  -0.275252  -0.426045  0  2.142049  0
