# generated using pymatgen
data_ZnH28C20S2(N5O4)2
_symmetry_space_group_name_H-M   'P 1'
_cell_length_a   7.37755958
_cell_length_b   10.67912033
_cell_length_c   18.71143237
_cell_angle_alpha   91.70787194
_cell_angle_beta   90.00017040
_cell_angle_gamma   90.00012729
_symmetry_Int_Tables_number   1
_chemical_formula_structural   ZnH28C20S2(N5O4)2
_chemical_formula_sum   'Zn2 H56 C40 S4 N20 O16'
_cell_volume   1473.54116312
_cell_formula_units_Z   2
loop_
 _symmetry_equiv_pos_site_id
 _symmetry_equiv_pos_as_xyz
  1  'x, y, z'
loop_
 _atom_site_type_symbol
 _atom_site_label
 _atom_site_symmetry_multiplicity
 _atom_site_fract_x
 _atom_site_fract_y
 _atom_site_fract_z
 _atom_site_occupancy
 _atom_site_hle17_bader_spin_density
 _atom_site_hle17_ddec_charge
 _atom_site_hle17_ddec_spin_density
 _atom_site_hle17_ddec_sum_bond_order
 _atom_site_hle17_magmom
 _atom_site_hse06_10hf_bader_spin_density
 _atom_site_hse06_10hf_ddec_charge
 _atom_site_hse06_10hf_ddec_spin_density
 _atom_site_hse06_10hf_ddec_sum_bond_order
 _atom_site_hse06_10hf_magmom
 _atom_site_hse06_bader_spin_density
 _atom_site_hse06_ddec_charge
 _atom_site_hse06_ddec_spin_density
 _atom_site_hse06_ddec_sum_bond_order
 _atom_site_hse06_magmom
 _atom_site_pbe_bader_spin_density
 _atom_site_pbe_cm5_charge
 _atom_site_pbe_ddec_charge
 _atom_site_pbe_ddec_spin_density
 _atom_site_pbe_ddec_sum_bond_order
 _atom_site_pbe_magmom
Zn  Zn0  1  0.39695946  0.04819540  0.76534748  1  0  1.039733  0  1.796462  0  0  0.850994  0  2.267514  0  0  0.901607  0  2.207265  0  0  0.684862  0.815656  0  2.308737  0
Zn  Zn1  1  0.89695756  0.95180575  0.23465538  1  0  1.039762  0  1.796507  0  0  0.851046  0  2.267487  0  0  0.901656  0  2.207242  0  0  0.68487  0.815675  0  2.308692  0
H  H2  1  0.02823130  0.85469428  0.99577012  1  0  0.129494  0  0.9338  0  0  0.14695  0  0.996335  0  0  0.149479  0  0.993919  0  0  0.116327  0.144928  0  0.998323  0
H  H3  1  0.52823319  0.14530719  0.00423018  1  0  0.129491  0  0.933744  0  0  0.146916  0  0.996312  0  0  0.149445  0  0.9939  0  0  0.116282  0.144904  0  0.99829  0
H  H4  1  0.89298312  0.87525889  0.91847266  1  0  0.11854  0  0.922934  0  0  0.140127  0  0.978721  0  0  0.141326  0  0.977907  0  0  0.113395  0.139011  0  0.979629  0
H  H5  1  0.39298005  0.12474037  0.08152910  1  0  0.118517  0  0.922985  0  0  0.140133  0  0.978722  0  0  0.141331  0  0.977908  0  0  0.113356  0.139016  0  0.979637  0
H  H6  1  0.93679965  0.72079423  0.95008352  1  0  0.102547  0  0.939722  0  0  0.115845  0  1.015145  0  0  0.117317  0  1.013749  0  0  0.103844  0.114214  0  1.016793  0
H  H7  1  0.43680226  0.27920980  0.04991996  1  0  0.102499  0  0.93978  0  0  0.115785  0  1.015208  0  0  0.117267  0  1.013802  0  0  0.103797  0.114143  0  1.016866  0
H  H8  1  0.67783580  0.76823264  0.88794822  1  0  0.300233  0  0.875723  0  0  0.288591  0  0.928353  0  0  0.295552  0  0.923213  0  0  0.328515  0.283652  0  0.93205  0
H  H9  1  0.17783332  0.23177005  0.11205547  1  0  0.300174  0  0.87578  0  0  0.288544  0  0.928393  0  0  0.295505  0  0.923252  0  0  0.328497  0.2836  0  0.932105  0
H  H10  1  0.29639672  0.71374293  0.92517908  1  0  0.072019  0  0.96216  0  0  0.076401  0  1.034068  0  0  0.078916  0  1.032002  0  0  0.111857  0.074449  0  1.035954  0
H  H11  1  0.79639824  0.28626081  0.07481889  1  0  0.072106  0  0.962017  0  0  0.076428  0  1.033992  0  0  0.078955  0  1.031914  0  0  0.111872  0.074482  0  1.035882  0
H  H12  1  0.32119964  0.59827486  0.79743855  1  0  0.087666  0  0.93517  0  0  0.107411  0  0.992685  0  0  0.107676  0  0.993824  0  0  0.1013  0.107114  0  0.992039  0
H  H13  1  0.82119844  0.40172802  0.20256264  1  0  0.087646  0  0.935168  0  0  0.107411  0  0.992663  0  0  0.107678  0  0.9938  0  0  0.101326  0.107127  0  0.992016  0
H  H14  1  0.55467935  0.59531223  0.81616906  1  0  0.078932  0  0.925218  0  0  0.099939  0  0.980577  0  0  0.100537  0  0.980871  0  0  0.098236  0.09942  0  0.98051  0
H  H15  1  0.05466983  0.40468833  0.18382966  1  0  0.078931  0  0.92535  0  0  0.099924  0  0.98071  0  0  0.100519  0  0.981007  0  0  0.098238  0.09942  0  0.980631  0
H  H16  1  0.48154162  0.48741201  0.93395257  1  0  0.085218  0  0.947258  0  0  0.099008  0  1.013927  0  0  0.100261  0  1.01362  0  0  0.08907  0.098177  0  1.014056  0
H  H17  1  0.98154110  0.51259019  0.06604880  1  0  0.085192  0  0.947245  0  0  0.099009  0  1.01391  0  0  0.100263  0  1.013599  0  0  0.089078  0.098187  0  1.014036  0
H  H18  1  0.42146169  0.39891506  0.85478955  1  0  0.100252  0  0.95198  0  0  0.114883  0  1.012561  0  0  0.116013  0  1.013012  0  0  0.09486  0.114214  0  1.012058  0
H  H19  1  0.92145121  0.60108609  0.14521014  1  0  0.100215  0  0.952  0  0  0.114904  0  1.012534  0  0  0.116033  0  1.012985  0  0  0.094908  0.114248  0  1.012028  0
H  H20  1  0.90031520  0.42660723  0.85351866  1  0  0.121717  0  0.944411  0  0  0.144955  0  0.998379  0  0  0.145951  0  0.998969  0  0  0.092505  0.144334  0  0.997863  0
H  H21  1  0.40031000  0.57339105  0.14647882  1  0  0.121694  0  0.944356  0  0  0.144925  0  0.998347  0  0  0.145918  0  0.998938  0  0  0.09252  0.144319  0  0.997825  0
H  H22  1  0.10114689  0.39657946  0.80195850  1  0  0.13542  0  0.952667  0  0  0.153716  0  1.013647  0  0  0.154998  0  1.014445  0  0  0.096288  0.152762  0  1.013192  0
H  H23  1  0.60114766  0.60341928  0.19803864  1  0  0.135451  0  0.952652  0  0  0.153751  0  1.013618  0  0  0.155034  0  1.014413  0  0  0.096306  0.152799  0  1.013166  0
H  H24  1  0.02082660  0.55455710  0.81611326  1  0  0.115625  0  0.949082  0  0  0.134302  0  1.009002  0  0  0.13657  0  1.007682  0  0  0.089703  0.132521  0  1.010216  0
H  H25  1  0.52082540  0.44544060  0.18388538  1  0  0.115573  0  0.94914  0  0  0.13426  0  1.009054  0  0  0.136525  0  1.007738  0  0  0.089689  0.132484  0  1.010259  0
H  H26  1  0.17052699  0.83301084  0.11456092  1  0  0.354685  0  0.901107  0  0  0.335045  0  0.964154  0  0  0.344229  0  0.955584  0  0  0.31085  0.328522  0  0.970334  0
H  H27  1  0.67052618  0.16699465  0.88544334  1  0  0.354555  0  0.901228  0  0  0.334938  0  0.964238  0  0  0.344121  0  0.955669  0  0  0.310832  0.328413  0  0.970419  0
H  H28  1  0.31003959  0.85763738  0.19131060  1  0  0.346617  0  0.913355  0  0  0.317021  0  0.992221  0  0  0.326907  0  0.982902  0  0  0.305381  0.310005  0  0.998855  0
H  H29  1  0.81002998  0.14236551  0.80869272  1  0  0.346705  0  0.913286  0  0  0.31707  0  0.992212  0  0  0.326954  0  0.982895  0  0  0.305403  0.31005  0  0.998852  0
H  H30  1  0.27633507  0.20079702  0.57245938  1  0  0.129405  0  0.942986  0  0  0.146506  0  1.006247  0  0  0.148777  0  1.004412  0  0  0.114601  0.144726  0  1.007752  0
H  H31  1  0.77635991  0.79918896  0.42754420  1  0  0.129525  0  0.942971  0  0  0.146637  0  1.006222  0  0  0.148905  0  1.004384  0  0  0.114646  0.144854  0  1.007727  0
H  H32  1  0.13917618  0.18957794  0.65048091  1  0  0.107934  0  0.981715  0  0  0.117358  0  1.060554  0  0  0.119022  0  1.059073  0  0  0.103908  0.116157  0  1.0616  0
H  H33  1  0.63920452  0.81040401  0.34951658  1  0  0.107957  0  0.9816  0  0  0.117366  0  1.060445  0  0  0.119033  0  1.05896  0  0  0.103886  0.116165  0  1.061491  0
H  H34  1  0.15091317  0.33434867  0.60358890  1  0  0.097039  0  0.944983  0  0  0.114469  0  1.015652  0  0  0.115116  0  1.015407  0  0  0.101104  0.113902  0  1.015851  0
H  H35  1  0.65092650  0.66563340  0.39641769  1  0  0.096981  0  0.945052  0  0  0.11437  0  1.015769  0  0  0.115015  0  1.015525  0  0  0.101059  0.113796  0  1.015972  0
H  H36  1  0.90131866  0.27926536  0.66838933  1  0  0.29805  0  0.885333  0  0  0.28578  0  0.939912  0  0  0.29205  0  0.93585  0  0  0.326163  0.281437  0  0.942736  0
H  H37  1  0.40134109  0.72072542  0.33160752  1  0  0.298413  0  0.884888  0  0  0.286053  0  0.939595  0  0  0.292317  0  0.935543  0  0  0.326317  0.281707  0  0.942424  0
H  H38  1  0.54005812  0.33250941  0.60685102  1  0  0.074993  0  0.968686  0  0  0.081059  0  1.040393  0  0  0.083734  0  1.03849  0  0  0.117785  0.07923  0  1.041708  0
H  H39  1  0.04007544  0.66749302  0.39314930  1  0  0.074962  0  0.9688  0  0  0.081111  0  1.040441  0  0  0.083791  0  1.038536  0  0  0.117818  0.079281  0  1.041748  0
H  H40  1  0.54757212  0.50520674  0.71114274  1  0  0.081342  0  0.976134  0  0  0.096817  0  1.04251  0  0  0.097684  0  1.043215  0  0  0.095578  0.096128  0  1.042072  0
H  H41  1  0.04757318  0.49479847  0.28885442  1  0  0.081405  0  0.976111  0  0  0.096871  0  1.042464  0  0  0.097738  0  1.043167  0  0  0.095624  0.096178  0  1.04204  0
H  H42  1  0.78533904  0.49088987  0.70305597  1  0  0.074526  0  0.925221  0  0  0.097539  0  0.978668  0  0  0.098232  0  0.979004  0  0  0.094101  0.097004  0  0.978515  0
H  H43  1  0.28534292  0.50910824  0.29694244  1  0  0.074584  0  0.925152  0  0  0.097581  0  0.978596  0  0  0.098277  0  0.978927  0  0  0.094138  0.097041  0  0.978452  0
H  H44  1  0.75812229  0.53521755  0.57015922  1  0  0.086666  0  0.949922  0  0  0.10005  0  1.018142  0  0  0.101338  0  1.017832  0  0  0.089981  0.099088  0  1.018404  0
H  H45  1  0.25812161  0.46477675  0.42983698  1  0  0.086765  0  0.949863  0  0  0.100108  0  1.018107  0  0  0.101396  0  1.017794  0  0  0.090009  0.099144  0  1.018368  0
H  H46  1  0.67819925  0.66037347  0.62626631  1  0  0.095758  0  0.923139  0  0  0.114364  0  0.975714  0  0  0.115416  0  0.975718  0  0  0.097982  0.113518  0  0.97593  0
H  H47  1  0.17819233  0.33962540  0.37373145  1  0  0.095726  0  0.923123  0  0  0.114324  0  0.975683  0  0  0.115372  0  0.975691  0  0  0.098005  0.113474  0  0.975901  0
H  H48  1  0.14940633  0.60841663  0.60133690  1  0  0.125393  0  0.940781  0  0  0.148933  0  0.993768  0  0  0.150033  0  0.994174  0  0  0.095421  0.148076  0  0.993566  0
H  H49  1  0.64940388  0.39158597  0.39866302  1  0  0.125379  0  0.940697  0  0  0.148913  0  0.993707  0  0  0.150015  0  0.994109  0  0  0.095396  0.148057  0  0.993503  0
H  H50  1  0.31704610  0.68332828  0.65620774  1  0  0.125773  0  0.94397  0  0  0.145969  0  1.00027  0  0  0.146735  0  1.001768  0  0  0.095055  0.145363  0  0.999265  0
H  H51  1  0.81703893  0.31667460  0.34379398  1  0  0.125762  0  0.944106  0  0  0.145963  0  1.000392  0  0  0.146729  0  1.001891  0  0  0.095071  0.145357  0  0.999387  0
H  H52  1  0.26629739  0.51994597  0.66706800  1  0  0.118528  0  0.968271  0  0  0.135166  0  1.033487  0  0  0.137716  0  1.031865  0  0  0.088996  0.133219  0  1.034786  0
H  H53  1  0.76629473  0.48005398  0.33292988  1  0  0.118519  0  0.968203  0  0  0.135166  0  1.033408  0  0  0.137716  0  1.031787  0  0  0.089004  0.133222  0  1.034714  0
H  H54  1  0.43666932  0.13036536  0.44005864  1  0  0.363661  0  0.898756  0  0  0.343675  0  0.962976  0  0  0.353131  0  0.953692  0  0  0.311446  0.336984  0  0.969565  0
H  H55  1  0.93668996  0.86964045  0.55993685  1  0  0.363504  0  0.899178  0  0  0.343479  0  0.963411  0  0  0.352929  0  0.954139  0  0  0.311409  0.336797  0  0.969987  0
H  H56  1  0.59323700  0.07133138  0.37329777  1  0  0.347579  0  0.897925  0  0  0.325384  0  0.96023  0  0  0.33566  0  0.950682  0  0  0.313404  0.318158  0  0.966912  0
H  H57  1  0.09325422  0.92866546  0.62669826  1  0  0.347701  0  0.897796  0  0  0.325462  0  0.960167  0  0  0.335737  0  0.95062  0  0  0.313453  0.318239  0  0.966852  0
C  C58  1  0.91073569  0.81907556  0.96609439  1  0  -0.154187  0  3.61721  0  0  -0.260318  0  3.877578  0  0  -0.255083  0  3.882855  0  0  -0.133029  -0.263402  0  3.874459  0
C  C59  1  0.41073516  0.18092842  0.03390799  1  0  -0.15409  0  3.617266  0  0  -0.260208  0  3.877594  0  0  -0.254981  0  3.882869  0  0  -0.132917  -0.263286  0  3.874479  0
C  C60  1  0.58077433  0.79674245  0.98841928  1  0  0.558927  0  3.837134  0  0  0.492894  0  4.141227  0  0  0.524884  0  4.144618  0  0  0.360405  0.471419  0  4.138286  0
C  C61  1  0.08077776  0.20325818  0.01158267  1  0  0.55895  0  3.837308  0  0  0.492861  0  4.141454  0  0  0.52485  0  4.144846  0  0  0.360387  0.471379  0  4.138535  0
C  C62  1  0.40142995  0.72327477  0.88429451  1  0  0.037198  0  3.620786  0  0  0.018563  0  3.854994  0  0  0.018578  0  3.866248  0  0  0.008254  0.018781  0  3.847224  0
C  C63  1  0.90142769  0.27672449  0.11570619  1  0  0.037102  0  3.620701  0  0  0.018426  0  3.855113  0  0  0.018438  0  3.866356  0  0  0.008239  0.018651  0  3.847355  0
C  C64  1  0.34500071  0.82973943  0.83565856  1  0  0.625126  0  3.904147  0  0  0.580891  0  4.204922  0  0  0.612995  0  4.200423  0  0  0.194506  0.558974  0  4.206668  0
C  C65  1  0.84499306  0.17026254  0.16434211  1  0  0.625036  0  3.904267  0  0  0.580709  0  4.205226  0  0  0.612815  0  4.200727  0  0  0.194261  0.558785  0  4.20698  0
C  C66  1  0.41985032  0.59953717  0.84141339  1  0  -0.13283  0  3.665723  0  0  -0.18053  0  3.924941  0  0  -0.181065  0  3.937555  0  0  -0.160102  -0.180032  0  3.916304  0
C  C67  1  0.91984878  0.40046399  0.15858790  1  0  -0.132796  0  3.665836  0  0  -0.180461  0  3.925061  0  0  -0.181  0  3.937675  0  0  -0.160097  -0.179953  0  3.916428  0
C  C68  1  0.39243338  0.48458638  0.88671399  1  0  -0.142389  0  3.653218  0  0  -0.178135  0  3.920138  0  0  -0.177829  0  3.931613  0  0  -0.15558  -0.178319  0  3.911917  0
C  C69  1  0.89243051  0.51541098  0.11328561  1  0  -0.142289  0  3.653247  0  0  -0.178128  0  3.920206  0  0  -0.17783  0  3.931705  0  0  -0.155581  -0.178318  0  3.911994  0
C  C70  1  0.03505754  0.46231255  0.83995474  1  0  -0.337413  0  3.672553  0  0  -0.408421  0  3.925299  0  0  -0.409943  0  3.933797  0  0  -0.237474  -0.407316  0  3.91965  0
C  C71  1  0.53506052  0.53768237  0.16004495  1  0  -0.337351  0  3.672539  0  0  -0.408367  0  3.925281  0  0  -0.40988  0  3.933784  0  0  -0.237447  -0.407254  0  3.91961  0
C  C72  1  0.44545660  0.83215413  0.09802737  1  0  0.50665  0  3.860144  0  0  0.466492  0  4.141135  0  0  0.493751  0  4.148192  0  0  0.256674  0.448314  0  4.136552  0
C  C73  1  0.94544778  0.16784897  0.90197557  1  0  0.50659  0  3.860269  0  0  0.466343  0  4.141351  0  0  0.493578  0  4.148451  0  0  0.256626  0.448166  0  4.136741  0
C  C74  1  0.61932862  0.85573545  0.13077471  1  0  -0.161445  0  3.751584  0  0  -0.16641  0  4.020711  0  0  -0.186487  0  4.0435  0  0  0.073697  -0.154404  0  4.007471  0
C  C75  1  0.11932078  0.14426901  0.86922894  1  0  -0.161436  0  3.751253  0  0  -0.166341  0  4.020305  0  0  -0.18641  0  4.043115  0  0  0.073728  -0.154327  0  4.007027  0
C  C76  1  0.77917128  0.85440274  0.08587236  1  0  0.505083  0  3.845745  0  0  0.450982  0  4.133858  0  0  0.482553  0  4.13505  0  0  0.244612  0.429543  0  4.133519  0
C  C77  1  0.27917191  0.14559728  0.91412981  1  0  0.505127  0  3.845883  0  0  0.451042  0  4.133933  0  0  0.482596  0  4.13515  0  0  0.244619  0.429608  0  4.133568  0
C  C78  1  0.15013766  0.23167366  0.59794619  1  0  -0.170041  0  3.6393  0  0  -0.277122  0  3.903425  0  0  -0.272724  0  3.910589  0  0  -0.145354  -0.27974  0  3.89841  0
C  C79  1  0.65016491  0.76831023  0.40205616  1  0  -0.170226  0  3.639341  0  0  -0.277279  0  3.903445  0  0  -0.272867  0  3.910609  0  0  -0.145432  -0.279907  0  3.898437  0
C  C80  1  0.82410972  0.22024074  0.56896376  1  0  0.574222  0  3.803218  0  0  0.510258  0  4.100105  0  0  0.542716  0  4.102349  0  0  0.367229  0.488526  0  4.097862  0
C  C81  1  0.32412904  0.77975555  0.43103414  1  0  0.574092  0  3.803237  0  0  0.510184  0  4.100131  0  0  0.542643  0  4.102377  0  0  0.367069  0.488444  0  4.097876  0
C  C82  1  0.62912842  0.33827239  0.65416920  1  0  0.038284  0  3.623535  0  0  0.020481  0  3.857138  0  0  0.020186  0  3.869062  0  0  0.012224  0.020648  0  3.848975  0
C  C83  1  0.12913993  0.66172645  0.34583225  1  0  0.038339  0  3.623434  0  0  0.020451  0  3.857106  0  0  0.020144  0  3.869039  0  0  0.01218  0.020611  0  3.848934  0
C  C84  1  0.52335100  0.26807817  0.71138795  1  0  0.629267  0  3.868611  0  0  0.582278  0  4.167366  0  0  0.615147  0  4.161519  0  0  0.204136  0.559943  0  4.170304  0
C  C85  1  0.02335959  0.73192329  0.28861181  1  0  0.629569  0  3.868532  0  0  0.582577  0  4.167334  0  0  0.615452  0  4.161477  0  0  0.204294  0.560241  0  4.17028  0
C  C86  1  0.65622575  0.47748149  0.67404366  1  0  -0.142003  0  3.683517  0  0  -0.190496  0  3.942547  0  0  -0.191452  0  3.955604  0  0  -0.164824  -0.189637  0  3.93346  0
C  C87  1  0.15622447  0.52251830  0.32595570  1  0  -0.142193  0  3.683599  0  0  -0.190627  0  3.942564  0  0  -0.191577  0  3.955615  0  0  -0.164901  -0.189767  0  3.933493  0
C  C88  1  0.65329242  0.56214083  0.60960457  1  0  -0.13956  0  3.655456  0  0  -0.175141  0  3.923942  0  0  -0.174587  0  3.935733  0  0  -0.152376  -0.175388  0  3.915703  0
C  C89  1  0.15328865  0.43785893  0.39039265  1  0  -0.139585  0  3.655659  0  0  -0.175091  0  3.924035  0  0  -0.17454  0  3.935836  0  0  -0.152412  -0.175337  0  3.915781  0
C  C90  1  0.27949143  0.59498235  0.62848698  1  0  -0.337577  0  3.66726  0  0  -0.406109  0  3.916714  0  0  -0.407682  0  3.925417  0  0  -0.236031  -0.404698  0  3.910575  0
C  C91  1  0.77949424  0.40501575  0.37151142  1  0  -0.33755  0  3.667177  0  0  -0.406081  0  3.916626  0  0  -0.407654  0  3.925329  0  0  -0.236028  -0.404669  0  3.910489  0
C  C92  1  0.70901151  0.14054300  0.46293123  1  0  0.509882  0  3.82647  0  0  0.468914  0  4.107672  0  0  0.497112  0  4.113736  0  0  0.259419  0.450371  0  4.102904  0
C  C93  1  0.20902783  0.85945966  0.53706662  1  0  0.50972  0  3.82584  0  0  0.468866  0  4.106958  0  0  0.497048  0  4.11304  0  0  0.259413  0.450322  0  4.1022  0
C  C94  1  0.88997771  0.10944197  0.43723198  1  0  -0.158452  0  3.750497  0  0  -0.157461  0  4.026363  0  0  -0.176628  0  4.046346  0  0  0.077109  -0.146341  0  4.015003  0
C  C95  1  0.39000245  0.89055724  0.56276657  1  0  -0.158025  0  3.749776  0  0  -0.15725  0  4.025918  0  0  -0.176418  0  4.045876  0  0  0.077123  -0.146088  0  4.014507  0
C  C96  1  0.04465776  0.14112223  0.48330246  1  0  0.504604  0  3.852301  0  0  0.449774  0  4.149098  0  0  0.480466  0  4.150315  0  0  0.243885  0.429209  0  4.147701  0
C  C97  1  0.54467397  0.85887642  0.51669515  1  0  0.50471  0  3.852064  0  0  0.449856  0  4.148953  0  0  0.480618  0  4.150066  0  0  0.243915  0.42927  0  4.147595  0
S  S98  1  0.16402870  0.47226836  0.92234374  1  0  -0.032526  0  2.332119  0  0  -0.014327  0  2.68012  0  0  -0.020054  0  2.681288  0  0  -0.042668  -0.00949  0  2.67976  0
S  S99  1  0.66402967  0.52772768  0.07765450  1  0  -0.032583  0  2.332152  0  0  -0.014364  0  2.680167  0  0  -0.020093  0  2.681336  0  0  -0.042692  -0.009488  0  2.679783  0
S  S100  1  0.44249623  0.55379383  0.55946224  1  0  -0.018304  0  2.343126  0  0  -0.001457  0  2.694167  0  0  -0.007935  0  2.69635  0  0  -0.035296  0.003165  0  2.692188  0
S  S101  1  0.94250105  0.44620828  0.44053695  1  0  -0.018264  0  2.34321  0  0  -0.001451  0  2.69424  0  0  -0.007929  0  2.696423  0  0  -0.035283  0.003179  0  2.692253  0
N  N102  1  0.75232739  0.82928909  0.01318608  1  0  -0.251428  0  3.421059  0  0  -0.161873  0  3.659623  0  0  -0.185704  0  3.676762  0  0  -0.247318  -0.146053  0  3.647722  0
N  N103  1  0.25232595  0.17071650  0.98681560  1  0  -0.251604  0  3.421334  0  0  -0.162029  0  3.65985  0  0  -0.185856  0  3.676993  0  0  -0.247289  -0.146204  0  3.647942  0
N  N104  1  0.57091708  0.75268714  0.92073847  1  0  -0.402349  0  3.306297  0  0  -0.349595  0  3.554974  0  0  -0.370058  0  3.563675  0  0  -0.398971  -0.335728  0  3.548566  0
N  N105  1  0.07091439  0.24731065  0.07926182  1  0  -0.402244  0  3.306259  0  0  -0.34944  0  3.55493  0  0  -0.369904  0  3.563633  0  0  -0.398947  -0.335578  0  3.548543  0
N  N106  1  0.43092574  0.80486551  0.02761836  1  0  -0.550135  0  3.002798  0  0  -0.521104  0  3.292117  0  0  -0.54478  0  3.296449  0  0  -0.352514  -0.505252  0  3.289137  0
N  N107  1  0.93092432  0.19513568  0.97238347  1  0  -0.550104  0  3.002803  0  0  -0.521007  0  3.292121  0  0  -0.544677  0  3.296468  0  0  -0.35251  -0.505158  0  3.28915  0
N  N108  1  0.29646169  0.83837718  0.13747166  1  0  -0.605825  0  3.100289  0  0  -0.567239  0  3.337937  0  0  -0.588542  0  3.331726  0  0  -0.539525  -0.553115  0  3.342309  0
N  N109  1  0.79645797  0.16162663  0.86253218  1  0  -0.605742  0  3.100562  0  0  -0.567143  0  3.338268  0  0  -0.58844  0  3.332075  0  0  -0.53952  -0.553016  0  3.342632  0
N  N110  1  0.64861233  0.88363908  0.20066118  1  0  0.02932  0  3.347698  0  0  0.066141  0  3.667976  0  0  0.076834  0  3.669935  0  0  -0.168779  0.059241  0  3.667433  0
N  N111  1  0.14860657  0.11635887  0.79934188  1  0  0.029332  0  3.347612  0  0  0.066082  0  3.667885  0  0  0.076766  0  3.66984  0  0  -0.168807  0.059173  0  3.667345  0
N  N112  1  0.00119250  0.19035090  0.55149173  1  0  -0.262676  0  3.439802  0  0  -0.172963  0  3.676453  0  0  -0.197671  0  3.695005  0  0  -0.252324  -0.156341  0  3.663295  0
N  N113  1  0.50121346  0.80964862  0.44850584  1  0  -0.26272  0  3.439739  0  0  -0.172919  0  3.676306  0  0  -0.197656  0  3.694853  0  0  -0.252244  -0.156293  0  3.663153  0
N  N114  1  0.79886594  0.28091390  0.63221378  1  0  -0.398572  0  3.296504  0  0  -0.344555  0  3.541441  0  0  -0.364359  0  3.549818  0  0  -0.399194  -0.330917  0  3.535221  0
N  N115  1  0.29888459  0.71908048  0.36778460  1  0  -0.399005  0  3.296153  0  0  -0.345008  0  3.541297  0  0  -0.364807  0  3.549662  0  0  -0.399389  -0.331357  0  3.535066  0
N  N116  1  0.68195819  0.19698077  0.52709400  1  0  -0.539505  0  3.000346  0  0  -0.51399  0  3.295171  0  0  -0.538084  0  3.299362  0  0  -0.345549  -0.497716  0  3.291825  0
N  N117  1  0.18197925  0.80302089  0.47290220  1  0  -0.539289  0  3.000386  0  0  -0.513812  0  3.295179  0  0  -0.537902  0  3.299375  0  0  -0.345342  -0.49754  0  3.291827  0
N  N118  1  0.56621342  0.11432958  0.42186190  1  0  -0.601825  0  3.059037  0  0  -0.56051  0  3.284838  0  0  -0.582276  0  3.27812  0  0  -0.534275  -0.545849  0  3.28922  0
N  N119  1  0.06623284  0.88566722  0.57813464  1  0  -0.601851  0  3.059213  0  0  -0.560462  0  3.285043  0  0  -0.58222  0  3.278331  0  0  -0.534295  -0.545812  0  3.289417  0
N  N120  1  0.93623523  0.05608329  0.37447879  1  0  0.044425  0  2.989577  0  0  0.036336  0  3.27864  0  0  0.058992  0  3.279782  0  0  -0.170068  0.021882  0  3.277749  0
N  N121  1  0.43625520  0.94391790  0.62552251  1  0  0.044358  0  2.989419  0  0  0.036386  0  3.278432  0  0  0.059033  0  3.279581  0  0  -0.170011  0.021924  0  3.277558  0
O  O122  1  0.47933105  0.89349700  0.81079892  1  0  -0.642621  0  2.010817  0  0  -0.575216  0  2.270957  0  0  -0.604436  0  2.256294  0  0  -0.345556  -0.554428  0  2.280113  0
O  O123  1  0.97931525  0.10650712  0.18920675  1  0  -0.64254  0  2.010898  0  0  -0.575066  0  2.271052  0  0  -0.604286  0  2.256389  0  0  -0.345456  -0.554273  0  2.280201  0
O  O124  1  0.18066179  0.84510374  0.82371388  1  0  -0.605745  0  1.870965  0  0  -0.569036  0  2.078695  0  0  -0.594119  0  2.07358  0  0  -0.336589  -0.550161  0  2.081226  0
O  O125  1  0.68064469  0.15489882  0.17627859  1  0  -0.60575  0  1.870889  0  0  -0.569004  0  2.078674  0  0  -0.594087  0  2.073559  0  0  -0.336451  -0.550129  0  2.08121  0
O  O126  1  0.51890971  0.87970664  0.24530075  1  0  -0.331156  0  1.846728  0  0  -0.289183  0  2.059996  0  0  -0.300402  0  2.055907  0  0  -0.145129  -0.28248  0  2.063507  0
O  O127  1  0.01890092  0.12028737  0.75470425  1  0  -0.331222  0  1.846814  0  0  -0.289117  0  2.060013  0  0  -0.300311  0  2.055897  0  0  -0.145099  -0.282425  0  2.063532  0
O  O128  1  0.93470250  0.87390200  0.10981133  1  0  -0.546866  0  2.065204  0  0  -0.492977  0  2.302728  0  0  -0.515522  0  2.293545  0  0  -0.274032  -0.477702  0  2.308996  0
O  O129  1  0.43469747  0.12610667  0.89018900  1  0  -0.54681  0  2.065392  0  0  -0.492951  0  2.302914  0  0  -0.515487  0  2.293742  0  0  -0.274047  -0.477692  0  2.309183  0
O  O130  1  0.58616163  0.15999918  0.72852533  1  0  -0.633358  0  2.056157  0  0  -0.5597  0  2.325175  0  0  -0.588511  0  2.309442  0  0  -0.329097  -0.539251  0  2.334951  0
O  O131  1  0.08617044  0.84000897  0.27147727  1  0  -0.633549  0  2.05606  0  0  -0.559845  0  2.32498  0  0  -0.588658  0  2.30924  0  0  -0.329175  -0.539404  0  2.334782  0
O  O132  1  0.38034181  0.31773802  0.73413696  1  0  -0.61424  0  1.928392  0  0  -0.571891  0  2.157504  0  0  -0.596289  0  2.151229  0  0  -0.324741  -0.554301  0  2.160881  0
O  O133  1  0.88035555  0.68227056  0.26586277  1  0  -0.614388  0  1.928736  0  0  -0.572031  0  2.157827  0  0  -0.59643  0  2.151544  0  0  -0.324849  -0.554448  0  2.161217  0
O  O134  1  0.80358139  0.02511241  0.33111237  1  0  -0.439555  0  2.051926  0  0  -0.365617  0  2.325034  0  0  -0.3932  0  2.318648  0  0  -0.176823  -0.346794  0  2.328734  0
O  O135  1  0.30359231  0.97488201  0.66888816  1  0  -0.43976  0  2.052017  0  0  -0.365785  0  2.325049  0  0  -0.393378  0  2.318685  0  0  -0.176892  -0.34697  0  2.328772  0
O  O136  1  0.20494238  0.12633975  0.46584066  1  0  -0.525718  0  2.020821  0  0  -0.490934  0  2.257062  0  0  -0.510824  0  2.24954  0  0  -0.281502  -0.477203  0  2.262035  0
O  O137  1  0.70496013  0.87367881  0.53415527  1  0  -0.525689  0  2.020481  0  0  -0.490915  0  2.256784  0  0  -0.510828  0  2.249229  0  0  -0.281491  -0.477168  0  2.261745  0
