# generated using pymatgen
data_Cu3H12C15(N15O2)2
_symmetry_space_group_name_H-M   'P 1'
_cell_length_a   12.91956210
_cell_length_b   12.64823837
_cell_length_c   13.14362472
_cell_angle_alpha   107.24424969
_cell_angle_beta   117.52698923
_cell_angle_gamma   92.42189727
_symmetry_Int_Tables_number   1
_chemical_formula_structural   Cu3H12C15(N15O2)2
_chemical_formula_sum   'Cu6 H24 C30 N60 O8'
_cell_volume   1777.82140256
_cell_formula_units_Z   2
loop_
 _symmetry_equiv_pos_site_id
 _symmetry_equiv_pos_as_xyz
  1  'x, y, z'
loop_
 _atom_site_type_symbol
 _atom_site_label
 _atom_site_symmetry_multiplicity
 _atom_site_fract_x
 _atom_site_fract_y
 _atom_site_fract_z
 _atom_site_occupancy
 _atom_site_pbe_bader_charge
 _atom_site_pbe_cm5_charge
 _atom_site_pbe_ddec_charge
 _atom_site_pbe_ddec_spin_density
 _atom_site_pbe_ddec_sum_bond_order
 _atom_site_pbe_magmom
Cu  Cu0  1  0.24701553  0.23733814  0.26985445  1  1.074482  0.818582  0.530014  -0.748979  2.539896  -0.58
Cu  Cu1  1  0.75315873  0.76273526  0.73040328  1  1.073563  0.81959  0.530144  0.750638  2.54337  0.583
Cu  Cu2  1  0.99989631  0.99978383  0.99977102  1  1.102541  0.838633  0.547877  -0.777601  2.590566  -0.606
Cu  Cu3  1  0.50027817  0.50007030  0.50000239  1  1.091227  0.816338  0.536951  0.758001  2.483054  0.59
Cu  Cu4  1  0.75226767  0.23970023  0.27556706  1  1.118861  0.774181  0.845183  0.743009  2.17371  0.587
Cu  Cu5  1  0.24758745  0.76008705  0.72407509  1  1.110913  0.767159  0.836345  -0.721229  2.169188  -0.569
H  H6  1  0.73053087  0.44032103  0.23327387  1  0.595798  0.304899  0.39331  -9e-06  0.91814  0.0
H  H7  1  0.26937389  0.55983961  0.76694465  1  0.596556  0.304579  0.392848  1e-05  0.918787  0.0
H  H8  1  0.82933352  0.46831563  0.37139307  1  0.675984  0.288747  0.369836  -3e-06  0.98228  0.0
H  H9  1  0.17060030  0.53173079  0.62879050  1  0.675431  0.288431  0.369261  -5e-06  0.983204  0.0
H  H10  1  0.61213790  0.12428199  0.02790232  1  0.664718  0.300347  0.395172  0.001073  0.936336  0.001
H  H11  1  0.38851776  0.87467060  0.97248871  1  0.66516  0.299827  0.394647  -0.001031  0.936889  -0.001
H  H12  1  0.56766148  0.23944656  0.06360416  1  0.649216  0.332248  0.422714  0.00138  0.855228  0.001
H  H13  1  0.43240566  0.75925851  0.93625907  1  0.637649  0.331161  0.421604  -0.001377  0.856395  -0.001
H  H14  1  0.73017524  0.98322217  0.15357845  1  0.599656  0.293047  0.363672  -2.8e-05  0.972684  0.0
H  H15  1  0.26934044  0.01584839  0.84606251  1  0.633767  0.292341  0.361843  3.6e-05  0.975651  0.0
H  H16  1  0.68905485  0.93665731  0.22918916  1  0.610002  0.322202  0.416058  9e-06  0.863899  0.0
H  H17  1  0.30997559  0.06342826  0.77081716  1  0.612598  0.321918  0.415919  -2.1e-05  0.864009  0.0
H  H18  1  0.88888594  0.08361121  0.38146782  1  0.08451  0.092223  0.144241  0.000127  1.058909  0.0
H  H19  1  0.11085157  0.91610549  0.61795711  1  0.089505  0.09221  0.143441  -0.000116  1.05916  0.0
H  H20  1  0.97290974  0.08850316  0.53682503  1  0.123976  0.108008  0.180148  -0.000181  1.005058  0.0
H  H21  1  0.02701273  0.91149892  0.46274698  1  0.109079  0.107553  0.179495  0.000166  1.00562  0.0
H  H22  1  0.04881322  0.13563297  0.47047017  1  0.124206  0.110255  0.174803  -0.000284  1.00959  0.0
H  H23  1  0.95090881  0.86448325  0.52892948  1  0.144175  0.10989  0.174191  0.000269  1.01082  0.0
H  H24  1  0.02740815  0.40771921  0.67220383  1  0.098332  0.102221  0.16767  -0.000142  0.989613  0.0
H  H25  1  0.97180891  0.59214501  0.32690266  1  0.098621  0.101416  0.166582  0.000141  0.990174  0.0
H  H26  1  0.12781489  0.31288510  0.66965759  1  0.116269  0.105182  0.164699  0.001005  1.010097  0.001
H  H27  1  0.87151791  0.68717731  0.32965120  1  0.114488  0.104669  0.163661  -0.000955  1.01096  -0.001
H  H28  1  0.02209118  0.28522774  0.71313436  1  0.110936  0.107863  0.170101  -0.000103  1.007288  0.0
H  H29  1  0.97718946  0.71476829  0.28605601  1  0.100951  0.107197  0.169318  0.000112  1.007442  0.0
C  C30  1  0.50945985  0.20913328  0.26137278  1  1.078432  0.243265  0.241591  0.004066  4.096075  0.006
C  C31  1  0.49064763  0.79028875  0.73871320  1  1.088796  0.242746  0.240272  0.000443  4.097387  0.0
C  C32  1  0.45872744  0.10273482  0.16442407  1  0.911907  0.222874  0.24388  -3.1e-05  3.951286  0.0
C  C33  1  0.54125682  0.89651933  0.83591941  1  0.914314  0.223249  0.24607  0.00025  3.95245  0.0
C  C34  1  0.36861123  0.37346746  0.63384694  1  1.098608  0.224342  0.22294  -0.002641  4.150521  -0.004
C  C35  1  0.63143583  0.62683950  0.36638713  1  1.09595  0.223789  0.222102  0.002588  4.149291  0.004
C  C36  1  0.42615022  0.46531046  0.74753914  1  0.868616  0.208741  0.238083  -0.000104  3.959804  0.0
C  C37  1  0.57391403  0.53506744  0.25259297  1  0.863685  0.20862  0.237776  1.8e-05  3.9607  0.0
C  C38  1  0.19852201  0.54465916  0.24009040  1  1.062557  0.23549  0.230862  0.000196  4.106489  0.0
C  C39  1  0.80183526  0.45561343  0.76010403  1  1.047631  0.235542  0.230204  0.005026  4.108065  0.007
C  C40  1  0.12637126  0.61352844  0.18254345  1  0.899196  0.207414  0.229459  -2.2e-05  3.942833  0.0
C  C41  1  0.87379456  0.38665858  0.81762663  1  0.895927  0.207272  0.228941  -5.8e-05  3.943971  0.0
C  C42  1  0.98744903  0.26466767  0.28018728  1  1.141139  0.243875  0.246418  0.000783  4.089379  0.002
C  C43  1  0.01266609  0.73567981  0.71997240  1  1.140812  0.243904  0.247102  -0.001198  4.088359  -0.002
C  C44  1  0.04499388  0.36708594  0.38144839  1  0.871471  0.223621  0.246175  8.8e-05  3.944036  0.0
C  C45  1  0.95497263  0.63325348  0.61869912  1  0.890233  0.222955  0.246231  5.9e-05  3.944753  0.0
C  C46  1  0.09334394  0.14978350  0.89791134  1  1.098305  0.230091  0.222695  -0.003195  4.156719  -0.005
C  C47  1  0.90676085  0.85042044  0.10222566  1  1.10336  0.230191  0.223485  0.000691  4.155477  0.0
C  C48  1  0.00068323  0.09583061  0.77509341  1  0.861701  0.200558  0.209617  -4.2e-05  3.994534  0.0
C  C49  1  0.99954215  0.90451905  0.22494550  1  0.894577  0.200422  0.208743  0.000273  3.995406  0.0
C  C50  1  0.29985396  0.91605299  0.22257488  1  1.062174  0.232252  0.224358  -0.005883  4.116536  -0.008
C  C51  1  0.70014474  0.08397105  0.77751367  1  1.059999  0.232096  0.225047  -1.1e-05  4.11446  0.0
C  C52  1  0.37532454  0.83776202  0.24574899  1  0.893863  0.19743  0.223187  -7.4e-05  3.955358  0.0
C  C53  1  0.62452533  0.16224877  0.75449323  1  0.900239  0.197351  0.223026  0.000129  3.95336  0.0
C  C54  1  0.96447375  0.13152317  0.47279874  1  -0.153448  -0.248038  -0.538835  0.005543  3.866767  0.007
C  C55  1  0.03522737  0.86843232  0.52663534  1  -0.167392  -0.248591  -0.538606  -0.005172  3.869086  -0.006
C  C56  1  0.95005976  0.24816391  0.52210968  1  0.851671  0.191045  0.617648  -0.000433  3.814284  -0.004
C  C57  1  0.04944580  0.75171668  0.47717985  1  0.854671  0.1893  0.616463  0.000457  3.815695  0.004
C  C58  1  0.03676515  0.31954105  0.65201467  1  -0.109352  -0.238276  -0.50763  0.01278  3.828207  0.014
C  C59  1  0.96256405  0.68041462  0.34721970  1  -0.101284  -0.238235  -0.507029  -0.012001  3.828595  -0.014
N  N60  1  0.45164112  0.26955726  0.31222968  1  -0.599987  -0.184085  -0.213715  0.006574  3.315352  0.007
N  N61  1  0.54865398  0.72995781  0.68810921  1  -0.602984  -0.185611  -0.215711  2.8e-05  3.318907  0.001
N  N62  1  0.53239921  0.36364062  0.39548467  1  -0.160565  -0.097565  -0.002027  0.057051  3.541548  0.074
N  N63  1  0.46776349  0.63606251  0.60439185  1  -0.159902  -0.097117  -0.000421  0.051934  3.539564  0.067
N  N64  1  0.63586611  0.36327745  0.39840540  1  -0.027382  -0.062419  -0.007837  0.000867  3.169924  0.001
N  N65  1  0.36400973  0.63649227  0.60099757  1  -0.029842  -0.062329  -0.00871  0.000531  3.168932  0.002
N  N66  1  0.62352858  0.26638776  0.31425034  1  -0.623808  -0.23223  -0.239902  0.044702  3.555676  0.057
N  N67  1  0.37633420  0.73322003  0.68525091  1  -0.627299  -0.231055  -0.237132  -0.037477  3.553106  -0.048
N  N68  1  0.41862920  0.01584834  0.08365627  1  -1.12408  -0.2562  -0.302879  -6.5e-05  2.86903  0.0
N  N69  1  0.58162490  0.98325662  0.91692161  1  -1.127952  -0.256545  -0.304431  0.00211  2.871066  0.002
N  N70  1  0.38026423  0.36871012  0.53605136  1  -0.635017  -0.202429  -0.252642  -0.003623  3.312152  -0.004
N  N71  1  0.62000674  0.63137898  0.46426021  1  -0.63613  -0.202524  -0.252074  0.002649  3.314509  0.004
N  N72  1  0.30047963  0.27563854  0.44804002  1  -0.190729  -0.13257  -0.035926  -0.061634  3.605657  -0.08
N  N73  1  0.69960940  0.72453280  0.55226357  1  -0.191647  -0.132804  -0.036309  0.061421  3.605692  0.079
N  N74  1  0.24252161  0.22572369  0.48908618  1  -0.085307  -0.08324  -0.054224  -0.001074  3.216056  -0.003
N  N75  1  0.75730763  0.77474772  0.51118313  1  -0.087155  -0.082212  -0.052387  0.001094  3.213574  0.003
N  N76  1  0.28413937  0.28608509  0.60663777  1  -0.585406  -0.194447  -0.239088  -0.007539  3.179685  -0.009
N  N77  1  0.71564540  0.71449493  0.39360188  1  -0.580836  -0.194434  -0.239351  0.007679  3.178679  0.009
N  N78  1  0.46246445  0.54479419  0.83724339  1  -1.139346  -0.297484  -0.349122  -0.001211  2.723639  -0.001
N  N79  1  0.53767599  0.45565384  0.16282718  1  -1.131511  -0.297648  -0.348957  0.000963  2.724005  0.001
N  N80  1  0.31467047  0.58172408  0.32826764  1  -0.525061  -0.181294  -0.200711  -0.003474  3.130969  -0.004
N  N81  1  0.68571355  0.41853663  0.67180697  1  -0.523852  -0.181258  -0.200007  0.007517  3.130181  0.009
N  N82  1  0.34465328  0.49156983  0.35605409  1  -0.15638  -0.124152  -0.025893  0.054973  3.588104  0.07
N  N83  1  0.65571654  0.50871705  0.64412044  1  -0.225309  -0.124509  -0.025718  0.059027  3.587682  0.077
N  N84  1  0.25078433  0.40370029  0.28824690  1  -0.204782  -0.118147  -0.02994  -0.052693  3.56108  -0.068
N  N85  1  0.74959640  0.59661334  0.71208623  1  -0.134538  -0.117694  -0.029325  0.057026  3.562809  0.075
N  N86  1  0.15732228  0.43448594  0.21421462  1  -0.55188  -0.182596  -0.202932  0.004582  3.133833  0.005
N  N87  1  0.84301877  0.56582962  0.78612004  1  -0.535307  -0.182161  -0.202075  0.007881  3.133784  0.009
N  N88  1  0.06495763  0.66965229  0.13634004  1  -1.096061  -0.275035  -0.313311  0.000179  2.787132  0.0
N  N89  1  0.93518165  0.33046480  0.86370979  1  -1.095347  -0.274659  -0.312488  0.002199  2.786812  0.003
N  N90  1  0.04044731  0.20924813  0.22023418  1  -0.611178  -0.19224  -0.225268  0.003317  3.342739  0.003
N  N91  1  0.95971861  0.79097391  0.78002481  1  -0.610731  -0.192341  -0.226164  -0.002375  3.344416  -0.002
N  N92  1  0.96176128  0.11301703  0.14026987  1  -0.152934  -0.092954  -0.044327  0.002267  3.481515  0.002
N  N93  1  0.03835700  0.88727094  0.85989652  1  -0.15724  -0.093339  -0.043359  -0.011772  3.482909  -0.017
N  N94  1  0.86415107  0.10753013  0.14899476  1  -0.081435  -0.072651  -0.032697  0.000567  3.199621  0.0
N  N95  1  0.13595087  0.89285144  0.85106668  1  -0.07993  -0.072984  -0.033727  1.2e-05  3.198699  0.0
N  N96  1  0.87822490  0.20244847  0.23693659  1  -0.648346  -0.237485  -0.213359  0.048967  3.534223  0.063
N  N97  1  0.12188802  0.79793145  0.76314796  1  -0.650437  -0.237037  -0.212972  -0.047494  3.532678  -0.061
N  N98  1  0.09866789  0.44700473  0.46986233  1  -1.114733  -0.254221  -0.288157  -0.001085  2.879122  -0.001
N  N99  1  0.90144955  0.55325963  0.53034495  1  -1.131323  -0.254513  -0.28954  0.000987  2.880448  0.001
N  N100  1  0.09423474  0.13617066  0.99616351  1  -0.628257  -0.220897  -0.208167  -0.049878  3.466807  -0.064
N  N101  1  0.90576976  0.86385112  0.00385894  1  -0.628795  -0.221263  -0.207876  -0.046566  3.47474  -0.06
N  N102  1  0.19573737  0.20456070  0.09117316  1  -0.18763  -0.124833  -0.034153  -0.05723  3.587887  -0.074
N  N103  1  0.80443556  0.79554141  0.90904594  1  -0.185148  -0.124236  -0.033438  0.055859  3.590958  0.073
N  N104  1  0.25466344  0.25680057  0.05355598  1  -0.060003  -0.080618  -0.040782  -0.006237  3.187788  -0.008
N  N105  1  0.74547713  0.74330575  0.94670044  1  -0.057226  -0.08072  -0.0407  -0.005858  3.185995  -0.006
N  N106  1  0.19218426  0.22325780  0.93149206  1  -0.569327  -0.196064  -0.233237  -0.010143  3.1311  -0.011
N  N107  1  0.80792402  0.77701286  0.06876290  1  -0.593333  -0.196078  -0.233844  0.003294  3.131676  0.004
N  N108  1  0.92592884  0.05302157  0.67259087  1  -1.120342  -0.275854  -0.305435  -0.000817  2.767274  -0.001
N  N109  1  0.07420948  0.94745548  0.32745912  1  -1.137034  -0.275473  -0.304467  0.001319  2.76754  0.002
N  N110  1  0.15605678  0.98642113  0.13142758  1  -0.188941  -0.124967  -0.039328  -0.065569  3.586263  -0.085
N  N111  1  0.84375460  0.01339972  0.86863358  1  -0.191467  -0.125008  -0.038268  -0.06066  3.59409  -0.078
N  N112  1  0.19112366  0.88946892  0.12135799  1  -0.542024  -0.179898  -0.192382  -0.00779  3.150242  -0.009
N  N113  1  0.80896825  0.11056180  0.87866198  1  -0.542109  -0.180481  -0.193892  0.003259  3.147181  0.004
N  N114  1  0.23994979  0.06894421  0.23467353  1  -0.185537  -0.120539  -0.031514  -0.058141  3.56446  -0.076
N  N115  1  0.76003405  0.93107148  0.76568495  1  -0.157039  -0.120946  -0.031247  0.052711  3.571143  0.067
N  N116  1  0.33169629  0.02706070  0.29391152  1  -0.527903  -0.184519  -0.20862  -0.009162  3.130525  -0.01
N  N117  1  0.66826089  0.97291920  0.70619662  1  -0.555644  -0.185079  -0.210014  -0.005162  3.126565  -0.006
N  N118  1  0.43871551  0.77404214  0.26085625  1  -1.087087  -0.280885  -0.310056  -0.002423  2.736102  -0.003
N  N119  1  0.56138365  0.22619563  0.73921681  1  -1.091053  -0.280605  -0.309702  3e-05  2.7354  0.0
O  O120  1  0.80192536  0.41827257  0.28569942  1  -1.250093  -0.589637  -0.777754  0.002894  2.095839  0.005
O  O121  1  0.19784706  0.58168356  0.71446706  1  -1.250427  -0.588839  -0.776301  -0.002927  2.096434  -0.005
O  O122  1  0.63514311  0.20235015  0.08862498  1  -1.236196  -0.567  -0.754567  0.037588  2.131312  0.05
O  O123  1  0.36536635  0.79690165  0.91129604  1  -1.22714  -0.567531  -0.754858  -0.035056  2.130712  -0.047
O  O124  1  0.69748109  0.00333125  0.20881948  1  -1.203752  -0.587912  -0.787254  -0.000239  1.979905  0.0
O  O125  1  0.30334855  0.99685815  0.79192691  1  -1.241006  -0.588529  -0.786343  0.000252  1.978305  0.0
O  O126  1  0.86902863  0.29005612  0.45918307  1  -1.069757  -0.24644  -0.425771  0.088547  2.325164  0.127
O  O127  1  0.13049548  0.70981101  0.53998347  1  -1.073572  -0.247146  -0.427238  -0.083921  2.324446  -0.12
