# generated using pymatgen
data_Zn4H25C82N4Cl(O4F5)4
_symmetry_space_group_name_H-M   'P 1'
_cell_length_a   16.52809716
_cell_length_b   17.94134094
_cell_length_c   29.05855124
_cell_angle_alpha   90.27967954
_cell_angle_beta   89.99718751
_cell_angle_gamma   89.94406113
_symmetry_Int_Tables_number   1
_chemical_formula_structural   Zn4H25C82N4Cl(O4F5)4
_chemical_formula_sum   'Zn4 H25 C82 N4 Cl1 O16 F20'
_cell_volume   8616.80634553
_cell_formula_units_Z   1
loop_
 _symmetry_equiv_pos_site_id
 _symmetry_equiv_pos_as_xyz
  1  'x, y, z'
loop_
 _atom_site_type_symbol
 _atom_site_label
 _atom_site_symmetry_multiplicity
 _atom_site_fract_x
 _atom_site_fract_y
 _atom_site_fract_z
 _atom_site_occupancy
 _atom_site_pbe_bader_charge
 _atom_site_pbe_bader_spin_density
 _atom_site_pbe_cm5_charge
 _atom_site_pbe_ddec_charge
 _atom_site_pbe_ddec_spin_density
 _atom_site_pbe_ddec_sum_bond_order
 _atom_site_pbe_magmom
Zn  Zn0  1  0.58339909  0.49975695  0.50235685  1  1.269391  0  0.664966  0.810591  0  2.422206  0
Zn  Zn1  1  0.41590014  0.50005122  0.49949934  1  1.271865  0  0.670439  0.819261  0  2.454841  0
Zn  Zn2  1  0.41589604  0.50189053  0.88433408  1  1.271684  0  0.667127  0.813201  0  2.443253  0
Zn  Zn3  1  0.58337665  0.50175422  0.88377274  1  1.255032  0  0.666147  0.811711  0  2.439271  0
H  H4  1  0.28677395  0.58141663  0.55163153  1  0.16619  0  0.137437  0.140523  0  0.964424  0
H  H5  1  0.28704363  0.41784785  0.44912881  1  0.151309  0  0.141817  0.144011  0  0.953218  0
H  H6  1  0.71324720  0.58202055  0.55180291  1  0.176527  0  0.140873  0.14105  0  0.960402  0
H  H7  1  0.71241836  0.41813989  0.44957258  1  0.165145  0  0.142055  0.144235  0  0.9525  0
H  H8  1  0.63050314  0.73780563  0.50046616  1  0.12875  0  0.114371  0.146767  0  0.985807  0
H  H9  1  0.36920420  0.73900552  0.50005573  1  0.145122  0  0.115334  0.148416  0  0.984599  0
H  H10  1  0.63050482  0.26184087  0.50021223  1  0.133058  0  0.114628  0.146619  0  0.986252  0
H  H11  1  0.36919875  0.26108718  0.49988468  1  0.144695  0  0.115323  0.14795  0  0.985043  0
H  H12  1  0.36903799  0.50079671  0.73668899  1  0.11788  0  0.102834  0.121716  0  1.007112  0
H  H13  1  0.68797092  0.55054417  0.73424254  1  0.025193  0  0.092653  0.099462  0  0.991676  0
H  H14  1  0.68754142  0.45107622  0.73429059  1  0.043763  0  0.096062  0.106027  0  0.98248  0
H  H15  1  0.68382888  0.45081408  0.64734159  1  0.046632  0  0.096924  0.1084  0  0.980479  0
H  H16  1  0.68439057  0.55022088  0.64772723  1  0.034806  0  0.093618  0.101532  0  0.990589  0
H  H17  1  0.36917091  0.50211207  0.03115357  1  0.106385  0  0.114956  0.146976  0  0.986854  0
H  H18  1  0.63053208  0.50223790  0.03090046  1  0.105562  0  0.11512  0.147172  0  0.986351  0
H  H19  1  0.37028695  0.50032423  0.35388496  1  0.159049  0  0.115414  0.147929  0  0.987025  0
H  H20  1  0.63158114  0.50058111  0.35377749  1  0.133264  0  0.11492  0.147056  0  0.985552  0
H  H21  1  0.71298390  0.58383069  0.83364870  1  0.152803  0  0.14107  0.141013  0  0.959928  0
H  H22  1  0.71232634  0.42058609  0.93528618  1  0.157514  0  0.142315  0.144989  0  0.95215  0
H  H23  1  0.28661427  0.58365898  0.83407143  1  0.16569  0  0.142632  0.145053  0  0.950861  0
H  H24  1  0.28690908  0.42033622  0.93569498  1  0.126893  0  0.142425  0.144681  0  0.952797  0
H  H25  1  0.36946407  0.74054563  0.88392070  1  0.108313  0  0.115087  0.14755  0  0.986127  0
H  H26  1  0.63076508  0.74037620  0.88401196  1  0.103961  0  0.114757  0.147406  0  0.986478  0
H  H27  1  0.36944120  0.26354675  0.88454620  1  0.104168  0  0.115163  0.147546  0  0.986115  0
H  H28  1  0.63076533  0.26321010  0.88462973  1  0.103519  0  0.114708  0.146875  0  0.986782  0
C  C29  1  0.49902389  0.64626697  0.50107194  1  1.593467  0  0.216634  0.593812  0  4.159265  0
C  C30  1  0.49991769  0.50092352  0.59099216  1  1.569564  0  0.214641  0.607929  0  4.167378  0
C  C31  1  0.49908452  0.35361396  0.49982822  1  1.598001  0  0.21651  0.593091  0  4.160081  0
C  C32  1  0.50044487  0.49942618  0.41064085  1  1.613796  0  0.216526  0.592792  0  4.163056  0
C  C33  1  0.50010722  0.64826792  0.88360829  1  1.547285  0  0.217348  0.594287  0  4.159957  0
C  C34  1  0.49856759  0.50149310  0.79404037  1  1.501461  0  0.216632  0.600322  0  4.170591  0
C  C35  1  0.50015596  0.35549671  0.88489259  1  1.541418  0  0.216377  0.592865  0  4.161273  0
C  C36  1  0.49962098  0.50172938  0.97422839  1  1.507543  0  0.216102  0.591434  0  4.163777  0
C  C37  1  0.25127321  0.54576504  0.52887396  1  0.595096  0  0.050227  -0.042587  0  3.920821  0
C  C38  1  0.16738393  0.54666071  0.52931745  1  0.504213  0  0.125813  0.234428  0  4.025665  0
C  C39  1  0.12172094  0.49996103  0.50010292  1  0.123531  0  0.006819  -0.048281  0  4.120494  0
C  C40  1  0.16748807  0.45312406  0.47097134  1  0.548372  0  0.126283  0.233831  0  4.031525  0
C  C41  1  0.25135294  0.45398234  0.47154874  1  0.597092  0  0.051262  -0.044596  0  3.921775  0
C  C42  1  0.03673028  0.50002391  0.50004302  1  -0.217879  0  -0.014238  -0.032406  0  4.083614  0
C  C43  1  0.96309332  0.50004705  0.49998348  1  0.012732  0  -0.016047  -0.036636  0  4.084949  0
C  C44  1  0.87811025  0.50015850  0.50011402  1  0.126876  0  0.006978  -0.047459  0  4.121673  0
C  C45  1  0.83255640  0.54695592  0.52937991  1  0.497437  0  0.125326  0.232837  0  4.03083  0
C  C46  1  0.74868571  0.54600417  0.52918663  1  0.572695  0  0.050643  -0.047852  0  3.926382  0
C  C47  1  0.74816729  0.45419540  0.47196635  1  0.57258  0  0.051007  -0.045613  0  3.920864  0
C  C48  1  0.83206532  0.45341715  0.47110335  1  0.56422  0  0.126966  0.234048  0  4.030546  0
C  C49  1  0.49977017  0.72985667  0.50060226  1  0.077598  0  -0.008952  0.029703  0  3.979491  0
C  C50  1  0.57355592  0.76827377  0.50049402  1  0.058038  0  -0.100244  -0.246715  0  3.994634  0
C  C51  1  0.57261625  0.84531122  0.50020018  1  0.358643  0  0.109399  0.270981  0  4.037768  0
C  C52  1  0.50051393  0.88766735  0.50005516  1  0.27214  0  -0.013262  -0.075973  0  4.128266  0
C  C53  1  0.42801716  0.84601890  0.50002842  1  0.482786  0  0.110378  0.272179  0  4.037757  0
C  C54  1  0.42636954  0.76901185  0.50024353  1  -0.071083  0  -0.099724  -0.245742  0  3.993239  0
C  C55  1  0.50079083  0.96596440  0.49996371  1  -0.30295  0  -0.034451  -0.056211  0  4.12928  0
C  C56  1  0.50079577  0.03391565  0.49994133  1  -0.067039  0  -0.034327  -0.054109  0  4.130134  0
C  C57  1  0.50052400  0.11221558  0.49989945  1  0.271697  0  -0.013113  -0.080285  0  4.13422  0
C  C58  1  0.57262339  0.15444210  0.49994979  1  0.348735  0  0.10958  0.272337  0  4.038883  0
C  C59  1  0.57356539  0.23147665  0.49997474  1  0.065068  0  -0.100344  -0.245836  0  3.99479  0
C  C60  1  0.49977791  0.27002165  0.49983167  1  0.072289  0  -0.0089  0.02928  0  3.979771  0
C  C61  1  0.42638025  0.23099745  0.49979511  1  -0.070191  0  -0.099513  -0.245926  0  3.993326  0
C  C62  1  0.42803036  0.15399325  0.49986420  1  0.484437  0  0.110386  0.27416  0  4.038469  0
C  C63  1  0.49873219  0.50122770  0.74266183  1  0.054616  0  -0.010567  -0.051058  0  3.978461  0
C  C64  1  0.49559133  0.50113098  0.64247068  1  0.019475  0  -0.014653  -0.131336  0  3.912821  0
C  C65  1  0.56915903  0.50115667  0.71640241  1  -0.000939  0  -0.007654  0.054856  0  3.894354  0
C  C66  1  0.42385152  0.50110835  0.66958587  1  -0.028901  0  0.021335  0.141218  0  3.986779  0
C  C67  1  0.56688817  0.50108309  0.66840025  1  -0.027201  0  -0.002884  0.073557  0  3.886182  0
C  C68  1  0.42586684  0.50109508  0.71774213  1  0.048267  0  -0.09349  -0.175402  0  3.969459  0
C  C69  1  0.66067793  0.50077664  0.71845409  1  0.032009  0  -0.153765  -0.19856  0  3.897266  0
C  C70  1  0.65841638  0.50061841  0.66405115  1  0.003915  0  -0.152696  -0.196351  0  3.886603  0
C  C71  1  0.49984739  0.50171042  0.02578317  1  0.054563  0  -0.008945  0.029354  0  3.982462  0
C  C72  1  0.42628092  0.50168837  0.04977002  1  0.125874  0  -0.100543  -0.246702  0  3.995753  0
C  C73  1  0.42770353  0.50143134  0.09730929  1  0.371134  0  0.110574  0.274453  0  4.038156  0
C  C74  1  0.50010384  0.50126119  0.12312903  1  0.298266  0  -0.01283  -0.079184  0  4.133521  0
C  C75  1  0.57236302  0.50150441  0.09717042  1  0.373537  0  0.110502  0.274005  0  4.037462  0
C  C76  1  0.57353839  0.50176166  0.04962462  1  0.124094  0  -0.100212  -0.246347  0  3.995561  0
C  C77  1  0.50027556  0.50100187  0.17144411  1  -0.049615  0  -0.034421  -0.055645  0  4.135103  0
C  C78  1  0.50057082  0.50085910  0.21338231  1  -0.325325  0  -0.03328  -0.054422  0  4.131972  0
C  C79  1  0.50073402  0.50067446  0.26170896  1  0.201913  0  -0.013017  -0.07547  0  4.128898  0
C  C80  1  0.42844924  0.50055887  0.28762700  1  0.425242  0  0.110139  0.271968  0  4.038521  0
C  C81  1  0.42727028  0.50021299  0.33515466  1  0.060501  0  -0.099628  -0.245311  0  3.994169  0
C  C82  1  0.50093019  0.49998000  0.35905623  1  -0.125582  0  -0.008846  0.029196  0  3.980625  0
C  C83  1  0.57451705  0.50033650  0.33512779  1  0.118959  0  -0.09959  -0.246144  0  3.994598  0
C  C84  1  0.57309739  0.50063031  0.28756832  1  0.452196  0  0.110764  0.273091  0  4.037915  0
C  C85  1  0.74844889  0.54801571  0.85614779  1  0.577557  0  0.051056  -0.045608  0  3.924462  0
C  C86  1  0.83232784  0.54911168  0.85599320  1  0.530263  0  0.126145  0.233352  0  4.030715  0
C  C87  1  0.87791902  0.50266512  0.88517034  1  0.132674  0  0.007152  -0.048453  0  4.120603  0
C  C88  1  0.83195828  0.45604250  0.91401765  1  0.532117  0  0.126796  0.234654  0  4.029865  0
C  C89  1  0.74806540  0.45660818  0.91308815  1  0.567226  0  0.051458  -0.044838  0  3.918744  0
C  C90  1  0.96290503  0.50267810  0.88536570  1  0.009576  0  -0.01496  -0.033609  0  4.084043  0
C  C91  1  0.03652922  0.50258247  0.88535415  1  -0.214086  0  -0.014492  -0.033697  0  4.08437  0
C  C92  1  0.12152020  0.50245597  0.88524042  1  0.207647  0  0.006781  -0.049626  0  4.120574  0
C  C93  1  0.16717749  0.54895257  0.85616789  1  0.462207  0  0.127489  0.234789  0  4.031835  0
C  C94  1  0.25104973  0.54787497  0.85651780  1  0.59048  0  0.051754  -0.043592  0  3.917758  0
C  C95  1  0.25124287  0.45637427  0.91342964  1  0.634789  0  0.051348  -0.046068  0  3.920567  0
C  C96  1  0.16735734  0.45572946  0.91414164  1  0.506668  0  0.126981  0.235647  0  4.029541  0
C  C97  1  0.50011159  0.73188303  0.88369633  1  0.028186  0  -0.008971  0.029276  0  3.981026  0
C  C98  1  0.42650815  0.77072628  0.88374808  1  0.093945  0  -0.100189  -0.246428  0  3.996239  0
C  C99  1  0.42776538  0.84774296  0.88377415  1  0.40594  0  0.11061  0.27408  0  4.039518  0
C  C100  1  0.50006586  0.88967291  0.88379632  1  0.203777  0  -0.013008  -0.079035  0  4.133634  0
C  C101  1  0.57238665  0.84764723  0.88381377  1  0.409595  0  0.10996  0.273193  0  4.039647  0
C  C102  1  0.57369898  0.77062687  0.88378634  1  0.088495  0  -0.100421  -0.246835  0  3.996798  0
C  C103  1  0.50004131  0.96795282  0.88392973  1  -0.117346  0  -0.033673  -0.054543  0  4.132065  0
C  C104  1  0.50000924  0.03589192  0.88415959  1  -0.124136  0  -0.034585  -0.054782  0  4.131442  0
C  C105  1  0.50003572  0.11417354  0.88440413  1  0.176157  0  -0.01345  -0.079271  0  4.133955  0
C  C106  1  0.42774292  0.15623327  0.88448380  1  0.430173  0  0.110509  0.273152  0  4.040902  0
C  C107  1  0.42649256  0.23325311  0.88464300  1  0.084521  0  -0.099968  -0.245776  0  3.995587  0
C  C108  1  0.50011335  0.27193119  0.88476411  1  0.033036  0  -0.009188  0.029134  0  3.982721  0
C  C109  1  0.57369014  0.23305950  0.88468580  1  0.087541  0  -0.099925  -0.246041  0  3.997059  0
C  C110  1  0.57236551  0.15604278  0.88453726  1  0.421627  0  0.110342  0.273677  0  4.040102  0
N  N111  1  0.29128650  0.49989161  0.50019838  1  -1.200813  0  -0.304615  -0.126761  0  3.553564  0
N  N112  1  0.70834193  0.49999139  0.50079921  1  -1.212474  0  -0.303671  -0.123955  0  3.551752  0
N  N113  1  0.70821110  0.50213508  0.88439877  1  -1.18587  0  -0.304426  -0.126822  0  3.552559  0
N  N114  1  0.29116204  0.50201514  0.88487742  1  -1.201957  0  -0.304687  -0.12542  0  3.552723  0
Cl  Cl115  1  0.32722430  0.50084334  0.64589871  1  -0.210002  0  -0.035225  -0.105093  0  1.502571  0
O  O116  1  0.56748740  0.61349431  0.50251276  1  -1.166939  0  -0.318554  -0.548169  0  2.321062  0
O  O117  1  0.43014236  0.61469610  0.49996206  1  -1.156013  0  -0.317396  -0.543098  0  2.310261  0
O  O118  1  0.43398608  0.50063385  0.56851799  1  -1.160349  0  -0.317246  -0.54845  0  2.416346  0
O  O119  1  0.57071894  0.50092076  0.57336217  1  -1.151426  0  -0.314676  -0.540222  0  2.290301  0
O  O120  1  0.43026735  0.38535662  0.49836371  1  -1.157622  0  -0.316587  -0.543509  0  2.313644  0
O  O121  1  0.56758715  0.38622010  0.50134222  1  -1.168079  0  -0.318933  -0.548004  0  2.321812  0
O  O122  1  0.56852469  0.49902469  0.43112219  1  -1.166328  0  -0.317149  -0.547885  0  2.309735  0
O  O123  1  0.43115085  0.49945786  0.42988563  1  -1.162006  0  -0.317623  -0.543619  0  2.332975  0
O  O124  1  0.43143704  0.61611905  0.88387419  1  -1.167012  0  -0.318065  -0.546854  0  2.316414  0
O  O125  1  0.56882157  0.61599947  0.88330460  1  -1.166517  0  -0.318682  -0.54795  0  2.316851  0
O  O126  1  0.56760749  0.50134361  0.81365458  1  -1.155066  0  -0.314114  -0.541333  0  2.309288  0
O  O127  1  0.43012643  0.50186396  0.81424293  1  -1.149996  0  -0.318112  -0.545326  0  2.320428  0
O  O128  1  0.56889418  0.38759880  0.88474352  1  -1.168334  0  -0.318461  -0.547146  0  2.317366  0
O  O129  1  0.43147952  0.38776678  0.88508959  1  -1.16685  0  -0.317496  -0.546224  0  2.317537  0
O  O130  1  0.43077886  0.50173611  0.95451075  1  -1.157348  0  -0.317272  -0.544455  0  2.324676  0
O  O131  1  0.56815644  0.50175764  0.95416525  1  -1.168454  0  -0.316785  -0.544824  0  2.321346  0
F  F132  1  0.12846867  0.40665551  0.44204523  1  -0.615756  0  -0.077236  -0.109597  0  1.334573  0
F  F133  1  0.12818869  0.59305808  0.55826345  1  -0.613202  0  -0.077787  -0.109776  0  1.334471  0
F  F134  1  0.87089007  0.40698076  0.44203188  1  -0.6173  0  -0.077286  -0.109233  0  1.334058  0
F  F135  1  0.87181882  0.59344893  0.55821507  1  -0.612252  0  -0.078948  -0.111673  0  1.333583  0
F  F136  1  0.35720106  0.88428534  0.49979552  1  -0.625042  0  -0.099943  -0.137989  0  1.31731  0
F  F137  1  0.64379686  0.88289259  0.50007063  1  -0.626527  0  -0.100396  -0.138121  0  1.317007  0
F  F138  1  0.35722768  0.11583603  0.49992648  1  -0.624624  0  -0.100232  -0.138225  0  1.317411  0
F  F139  1  0.64379808  0.11671899  0.50003120  1  -0.624571  0  -0.100813  -0.138599  0  1.316464  0
F  F140  1  0.64337954  0.50149115  0.12055128  1  -0.622811  0  -0.099944  -0.137804  0  1.316307  0
F  F141  1  0.35681706  0.50134799  0.12081826  1  -0.625694  0  -0.099593  -0.137714  0  1.317147  0
F  F142  1  0.64400126  0.50090039  0.26407673  1  -0.62396  0  -0.100314  -0.138395  0  1.317352  0
F  F143  1  0.35744157  0.50079062  0.26423713  1  -0.619471  0  -0.1  -0.137894  0  1.31725  0
F  F144  1  0.87082017  0.40995233  0.94298483  1  -0.614735  0  -0.076392  -0.108714  0  1.334129  0
F  F145  1  0.87155581  0.59542200  0.82731464  1  -0.6136  0  -0.078655  -0.1116  0  1.334363  0
F  F146  1  0.12836124  0.40953175  0.94294529  1  -0.618382  0  -0.076609  -0.109192  0  1.334099  0
F  F147  1  0.12803152  0.59528813  0.82746176  1  -0.613599  0  -0.07778  -0.11053  0  1.334989  0
F  F148  1  0.64337439  0.88554140  0.88390067  1  -0.619694  0  -0.099995  -0.13808  0  1.317163  0
F  F149  1  0.35676255  0.88572417  0.88382516  1  -0.619035  0  -0.099852  -0.137901  0  1.317182  0
F  F150  1  0.64334297  0.11802758  0.88448720  1  -0.619557  0  -0.10034  -0.138512  0  1.317835  0
F  F151  1  0.35674420  0.11840207  0.88438161  1  -0.6202  0  -0.099844  -0.137654  0  1.317157  0
