# generated using pymatgen
data_Zn4H66C66N16O3
_symmetry_space_group_name_H-M   'P 1'
_cell_length_a   14.81946526
_cell_length_b   14.95271027
_cell_length_c   14.97447038
_cell_angle_alpha   69.58957243
_cell_angle_beta   73.19488820
_cell_angle_gamma   111.02744890
_symmetry_Int_Tables_number   1
_chemical_formula_structural   Zn4H66C66N16O3
_chemical_formula_sum   'Zn4 H66 C66 N16 O3'
_cell_volume   2556.71210585
_cell_formula_units_Z   1
loop_
 _symmetry_equiv_pos_site_id
 _symmetry_equiv_pos_as_xyz
  1  'x, y, z'
loop_
 _atom_site_type_symbol
 _atom_site_label
 _atom_site_symmetry_multiplicity
 _atom_site_fract_x
 _atom_site_fract_y
 _atom_site_fract_z
 _atom_site_occupancy
 _atom_site_pbe_bader_charge
 _atom_site_pbe_bader_spin_density
 _atom_site_pbe_cm5_charge
 _atom_site_pbe_ddec_charge
 _atom_site_pbe_ddec_spin_density
 _atom_site_pbe_ddec_sum_bond_order
 _atom_site_pbe_magmom
Zn  Zn0  1  0.15264965  0.63654603  0.99076371  1  1.182938  0  0.736599  0.613139  0  2.480242  0
Zn  Zn1  1  0.87080728  0.37276252  0.99266206  1  1.182954  0  0.745527  0.601439  0  2.498354  0
Zn  Zn2  1  0.00416893  0.63919765  0.86667644  1  1.188184  0  0.739658  0.614952  0  2.424584  0
Zn  Zn3  1  0.99786953  0.36283806  0.13401656  1  1.184657  0  0.746879  0.607601  0  2.482615  0
H  H4  1  0.99661468  0.32568546  0.82048587  1  0.099823  0  0.110459  0.094847  0  1.03946  0
H  H5  1  0.02111873  0.58276716  0.55728514  1  0.004417  0  0.088404  0.087472  0  0.991817  0
H  H6  1  0.64688939  0.32629116  0.16474879  1  0.082157  0  0.115638  0.102562  0  1.01303  0
H  H7  1  0.94220635  0.43803247  0.61571798  1  0.001031  0  0.08613  0.081227  0  0.987694  0
H  H8  1  0.01402007  0.32139897  0.51189563  1  0.024089  0  0.08664  0.087042  0  0.99241  0
H  H9  1  0.02062840  0.31937748  0.66442384  1  0.044779  0  0.09265  0.023798  0  1.001354  0
H  H10  1  0.30243804  0.55783959  0.36203235  1  0.045526  0  0.090531  0.090543  0  0.98097  0
H  H11  1  0.27400322  0.66446959  0.31106630  1  -0.007877  0  0.083005  0.072522  0  1.015465  0
H  H12  1  0.23198283  0.67340958  0.46907405  1  0.000786  0  0.085475  0.077175  0  0.999475  0
H  H13  1  0.28916292  0.58990508  0.50607786  1  0.049696  0  0.093754  0.094481  0  0.997043  0
H  H14  1  0.15259856  0.35523057  0.46115106  1  0.023706  0  0.094694  0.097523  0  1.0012  0
H  H15  1  0.16116979  0.90413231  0.66525684  1  0.055326  0  0.115647  0.102036  0  1.005023  0
H  H16  1  0.64233156  0.28642295  0.50425137  1  0.038934  0  0.094074  0.101156  0  1.008726  0
H  H17  1  0.82405611  0.68463707  0.78737060  1  0.096109  0  0.113932  0.100815  0  1.017798  0
H  H18  1  0.33494660  0.94822861  0.46227542  1  0.020343  0  0.089677  0.094767  0  0.994511  0
H  H19  1  0.26904052  0.02799578  0.45334705  1  0.018613  0  0.086335  0.086952  0  0.998966  0
H  H20  1  0.50023067  0.10587840  0.28858017  1  0.03413  0  0.088228  0.090153  0  1.001294  0
H  H21  1  0.43478621  0.18621764  0.27925145  1  0.037127  0  0.089251  0.092624  0  0.991846  0
H  H22  1  0.34881967  0.32280199  0.89777351  1  0.041624  0  0.094081  0.096015  0  1.006319  0
H  H23  1  0.51759126  0.32929277  0.88869052  1  0.023693  0  0.090977  0.089705  0  1.018168  0
H  H24  1  0.68119649  0.73981158  0.82158233  1  0.038683  0  0.090591  0.093672  0  0.99294  0
H  H25  1  0.73275731  0.77809387  0.68222961  1  0.019279  0  0.088641  0.090169  0  0.996605  0
H  H26  1  0.91878577  0.09055539  0.24683448  1  0.088571  0  0.114494  0.100712  0  1.022717  0
H  H27  1  0.50920102  0.73333435  0.82936289  1  0.024755  0  0.089146  0.090396  0  0.997214  0
H  H28  1  0.02065249  0.31790183  0.35366058  1  0.100038  0  0.112001  0.098154  0  1.010779  0
H  H29  1  0.55890610  0.77154613  0.69008870  1  0.047549  0  0.091686  0.09595  0  0.98783  0
H  H30  1  0.78520971  0.78716229  0.04249694  1  0.059682  0  0.100098  0.115899  0  1.011439  0
H  H31  1  0.00587315  0.98158845  0.25200861  1  0.010179  0  0.085997  0.085595  0  1.000072  0
H  H32  1  0.87123584  0.88939304  0.36525976  1  0.032489  0  0.088553  0.090824  0  0.993495  0
H  H33  1  0.02123960  0.81828188  0.26034611  1  0.066063  0  0.085825  0.088295  0  1.049982  0
H  H34  1  0.88347793  0.72662142  0.36628083  1  0.027763  0  0.093654  0.101726  0  0.978328  0
H  H35  1  0.65662041  0.32611807  0.94044573  1  0.055574  0  0.113595  0.099706  0  1.005735  0
H  H36  1  0.24683336  0.67244600  0.16129789  1  0.06929  0  0.109714  0.093357  0  1.039787  0
H  H37  1  0.80978744  0.12988436  0.00432127  1  0.081087  0  0.118326  0.107288  0  1.013973  0
H  H38  1  0.82754521  0.34179977  0.34620770  1  0.105952  0  0.113015  0.099164  0  1.012943  0
H  H39  1  0.81143458  0.64629039  0.02752789  1  0.095909  0  0.116617  0.106278  0  1.001612  0
H  H40  1  0.34380400  0.67025840  0.80111668  1  0.099498  0  0.115293  0.102106  0  1.019011  0
H  H41  1  0.18100781  0.88461106  0.99961155  1  0.05349  0  0.104173  0.071825  0  0.964142  0
H  H42  1  0.21873613  0.78236564  0.03659639  1  -0.005126  0  0.085431  0.029689  0  1.051847  0
H  H43  1  0.20129822  0.91982880  0.14487847  1  0.033826  0  0.096812  0.093188  0  0.972606  0
H  H44  1  0.21812429  0.80472139  0.19742706  1  0.029429  0  0.093169  0.084256  0  0.996091  0
H  H45  1  0.39571669  0.90006604  0.02564844  1  0.009244  0  0.083711  0.106146  0  1.01025  0
H  H46  1  0.40104386  0.98472444  0.08497693  1  0.027721  0  0.088128  0.115473  0  1.00433  0
H  H47  1  0.37846098  0.01507278  0.97048480  1  0.033424  0  0.087576  0.116833  0  1.004828  0
H  H48  1  0.37838299  0.89582422  0.80448122  1  0.077929  0  0.113719  0.100509  0  1.014823  0
H  H49  1  0.25863756  0.28623121  0.62286069  1  0.053018  0  0.103332  0.072789  0  0.957134  0
H  H50  1  0.14817753  0.23600766  0.59507578  1  0.010425  0  0.08753  0.041937  0  1.00007  0
H  H51  1  0.12546795  0.23009699  0.80786476  1  0.025063  0  0.091187  0.088035  0  0.975916  0
H  H52  1  0.01445936  0.17519336  0.78275375  1  -0.013337  0  0.084916  0.074235  0  0.994061  0
H  H53  1  0.06862407  0.04085974  0.75472089  1  -0.001521  0  0.079217  0.099775  0  1.013463  0
H  H54  1  0.04004247  0.02211040  0.88545138  1  0.052847  0  0.085706  0.120034  0  1.011847  0
H  H55  1  0.17833082  0.09328438  0.78248423  1  0.024265  0  0.081109  0.104501  0  1.014956  0
H  H56  1  0.39526048  0.09286603  0.76693947  1  0.037618  0  0.084958  0.11387  0  1.026019  0
H  H57  1  0.51448404  0.08245979  0.73568279  1  0.007959  0  0.084537  0.114138  0  1.005853  0
H  H58  1  0.52779248  0.21506941  0.69118070  1  0.040143  0  0.090631  0.128331  0  0.99379  0
H  H59  1  0.17125855  0.31172059  0.00304340  1  0.092264  0  0.11484  0.101002  0  1.003308  0
H  H60  1  0.59722134  0.93290492  0.06711081  1  0.007383  0  0.099  0.066009  0  0.970141  0
H  H61  1  0.66158892  0.99204595  0.13187374  1  0.0299  0  0.085924  0.037556  0  1.059361  0
H  H62  1  0.51612530  0.74533967  0.21683848  1  0.040039  0  0.08957  0.083605  0  0.979909  0
H  H63  1  0.61055234  0.79286324  0.26272364  1  0.037594  0  0.094557  0.092077  0  0.990526  0
H  H64  1  0.52874957  0.90066072  0.31154953  1  0.012572  0  0.084806  0.108601  0  1.007018  0
H  H65  1  0.42950775  0.75700669  0.38238240  1  0.050797  0  0.090462  0.123303  0  1.025084  0
H  H66  1  0.42931459  0.85084909  0.27055258  1  0.011504  0  0.079373  0.099235  0  1.016305  0
H  H67  1  0.16039518  0.68437133  0.63156520  1  0.082389  0  0.109896  0.094952  0  1.017336  0
H  H68  1  0.96931675  0.47419523  0.44118775  1  0.008245  0  0.086527  0.083044  0  0.987898  0
H  H69  1  0.07365574  0.61298182  0.38030597  1  0.049479  0  0.08678  0.084779  0  0.991664  0
C  C70  1  0.99978261  0.69916243  0.10579259  1  1.016059  0  0.18487  0.297906  0  4.059952  0
C  C71  1  0.31140296  0.88052382  0.78475111  1  0.425485  0  0.001206  -0.069021  0  4.010913  0
C  C72  1  0.19803810  0.39946181  0.96135810  1  0.374405  0  0.009996  -0.043784  0  3.948904  0
C  C73  1  0.70671752  0.33678017  0.19414137  1  0.41991  0  0.007977  -0.046321  0  3.959623  0
C  C74  1  0.11348869  0.59686814  0.69318770  1  0.364572  0  -0.001879  -0.064238  0  3.97916  0
C  C75  1  0.30220729  0.49145252  0.87876060  1  0.018824  0  -0.035877  -0.030844  0  4.07433  0
C  C76  1  0.09330274  0.50293558  0.68227196  1  0.017632  0  -0.032357  -0.03148  0  4.000466  0
C  C77  1  0.30635189  0.95063717  0.69697500  1  -0.022799  0  -0.037891  -0.026341  0  4.102847  0
C  C78  1  0.85027177  0.05955587  0.13702759  1  0.027488  0  -0.037896  -0.016723  0  4.099147  0
C  C79  1  0.04464451  0.52703323  0.43964113  1  -0.057758  0  -0.162031  -0.184163  0  3.871702  0
C  C80  1  0.02278862  0.51178873  0.55218083  1  0.006595  0  -0.160429  -0.185177  0  3.884361  0
C  C81  1  0.69221305  0.31207941  0.29889061  1  0.019286  0  -0.037616  -0.03597  0  4.079918  0
C  C82  1  0.09684700  0.38294771  0.49050647  1  -0.04755  0  -0.165485  -0.270007  0  3.866987  0
C  C83  1  0.24196416  0.58353946  0.38149429  1  -0.027619  0  -0.160557  -0.189021  0  3.869968  0
C  C84  1  0.13241821  0.49730685  0.39952377  1  0.072464  0  -0.011606  0.137952  0  3.841209  0
C  C85  1  0.79693097  0.59685909  0.82866391  1  0.375486  0  0.002219  -0.063497  0  3.997607  0
C  C86  1  0.11236629  0.49903281  0.57989196  1  0.066674  0  -0.00972  0.076004  0  3.822641  0
C  C87  1  0.09898804  0.38783569  0.59170031  1  0.429973  0  0.004263  0.143079  0  3.803549  0
C  C88  1  0.22576101  0.59347442  0.48374799  1  -0.038461  0  -0.161629  -0.189264  0  3.879715  0
C  C89  1  0.49334396  0.16952098  0.40267320  1  -0.028867  0  -0.022629  0.009555  0  3.917018  0
C  C90  1  0.58767557  0.24249873  0.39845019  1  0.021823  0  -0.013372  0.042931  0  4.084032  0
C  C91  1  0.57504616  0.22800994  0.50079787  1  -0.058813  0  -0.10452  -0.214503  0  3.964102  0
C  C92  1  0.70222161  0.50533230  0.85103251  1  0.023293  0  -0.040529  -0.036086  0  4.117049  0
C  C93  1  0.48240955  0.13990426  0.59954824  1  -0.032827  0  -0.016391  0.117272  0  3.960597  0
C  C94  1  0.39368097  0.05798980  0.60132262  1  0.026189  0  -0.018964  -0.032963  0  4.032334  0
C  C95  1  0.40121395  0.08155433  0.49969804  1  -0.059332  0  -0.02362  0.014108  0  3.944317  0
C  C96  1  0.34649889  0.03068914  0.44418612  1  -0.022463  0  -0.156588  -0.19255  0  3.902127  0
C  C97  1  0.07463750  0.40514709  0.29173822  1  0.351607  0  -0.005041  -0.073421  0  4.028963  0
C  C98  1  0.45110685  0.13049790  0.33416979  1  -0.038427  0  -0.157231  -0.192625  0  3.900159  0
C  C99  1  0.50543149  0.59596257  0.80110582  1  -0.049866  0  -0.018953  0.020019  0  3.89738  0
C  C100  1  0.40771810  0.49725877  0.84361438  1  0.041556  0  -0.012877  0.034835  0  4.063703  0
C  C101  1  0.41956186  0.40290178  0.86853357  1  -0.014451  0  -0.102163  -0.145173  0  4.026065  0
C  C102  1  0.51652733  0.40666176  0.86345826  1  -0.085159  0  -0.104277  -0.148984  0  4.034408  0
C  C103  1  0.13782729  0.49546939  0.29876746  1  0.032878  0  -0.036071  -0.044352  0  4.022045  0
C  C104  1  0.61070547  0.50491762  0.83315755  1  0.055745  0  -0.019624  0.02807  0  4.084185  0
C  C105  1  0.60198291  0.59957132  0.79659918  1  -0.077929  0  -0.021043  0.017207  0  3.906423  0
C  C106  1  0.66012717  0.72182374  0.76269159  1  -0.028233  0  -0.157126  -0.195271  0  3.903509  0
C  C107  1  0.55084137  0.71777246  0.76767058  1  -0.046774  0  -0.155496  -0.191376  0  3.897874  0
C  C108  1  0.89377359  0.81467267  0.20685540  1  -0.018839  0  -0.024552  0.000325  0  3.893568  0
C  C109  1  0.71178761  0.41422590  0.90610067  1  0.405485  0  0.002166  -0.061809  0  4.007843  0
C  C110  1  0.87032523  0.77551303  0.13893353  1  -0.003729  0  -0.011755  0.072854  0  4.075064  0
C  C111  1  0.81360159  0.81700041  0.09158549  1  -0.016774  0  -0.108614  -0.261555  0  3.989586  0
C  C112  1  0.79413712  0.89913184  0.10010739  1  0.453108  0  0.073005  0.201551  0  4.054469  0
C  C113  1  0.83729704  0.95353028  0.15193213  1  0.001115  0  -0.025239  -0.076747  0  4.062749  0
C  C114  1  0.28643723  0.58243941  0.85903988  1  0.419654  0  0.007463  -0.047924  0  3.951423  0
C  C115  1  0.87911366  0.90068225  0.21045031  1  -0.039995  0  -0.02254  0.024618  0  3.94121  0
C  C116  1  0.92680279  0.90556370  0.28696751  1  -0.026354  0  -0.15945  -0.196451  0  3.914484  0
C  C117  1  0.93799993  0.80446041  0.28780809  1  -0.033942  0  -0.157843  -0.187173  0  3.890288  0
C  C118  1  0.18958978  0.58546768  0.19361735  1  0.368552  0  -0.002083  -0.063549  0  4.010662  0
C  C119  1  0.79907378  0.34623854  0.28645224  1  0.373001  0  0.006397  -0.047027  0  3.954159  0
C  C120  1  0.87792884  0.65842563  0.04786065  1  0.410217  0  0.00787  -0.035382  0  3.975767  0
C  C121  1  0.90788715  0.70838291  0.10694453  1  0.016855  0  -0.041517  -0.135734  0  4.071024  0
C  C122  1  0.17763800  0.82149967  0.06861561  1  0.424735  0  -0.062087  0.045166  0  3.886136  0
C  C123  1  0.23561719  0.87230868  0.12187077  1  -0.005707  0  -0.166195  -0.137558  0  3.981327  0
C  C124  1  0.35942977  0.94720353  0.04660697  1  -0.064442  0  -0.241159  -0.350128  0  3.970928  0
C  C125  1  0.02960092  0.41413404  0.78911954  1  0.383688  0  -0.002976  -0.069534  0  3.982958  0
C  C126  1  0.17552228  0.27229707  0.64208081  1  0.443015  0  -0.072687  0.03281  0  3.939257  0
C  C127  1  0.09830454  0.19104612  0.76312025  1  0.008533  0  -0.173202  -0.141806  0  3.984586  0
C  C128  1  0.09615486  0.08085713  0.79866815  1  -0.072816  0  -0.245311  -0.345772  0  3.976789  0
C  C129  1  0.47975874  0.13215493  0.70366892  1  -0.064355  0  -0.240275  -0.405436  0  4.00299  0
C  C130  1  0.63813234  0.92174945  0.11734922  1  0.446126  0  -0.073672  0.031336  0  3.906583  0
C  C131  1  0.56131414  0.81478408  0.22656870  1  -0.031931  0  -0.171471  -0.139175  0  3.969349  0
C  C132  1  0.48268875  0.83151396  0.30186531  1  -0.071627  0  -0.24448  -0.347174  0  3.967363  0
C  C133  1  0.20104240  0.88404384  0.71330298  1  0.462482  0  0.00471  -0.058618  0  3.995698  0
C  C134  1  0.89405320  0.11675917  0.18554379  1  0.403291  0  0.005057  -0.058845  0  3.986713  0
C  C135  1  0.83735907  0.13641599  0.06262244  1  0.398636  0  0.004827  -0.061504  0  4.002283  0
N  N136  1  0.02105256  0.64788577  0.05132348  1  -0.786475  0  -0.291684  -0.283654  0  3.597245  0
N  N137  1  0.85706090  0.56255463  0.86736120  1  -0.775565  0  -0.269095  -0.174897  0  3.541093  0
N  N138  1  0.08750225  0.43911736  0.19060357  1  -0.78979  0  -0.281761  -0.175207  0  3.589592  0
N  N139  1  0.80398263  0.44895493  0.91534778  1  -0.800247  0  -0.271861  -0.170175  0  3.560592  0
N  N140  1  0.15891786  0.55183140  0.12901746  1  -0.789947  0  -0.274566  -0.183723  0  3.52363  0
N  N141  1  0.86984779  0.38522677  0.18325245  1  -0.766669  0  -0.281024  -0.181899  0  3.596532  0
N  N142  1  0.94680717  0.62421589  0.01404549  1  -0.774759  0  -0.28324  -0.182129  0  3.626197  0
N  N143  1  0.18265239  0.54706443  0.92702134  1  -0.782333  0  -0.286656  -0.187404  0  3.634815  0
N  N144  1  0.01189065  0.45280940  0.85785775  1  -0.79111  0  -0.290786  -0.183094  0  3.640261  0
N  N145  1  0.14843743  0.78376512  0.80294683  1  -0.796714  0  -0.269925  -0.17024  0  3.54207  0
N  N146  1  0.90496829  0.21781085  0.14411314  1  -0.798065  0  -0.276122  -0.175681  0  3.561597  0
N  N147  1  0.86886391  0.22947175  0.06841072  1  -0.792387  0  -0.275127  -0.173179  0  3.57184  0
N  N148  1  0.21745772  0.78122822  0.84705709  1  -0.817874  0  -0.2696  -0.18464  0  3.55265  0
N  N149  1  0.12835484  0.43459385  0.98975176  1  -0.788089  0  -0.279218  -0.177557  0  3.621629  0
N  N150  1  0.06340247  0.56501018  0.79887829  1  -0.78551  0  -0.286738  -0.183345  0  3.643808  0
N  N151  1  0.81277131  0.37947327  0.12685152  1  -0.799725  0  -0.285611  -0.185805  0  3.655341  0
O  O152  1  0.06429280  0.73898820  0.14750482  1  -1.080233  0  -0.185615  -0.228617  0  2.533426  0
O  O153  1  0.18837459  0.38028800  0.60528939  1  -1.046396  0  -0.231636  -0.260518  0  2.448129  0
O  O154  1  0.73552630  0.92824949  0.04980488  1  -1.070418  0  -0.216237  -0.253345  0  2.474058  0
