# generated using pymatgen
data_Zn2H12C30(N3O)3
_symmetry_space_group_name_H-M   'P 1'
_cell_length_a   18.48723312
_cell_length_b   18.61774293
_cell_length_c   18.57487404
_cell_angle_alpha   101.26029338
_cell_angle_beta   109.39149646
_cell_angle_gamma   112.09712521
_symmetry_Int_Tables_number   1
_chemical_formula_structural   Zn2H12C30(N3O)3
_chemical_formula_sum   'Zn4 H24 C60 N18 O6'
_cell_volume   5199.23213200
_cell_formula_units_Z   2
loop_
 _symmetry_equiv_pos_site_id
 _symmetry_equiv_pos_as_xyz
  1  'x, y, z'
loop_
 _atom_site_type_symbol
 _atom_site_label
 _atom_site_symmetry_multiplicity
 _atom_site_fract_x
 _atom_site_fract_y
 _atom_site_fract_z
 _atom_site_occupancy
 _atom_site_pbe_bader_charge
 _atom_site_pbe_bader_spin_density
 _atom_site_pbe_cm5_charge
 _atom_site_pbe_ddec_charge
 _atom_site_pbe_ddec_spin_density
 _atom_site_pbe_ddec_sum_bond_order
 _atom_site_pbe_magmom
Zn  Zn0  1  0.90243103  0.01145388  0.35698610  1  1.215839  0  0.753754  0.680319  0  2.427747  0
Zn  Zn1  1  0.11192806  0.99907953  0.61377671  1  1.230224  0  0.728728  0.647145  0  2.460031  0
Zn  Zn2  1  0.10882370  0.11676509  0.48304767  1  1.188909  0  0.74285  0.593276  0  2.502911  0
Zn  Zn3  1  0.88950542  0.90259102  0.52955221  1  1.198688  0  0.752862  0.630603  0  2.447857  0
H  H4  1  0.90917938  0.01749340  0.18788268  1  0.137187  0  0.128747  0.123149  0  0.979593  0
H  H5  1  0.68958510  0.00383703  0.41715276  1  0.095755  0  0.111188  0.101744  0  1.007226  0
H  H6  1  0.85220047  0.71765343  0.53139761  1  0.097687  0  0.122983  0.112109  0  0.988784  0
H  H7  1  0.10645815  0.25923453  0.60988447  1  0.094076  0  0.119881  0.107786  0  1.013921  0
H  H8  1  0.17472412  0.20861403  0.35470587  1  0.10912  0  0.12951  0.121181  0  0.977264  0
H  H9  1  0.86639786  0.02245550  0.65150259  1  0.109107  0  0.13065  0.127675  0  0.979679  0
H  H10  1  0.38539347  0.62268436  0.95018008  1  0.094879  0  0.107073  0.042647  0  0.948153  0
H  H11  1  0.55016604  0.44477795  0.19074993  1  0.066366  0  0.107951  0.046004  0  0.944956  0
H  H12  1  0.16476903  0.79919752  0.67437207  1  0.460758  0  0.317484  0.318134  0  0.923704  0
H  H13  1  0.19589953  0.90286534  0.69901945  1  0.452937  0  0.306575  0.312487  0  0.958545  0
H  H14  1  0.82114079  0.20348885  0.40536910  1  0.4589  0  0.32019  0.318285  0  0.924962  0
H  H15  1  0.14878664  0.14291916  0.77509875  1  0.112573  0  0.115925  0.100908  0  1.022988  0
H  H16  1  0.79910339  0.10850470  0.34570138  1  0.462932  0  0.314215  0.312262  0  0.936241  0
H  H17  1  0.67413232  0.84769205  0.18022989  1  0.148796  0  0.131052  0.087361  0  0.93907  0
H  H18  1  0.32458387  0.14836822  0.82938090  1  0.119863  0  0.128196  0.078803  0  0.931808  0
H  H19  1  0.66498517  0.65859484  0.04414147  1  0.073885  0  0.112185  0.050643  0  0.933817  0
H  H20  1  0.28332751  0.35029833  0.00777109  1  0.089134  0  0.113622  0.052112  0  0.937936  0
H  H21  1  0.56557865  0.46300846  0.97618985  1  0.104021  0  0.119703  0.125559  0  0.959765  0
H  H22  1  0.38535859  0.54639173  0.07948234  1  0.107839  0  0.118696  0.122818  0  0.962524  0
H  H23  1  0.15423666  0.01598647  0.36430846  1  0.122748  0  0.122417  0.115754  0  0.996958  0
H  H24  1  0.67384609  0.79718297  0.49795833  1  0.095435  0  0.115043  0.107655  0  1.001964  0
H  H25  1  0.80177890  0.72788333  0.39112177  1  0.113618  0  0.129988  0.122111  0  0.988819  0
H  H26  1  0.26399444  0.31090452  0.63763789  1  0.112219  0  0.135685  0.131805  0  0.968387  0
H  H27  1  0.14040823  0.86533391  0.51527578  1  0.125464  0  0.120891  0.114764  0  1.015777  0
C  C28  1  0.97253261  0.05967304  0.23964940  1  0.419389  0  0.025353  -0.029849  0  3.929555  0
C  C29  1  0.42543271  0.52788098  0.05634658  1  -0.019389  0  -0.053998  -0.118053  0  3.599198  0
C  C30  1  0.53248420  0.57019589  0.01948149  1  -0.024916  0  0.010485  -0.000301  0  3.628634  0
C  C31  1  0.41738797  0.43861584  0.03507696  1  -0.032561  0  0.007324  -0.008166  0  3.638787  0
C  C32  1  0.65824851  0.69417363  0.23274089  1  -0.364099  0  -0.032578  -0.063149  0  4.149814  0
C  C33  1  0.34140991  0.31910450  0.80823034  1  -0.386191  0  -0.038845  -0.077124  0  4.158678  0
C  C34  1  0.51890651  0.47543836  0.07919226  1  -0.004555  0  0.003638  -0.005817  0  3.652305  0
C  C35  1  0.43036209  0.53176240  0.97428792  1  0.003938  0  0.006466  -0.003382  0  3.639535  0
C  C36  1  0.52748047  0.56662357  0.10377723  1  0.137546  0  0.0322  0.126712  0  3.752988  0
C  C37  1  0.42354536  0.44229743  0.95087271  1  0.092897  0  0.029907  0.121398  0  3.747181  0
C  C38  1  0.59118900  0.63409130  0.17828295  1  -0.016783  0  -0.052172  -0.133266  0  4.091718  0
C  C39  1  0.08023718  0.10615989  0.73204147  1  0.440682  0  0.019771  -0.031719  0  3.937967  0
C  C40  1  0.37517025  0.37641496  0.87354796  1  0.099691  0  -0.044996  -0.1086  0  4.098229  0
C  C41  1  0.99034928  0.66924749  0.58985023  1  -0.274542  0  -0.037861  -0.055666  0  4.130485  0
C  C42  1  0.97513302  0.31530533  0.54806611  1  -0.516486  0  -0.034716  -0.051537  0  4.115884  0
C  C43  1  0.06675296  0.82476210  0.62372931  1  0.964121  0  0.209369  0.358296  0  4.099943  0
C  C44  1  0.91027496  0.16716008  0.45420337  1  0.997812  0  0.2187  0.374334  0  4.092904  0
C  C45  1  0.98834280  0.60174878  0.58689254  1  0.098929  0  -0.055648  -0.075472  0  4.359366  0
C  C46  1  0.97606321  0.38326020  0.56138877  1  0.309755  0  -0.055231  -0.076304  0  4.354688  0
C  C47  1  0.98437808  0.52742520  0.58087612  1  -0.176549  0  -0.035326  -0.024608  0  4.273653  0
C  C48  1  0.98004395  0.45816750  0.57313439  1  0.018357  0  -0.035115  -0.024897  0  4.273006  0
C  C49  1  0.55453826  0.86696001  0.42850109  1  -0.31034  0  -0.03048  -0.050808  0  4.088759  0
C  C50  1  0.99199439  0.74487146  0.59113951  1  0.153444  0  -0.040709  -0.086856  0  4.214653  0
C  C51  1  0.21595275  0.89350189  0.39999744  1  -0.162475  0  -0.036783  -0.076706  0  4.071175  0
C  C52  1  0.48067724  0.85842355  0.41191496  1  0.055524  0  -0.062257  -0.086811  0  4.345561  0
C  C53  1  0.27086003  0.87455308  0.39244883  1  -0.066438  0  -0.05081  -0.056601  0  4.342583  0
C  C54  1  0.40398844  0.85617856  0.39921015  1  0.055304  0  -0.033365  -0.015369  0  4.267281  0
C  C55  1  0.33709232  0.86119355  0.39168657  1  -0.073095  0  -0.039208  -0.037268  0  4.260129  0
C  C56  1  0.05178060  0.14535231  0.17532945  1  -0.262887  0  -0.029897  -0.066886  0  4.080526  0
C  C57  1  0.01154437  0.13393423  0.82191414  1  -0.441376  0  -0.024478  -0.052194  0  4.06169  0
C  C58  1  0.04795892  0.15718803  0.11155187  1  0.100065  0  -0.046639  -0.056886  0  4.339432  0
C  C59  1  0.02135449  0.15286262  0.89315371  1  0.235272  0  -0.051511  -0.070136  0  4.335147  0
C  C60  1  0.04134290  0.16438625  0.03953449  1  0.13787  0  -0.030851  -0.023002  0  4.254337  0
C  C61  1  0.97573273  0.23977342  0.52484729  1  0.174839  0  -0.036643  -0.084341  0  4.189839  0
C  C62  1  0.03158855  0.16304391  0.96998821  1  -0.27851  0  -0.029853  -0.01934  0  4.257706  0
C  C63  1  0.14410745  0.98565947  0.40702887  1  0.382199  0  0.015962  -0.04314  0  3.926619  0
C  C64  1  0.69231659  0.85161061  0.48101924  1  0.407994  0  -7.9e-05  -0.068897  0  3.990005  0
C  C65  1  0.80043115  0.77406852  0.36373191  1  0.431953  0  0.029116  -0.043818  0  3.887934  0
C  C66  1  0.25899454  0.25689423  0.65391374  1  0.409277  0  0.028978  -0.048876  0  3.894458  0
C  C67  1  0.13620635  0.90805076  0.48374211  1  0.426059  0  0.021739  -0.02745  0  3.905554  0
C  C68  1  0.70134596  0.95757485  0.43942759  1  0.451734  0  0.005031  -0.047262  0  4.003706  0
C  C69  1  0.77038134  0.84624033  0.28738158  1  0.416772  0  0.078955  0.023632  0  4.039575  0
C  C70  1  0.26708790  0.16670638  0.71461486  1  0.396969  0  0.075325  0.017191  0  4.062527  0
C  C71  1  0.92153415  0.76122604  0.56049250  1  0.421243  0  0.014978  -0.039088  0  4.012312  0
C  C72  1  0.16528626  0.92358623  0.42420469  1  0.133568  0  -0.026972  0.036397  0  4.193006  0
C  C73  1  0.04391165  0.22067167  0.55620736  1  0.450906  0  0.020025  -0.018428  0  3.968724  0
C  C74  1  0.10821026  0.15811136  0.32525377  1  0.43935  0  0.025041  -0.038273  0  3.940672  0
C  C75  1  0.93550004  0.04487905  0.66957371  1  0.449387  0  0.029403  -0.026222  0  3.889016  0
C  C76  1  0.04615275  0.12365421  0.24203116  1  0.127833  0  -0.026635  0.028452  0  4.21432  0
C  C77  1  0.00804920  0.10161091  0.74539801  1  0.163618  0  -0.026246  0.025837  0  4.197198  0
C  C78  1  0.38481940  0.56472982  0.91862105  1  0.951964  0  0.10554  0.27781  0  3.969003  0
C  C79  1  0.56666800  0.44691739  0.13836625  1  0.978517  0  0.104102  0.277812  0  3.976022  0
C  C80  1  0.73813690  0.88478074  0.23461991  1  0.797002  0  0.109245  0.250301  0  3.912619  0
C  C81  1  0.27569575  0.11722429  0.76423502  1  0.85941  0  0.108607  0.251599  0  3.935214  0
C  C82  1  0.59645107  0.64816357  0.02077539  1  0.952521  0  0.109377  0.277053  0  3.966978  0
C  C83  1  0.64140841  0.88800444  0.44751351  1  0.090016  0  -0.041815  0.008607  0  4.233936  0
C  C84  1  0.35268809  0.36344614  0.03751284  1  0.943638  0  0.109889  0.274541  0  3.964615  0
C  C85  1  0.73634803  0.76501733  0.29066954  1  0.188176  0  -0.000496  0.046881  0  4.132893  0
C  C86  1  0.29607141  0.25364539  0.73180546  1  0.159068  0  -0.00627  0.035567  0  4.149418  0
C  C87  1  0.52606488  0.48198207  0.99967009  1  -0.022799  0  -0.053353  -0.105787  0  3.595884  0
N  N88  1  0.98990872  0.05702922  0.31491803  1  -0.804705  0  -0.280109  -0.200106  0  3.601098  0
N  N89  1  0.77990703  0.96225512  0.46517290  1  -0.707504  0  -0.26921  -0.237538  0  3.304419  0
N  N90  1  0.84845637  0.89660648  0.35463946  1  -0.714296  0  -0.243072  -0.163129  0  3.598249  0
N  N91  1  0.21570228  0.12388999  0.63321516  1  -0.684478  0  -0.231087  -0.189669  0  3.422885  0
N  N92  1  0.95109349  0.84241912  0.57318053  1  -0.833149  0  -0.287825  -0.186636  0  3.638066  0
N  N93  1  0.02271426  0.14467982  0.50849954  1  -0.817869  0  -0.291677  -0.201067  0  3.593773  0
N  N94  1  0.07363798  0.11812990  0.36798074  1  -0.79678  0  -0.270219  -0.170349  0  3.581798  0
N  N95  1  0.96337219  0.01702850  0.61734266  1  -0.812995  0  -0.270827  -0.165976  0  3.56509  0
N  N96  1  0.15310873  0.84391977  0.65757182  1  -1.24145  0  -0.585349  -0.637178  0  3.290042  0
N  N97  1  0.82897115  0.15211632  0.40293903  1  -1.252509  0  -0.576767  -0.620614  0  3.29081  0
N  N98  1  0.05242800  0.05480589  0.65591983  1  -0.763532  0  -0.27563  -0.184387  0  3.611432  0
N  N99  1  0.04149038  0.88225282  0.61259661  1  -0.789852  0  -0.282258  -0.290771  0  3.43779  0
N  N100  1  0.93968629  0.11172136  0.44579903  1  -0.831036  0  -0.299632  -0.296395  0  3.573891  0
N  N101  1  0.10808545  0.00650264  0.45449892  1  -0.768297  0  -0.28039  -0.188891  0  3.615557  0
N  N102  1  0.77413913  0.89695738  0.49105763  1  -0.840015  0  -0.291856  -0.199748  0  3.685661  0
N  N103  1  0.86629159  0.85419632  0.40189237  1  -0.669827  0  -0.218899  -0.126084  0  3.40873  0
N  N104  1  0.21145050  0.17827719  0.59655270  1  -0.729288  0  -0.237928  -0.118086  0  3.553569  0
N  N105  1  0.10313948  0.95843358  0.50144380  1  -0.809995  0  -0.28244  -0.196953  0  3.625643  0
O  O106  1  0.34843753  0.53122807  0.84400071  1  -1.058181  0  -0.25632  -0.337056  0  2.086928  0
O  O107  1  0.62200459  0.42907514  0.13194606  1  -1.057255  0  -0.261065  -0.344181  0  2.079072  0
O  O108  1  0.78169428  0.96156810  0.25038440  1  -1.104554  0  -0.265787  -0.355876  0  2.23801  0
O  O109  1  0.22836140  0.03975703  0.73495328  1  -1.09699  0  -0.253432  -0.351393  0  2.239492  0
O  O110  1  0.57784490  0.70050954  0.00185755  1  -1.058064  0  -0.251233  -0.343752  0  2.092355  0
O  O111  1  0.37232568  0.31671750  0.06761893  1  -1.046956  0  -0.247722  -0.333327  0  2.086931  0
