# generated using pymatgen
data_LiH8C2IN2
_symmetry_space_group_name_H-M   'P 1'
_cell_length_a   4.89958562
_cell_length_b   5.95840598
_cell_length_c   10.24311826
_cell_angle_alpha   89.99986365
_cell_angle_beta   90.00042808
_cell_angle_gamma   102.62054725
_symmetry_Int_Tables_number   1
_chemical_formula_structural   LiH8C2IN2
_chemical_formula_sum   'Li2 H16 C4 I2 N4'
_cell_volume   291.80959228
_cell_formula_units_Z   2
loop_
 _symmetry_equiv_pos_site_id
 _symmetry_equiv_pos_as_xyz
  1  'x, y, z'
loop_
 _atom_site_type_symbol
 _atom_site_label
 _atom_site_symmetry_multiplicity
 _atom_site_fract_x
 _atom_site_fract_y
 _atom_site_fract_z
 _atom_site_occupancy
 _atom_site_hle17_bader_spin_density
 _atom_site_hle17_ddec_charge
 _atom_site_hle17_ddec_spin_density
 _atom_site_hle17_ddec_sum_bond_order
 _atom_site_hle17_magmom
 _atom_site_hse06_10hf_bader_spin_density
 _atom_site_hse06_10hf_ddec_charge
 _atom_site_hse06_10hf_ddec_spin_density
 _atom_site_hse06_10hf_ddec_sum_bond_order
 _atom_site_hse06_10hf_magmom
 _atom_site_hse06_bader_spin_density
 _atom_site_hse06_ddec_charge
 _atom_site_hse06_ddec_spin_density
 _atom_site_hse06_ddec_sum_bond_order
 _atom_site_hse06_magmom
 _atom_site_pbe_bader_spin_density
 _atom_site_pbe_cm5_charge
 _atom_site_pbe_ddec_charge
 _atom_site_pbe_ddec_spin_density
 _atom_site_pbe_ddec_sum_bond_order
 _atom_site_pbe_magmom
Li  Li0  1  0.64448241  0.10317265  0.74999926  1  0  0.75976  0  0.479947  0  0  0.698669  0  0.605344  0  0  0.708199  0  0.591771  0  0  0.356512  0.691571  0  0.615667  0
Li  Li1  1  0.35551720  0.89682787  0.25000104  1  0  0.759771  0  0.479931  0  0  0.698688  0  0.605315  0  0  0.708219  0  0.59174  0  0  0.356519  0.691591  0  0.615638  0
H  H2  1  0.78447669  0.24147720  0.51046005  1  0  0.270816  0  0.954522  0  0  0.261246  0  1.018771  0  0  0.266757  0  1.014342  0  0  0.266175  0.256705  0  1.022835  0
H  H3  1  0.21552629  0.75852716  0.01045957  1  0  0.270832  0  0.954538  0  0  0.261253  0  1.018795  0  0  0.266763  0  1.01437  0  0  0.266193  0.256713  0  1.022858  0
H  H4  1  0.21552132  0.75852503  0.48954122  1  0  0.270836  0  0.954476  0  0  0.261261  0  1.018739  0  0  0.266775  0  1.014305  0  0  0.266183  0.256721  0  1.022802  0
H  H5  1  0.78447420  0.24147681  0.98953975  1  0  0.270822  0  0.954519  0  0  0.26125  0  1.018771  0  0  0.266762  0  1.014341  0  0  0.266187  0.25671  0  1.022834  0
H  H6  1  0.86433442  0.44434065  0.62140381  1  0  0.267876  0  0.955385  0  0  0.260407  0  1.016401  0  0  0.265637  0  1.012633  0  0  0.265466  0.256669  0  1.019222  0
H  H7  1  0.13567143  0.55566013  0.12140430  1  0  0.267873  0  0.95541  0  0  0.260403  0  1.016423  0  0  0.265634  0  1.012653  0  0  0.265467  0.256666  0  1.019243  0
H  H8  1  0.13566520  0.55565988  0.37859649  1  0  0.26786  0  0.95542  0  0  0.260394  0  1.016428  0  0  0.265623  0  1.012661  0  0  0.265463  0.256656  0  1.019249  0
H  H9  1  0.86433067  0.44434213  0.87859600  1  0  0.267857  0  0.955408  0  0  0.260408  0  1.016401  0  0  0.265638  0  1.012633  0  0  0.265478  0.256671  0  1.01922  0
H  H10  1  0.30248152  0.26202580  0.51395518  1  0  0.046049  0  0.948693  0  0  0.06128  0  1.017506  0  0  0.061814  0  1.017681  0  0  0.093353  0.060848  0  1.017426  0
H  H11  1  0.69752064  0.73797512  0.01395645  1  0  0.046056  0  0.948682  0  0  0.061265  0  1.017507  0  0  0.061801  0  1.017683  0  0  0.09336  0.060832  0  1.017426  0
H  H12  1  0.69751562  0.73797299  0.48604316  1  0  0.046043  0  0.948716  0  0  0.061277  0  1.01753  0  0  0.061814  0  1.017707  0  0  0.093358  0.060843  0  1.01745  0
H  H13  1  0.30248145  0.26202715  0.98604482  1  0  0.046062  0  0.948691  0  0  0.061297  0  1.017496  0  0  0.061834  0  1.017672  0  0  0.093355  0.060863  0  1.017415  0
H  H14  1  0.38029700  0.47125034  0.63893860  1  0  0.043068  0  0.95231  0  0  0.059138  0  1.021021  0  0  0.059571  0  1.021176  0  0  0.093302  0.058259  0  1.02207  0
H  H15  1  0.61970911  0.52875042  0.13893988  1  0  0.043067  0  0.952345  0  0  0.059121  0  1.021058  0  0  0.059552  0  1.021219  0  0  0.093298  0.05824  0  1.022107  0
H  H16  1  0.61970466  0.52875021  0.36105974  1  0  0.043065  0  0.952306  0  0  0.05914  0  1.021015  0  0  0.059572  0  1.021173  0  0  0.093307  0.058257  0  1.022065  0
H  H17  1  0.38029255  0.47125012  0.86106237  1  0  0.043038  0  0.952365  0  0  0.059107  0  1.021073  0  0  0.059537  0  1.021233  0  0  0.093283  0.058224  0  1.022122  0
C  C18  1  0.46605104  0.40451317  0.55126726  1  0  0.054385  0  3.691337  0  0  0.00176  0  3.957127  0  0  0.004693  0  3.969731  0  0  -0.081925  0.000121  0  3.948106  0
C  C19  1  0.53395330  0.59548599  0.05126911  1  0  0.054412  0  3.691344  0  0  0.001832  0  3.957086  0  0  0.004761  0  3.969699  0  0  -0.081912  0.000198  0  3.948064  0
C  C20  1  0.53394857  0.59548736  0.44873206  1  0  0.054437  0  3.691327  0  0  0.001802  0  3.957124  0  0  0.004726  0  3.969739  0  0  -0.081901  0.00017  0  3.948109  0
C  C21  1  0.46604793  0.40451284  0.94873118  1  0  0.054451  0  3.691349  0  0  0.001826  0  3.957109  0  0  0.004755  0  3.96972  0  0  -0.081888  0.000188  0  3.948099  0
I  I22  1  0.08122881  0.86362015  0.75000066  1  0  -0.661288  0  0.767509  0  0  -0.596031  0  1.027414  0  0  -0.607761  0  1.005478  0  0  -0.172511  -0.586048  0  1.044859  0
I  I23  1  0.91876876  0.13638036  0.25000062  1  0  -0.661279  0  0.767494  0  0  -0.596034  0  1.02741  0  0  -0.607764  0  1.005472  0  0  -0.172509  -0.586051  0  1.044857  0
N  N24  1  0.70770303  0.31029130  0.59083481  1  0  -0.731439  0  3.081633  0  0  -0.695153  0  3.310672  0  0  -0.708692  0  3.309037  0  0  -0.72838  -0.685364  0  3.312548  0
N  N25  1  0.29230235  0.68970952  0.09083567  1  0  -0.731481  0  3.081711  0  0  -0.695196  0  3.310736  0  0  -0.708733  0  3.309103  0  0  -0.728414  -0.68541  0  3.312609  0
N  N26  1  0.29229572  0.68970578  0.40916451  1  0  -0.731475  0  3.08167  0  0  -0.695197  0  3.310721  0  0  -0.708734  0  3.309088  0  0  -0.728402  -0.685411  0  3.312595  0
N  N27  1  0.70770136  0.31029104  0.90916560  1  0  -0.731474  0  3.08168  0  0  -0.695214  0  3.310725  0  0  -0.708753  0  3.309093  0  0  -0.728417  -0.68543  0  3.312596  0
