# generated using pymatgen
data_GdH10(C3O2)4
_symmetry_space_group_name_H-M   'P 1'
_cell_length_a   13.15692584
_cell_length_b   13.60389394
_cell_length_c   17.84948376
_cell_angle_alpha   90.00018938
_cell_angle_beta   90.00014393
_cell_angle_gamma   91.74039628
_symmetry_Int_Tables_number   1
_chemical_formula_structural   GdH10(C3O2)4
_chemical_formula_sum   'Gd8 H80 C96 O64'
_cell_volume   3193.32363740
_cell_formula_units_Z   8
loop_
 _symmetry_equiv_pos_site_id
 _symmetry_equiv_pos_as_xyz
  1  'x, y, z'
loop_
 _atom_site_type_symbol
 _atom_site_label
 _atom_site_symmetry_multiplicity
 _atom_site_fract_x
 _atom_site_fract_y
 _atom_site_fract_z
 _atom_site_occupancy
 _atom_site_pbe_bader_charge
 _atom_site_pbe_bader_spin_density
 _atom_site_pbe_cm5_charge
 _atom_site_pbe_ddec_charge
 _atom_site_pbe_ddec_spin_density
 _atom_site_pbe_ddec_sum_bond_order
 _atom_site_pbe_magmom
Gd  Gd0  1  0.90646764  0.35926829  0.97259637  1  2.197869  0  1.469079  2.086856  0  2.169447  0
Gd  Gd1  1  0.59353356  0.14073229  0.47259367  1  2.19786  0  1.469065  2.086851  0  2.169491  0
Gd  Gd2  1  0.09353240  0.64073778  0.02740393  1  2.197868  0  1.469116  2.086899  0  2.169267  0
Gd  Gd3  1  0.40646463  0.85926275  0.52740439  1  2.197768  0  1.469086  2.086832  0  2.169341  0
Gd  Gd4  1  0.65474638  0.09878293  0.01782029  1  2.192778  0  1.461556  2.061566  0  2.207291  0
Gd  Gd5  1  0.84525628  0.40121636  0.51782355  1  2.19271  0  1.461621  2.061698  0  2.207088  0
Gd  Gd6  1  0.34525204  0.90121946  0.98217944  1  2.192809  0  1.46159  2.06166  0  2.207224  0
Gd  Gd7  1  0.15474415  0.59877720  0.48217843  1  2.192822  0  1.461561  2.061666  0  2.207106  0
H  H8  1  0.97427638  0.52120877  0.86654875  1  0.656754  0  0.306123  0.416091  0  0.910321  0
H  H9  1  0.52572297  0.97879165  0.36654790  1  0.656735  0  0.306081  0.416039  0  0.910397  0
H  H10  1  0.02572427  0.47879215  0.13345323  1  0.656761  0  0.306109  0.416055  0  0.910378  0
H  H11  1  0.47427766  0.02120854  0.63345240  1  0.656741  0  0.306105  0.416074  0  0.910338  0
H  H12  1  0.99863741  0.42151185  0.82553738  1  0.605708  0  0.335148  0.417222  0  0.86676  0
H  H13  1  0.50135952  0.07848954  0.32553771  1  0.605671  0  0.335118  0.417151  0  0.866811  0
H  H14  1  0.00136324  0.57848907  0.17446516  1  0.605677  0  0.335141  0.417209  0  0.866781  0
H  H15  1  0.49864041  0.92151286  0.67446259  1  0.605684  0  0.335133  0.417195  0  0.866796  0
H  H16  1  0.69385703  0.33062028  0.91272942  1  0.646979  0  0.300436  0.398047  0  0.942033  0
H  H17  1  0.80614476  0.16938150  0.41273111  1  0.646961  0  0.300445  0.398027  0  0.942069  0
H  H18  1  0.30614509  0.66937917  0.08726976  1  0.64681  0  0.300413  0.398002  0  0.942102  0
H  H19  1  0.19385372  0.83062310  0.58727031  1  0.646819  0  0.30045  0.398021  0  0.942076  0
H  H20  1  0.75972513  0.37677864  0.84493766  1  0.613426  0  0.33088  0.41371  0  0.868058  0
H  H21  1  0.74027799  0.12322431  0.34493799  1  0.613419  0  0.330911  0.413695  0  0.868191  0
H  H22  1  0.24027635  0.62322449  0.15506320  1  0.613406  0  0.330882  0.41368  0  0.868173  0
H  H23  1  0.25972268  0.87677735  0.65506287  1  0.613412  0  0.33093  0.413719  0  0.868092  0
H  H24  1  0.79864741  0.08409216  0.14249348  1  0.587953  0  0.325038  0.403395  0  0.88253  0
H  H25  1  0.70135115  0.41590841  0.64249427  1  0.58794  0  0.325033  0.403366  0  0.882564  0
H  H26  1  0.20135098  0.91590949  0.85750737  1  0.587975  0  0.325027  0.403358  0  0.882581  0
H  H27  1  0.29864798  0.58409251  0.35750827  1  0.587988  0  0.325042  0.403356  0  0.882549  0
H  H28  1  0.86654193  0.11816614  0.07474429  1  0.655389  0  0.302359  0.404537  0  0.926879  0
H  H29  1  0.63345946  0.38183487  0.57474318  1  0.655045  0  0.302346  0.404531  0  0.926911  0
H  H30  1  0.13345868  0.88183331  0.92525713  1  0.655103  0  0.30238  0.404586  0  0.926813  0
H  H31  1  0.36654113  0.61816384  0.42525880  1  0.655025  0  0.302304  0.404471  0  0.926986  0
H  H32  1  0.66662978  0.94013568  0.12943412  1  0.6047  0  0.331359  0.412191  0  0.865839  0
H  H33  1  0.83336875  0.55986442  0.62943425  1  0.604695  0  0.331391  0.412215  0  0.865838  0
H  H34  1  0.33336781  0.05986450  0.87056730  1  0.604678  0  0.331362  0.412184  0  0.865903  0
H  H35  1  0.16663107  0.44013429  0.37056605  1  0.604674  0  0.331371  0.412167  0  0.865795  0
H  H36  1  0.55063207  0.96357341  0.12790402  1  0.662905  0  0.301061  0.406967  0  0.922708  0
H  H37  1  0.94936572  0.53642742  0.62790655  1  0.662929  0  0.301067  0.406957  0  0.922723  0
H  H38  1  0.44936628  0.03642677  0.87209571  1  0.662928  0  0.301076  0.406961  0  0.922717  0
H  H39  1  0.05063260  0.46357203  0.37209599  1  0.662923  0  0.301082  0.406987  0  0.922677  0
H  H40  1  0.94351915  0.36753734  0.24519330  1  0.104101  0  0.107202  0.113021  0  1.019906  0
H  H41  1  0.55647977  0.13246369  0.74518862  1  0.10411  0  0.107203  0.113047  0  1.019861  0
H  H42  1  0.05647996  0.63246284  0.75480867  1  0.104111  0  0.107213  0.113088  0  1.019815  0
H  H43  1  0.44352164  0.86753723  0.25481224  1  0.104107  0  0.107196  0.11308  0  1.019827  0
H  H44  1  0.00258315  0.12044480  0.38734245  1  0.075902  0  0.105842  0.106256  0  1.018897  0
H  H45  1  0.49741646  0.37955112  0.88734033  1  0.075978  0  0.105806  0.10617  0  1.018879  0
H  H46  1  0.99741822  0.87955465  0.61266009  1  0.075967  0  0.105805  0.106165  0  1.01887  0
H  H47  1  0.50258566  0.62044833  0.11266221  1  0.076008  0  0.105809  0.106178  0  1.01883  0
H  H48  1  0.04986264  0.02132451  0.27509991  1  0.118269  0  0.102941  0.104394  0  1.014422  0
H  H49  1  0.45013290  0.47867532  0.77510019  1  0.118247  0  0.10295  0.104441  0  1.014362  0
H  H50  1  0.95013492  0.97867493  0.72490263  1  0.118267  0  0.102931  0.104423  0  1.014454  0
H  H51  1  0.54986925  0.52132487  0.22490291  1  0.11825  0  0.102966  0.104449  0  1.01439  0
H  H52  1  0.03363584  0.09387394  0.14735175  1  0.096337  0  0.115157  0.122836  0  0.977411  0
H  H53  1  0.46636162  0.40612827  0.64735132  1  0.096491  0  0.115183  0.122874  0  0.977417  0
H  H54  1  0.96636092  0.90612403  0.85264911  1  0.09649  0  0.115179  0.122861  0  0.977423  0
H  H55  1  0.53363830  0.59387339  0.35265066  1  0.096516  0  0.115177  0.122861  0  0.977381  0
H  H56  1  0.64504632  0.26033366  0.24403712  1  0.119248  0  0.109961  0.118234  0  1.004254  0
H  H57  1  0.85495341  0.23966884  0.74403214  1  0.119202  0  0.109944  0.118219  0  1.004269  0
H  H58  1  0.35495293  0.73967093  0.75596206  1  0.119122  0  0.109955  0.118189  0  1.004269  0
H  H59  1  0.14504414  0.76032988  0.25595751  1  0.119196  0  0.109983  0.118288  0  1.004221  0
H  H60  1  0.75500595  0.52054857  0.35923415  1  0.12367  0  0.113549  0.11585  0  1.017312  0
H  H61  1  0.74499501  0.97945550  0.85923238  1  0.123721  0  0.113491  0.115805  0  1.017294  0
H  H62  1  0.24499245  0.47945309  0.64076670  1  0.123714  0  0.113512  0.115829  0  1.017316  0
H  H63  1  0.25500653  0.02054984  0.14076400  1  0.123846  0  0.113527  0.115816  0  1.017368  0
H  H64  1  0.81473037  0.59199442  0.23745375  1  0.068953  0  0.105915  0.104937  0  0.983525  0
H  H65  1  0.68526848  0.90800396  0.73745560  1  0.068929  0  0.105915  0.104882  0  0.983512  0
H  H66  1  0.18526724  0.40800650  0.76254599  1  0.06899  0  0.105908  0.104873  0  0.983498  0
H  H67  1  0.31472971  0.09199108  0.26254526  1  0.068986  0  0.105919  0.104936  0  0.983492  0
H  H68  1  0.80018371  0.49036710  0.12055723  1  0.090363  0  0.109107  0.106701  0  1.051335  0
H  H69  1  0.69981692  0.00962897  0.62055642  1  0.090353  0  0.10908  0.106689  0  1.051369  0
H  H70  1  0.19981242  0.50963529  0.87944363  1  0.090344  0  0.109118  0.106757  0  1.051302  0
H  H71  1  0.30018270  0.99036312  0.37944051  1  0.090484  0  0.10909  0.106678  0  1.051405  0
H  H72  1  0.21340411  0.20630030  0.99431101  1  0.130468  0  0.114697  0.129511  0  0.988412  0
H  H73  1  0.28659451  0.29370124  0.49431185  1  0.130476  0  0.114707  0.129531  0  0.988395  0
H  H74  1  0.78659980  0.79370798  0.00568425  1  0.130373  0  0.114752  0.129542  0  0.98831  0
H  H75  1  0.71340755  0.70629600  0.50569181  1  0.130491  0  0.114695  0.129507  0  0.988405  0
H  H76  1  0.30410886  0.51132622  0.01648992  1  0.119426  0  0.110621  0.118211  0  1.041596  0
H  H77  1  0.19588890  0.98867426  0.51648359  1  0.119355  0  0.110582  0.118161  0  1.041608  0
H  H78  1  0.69589353  0.48868206  0.98351318  1  0.119573  0  0.11062  0.118205  0  1.041605  0
H  H79  1  0.80411004  0.01132004  0.48351110  1  0.119531  0  0.110614  0.118205  0  1.041652  0
H  H80  1  0.47507939  0.46343843  0.06112716  1  0.04468  0  0.098378  0.095742  0  1.020293  0
H  H81  1  0.02492071  0.03656046  0.56112106  1  0.04506  0  0.098403  0.095752  0  1.020222  0
H  H82  1  0.52492515  0.53656544  0.93887762  1  0.044827  0  0.098375  0.09571  0  1.020432  0
H  H83  1  0.97507905  0.96343604  0.43887419  1  0.044745  0  0.098362  0.095715  0  1.02028  0
H  H84  1  0.51441527  0.28562854  0.07230601  1  0.107267  0  0.109082  0.108467  0  1.044284  0
H  H85  1  0.98558367  0.21436731  0.57230513  1  0.107369  0  0.109066  0.108437  0  1.044288  0
H  H86  1  0.48558538  0.71437238  0.92769821  1  0.107372  0  0.109093  0.108442  0  1.044338  0
H  H87  1  0.01441759  0.78562846  0.42769629  1  0.107322  0  0.109055  0.108398  0  1.044356  0
C  C88  1  0.97155283  0.27652177  0.11234119  1  1.536376  0  0.207981  0.585124  0  4.195075  0
C  C89  1  0.52844715  0.22347867  0.61233893  1  1.536649  0  0.207995  0.585222  0  4.194717  0
C  C90  1  0.02844624  0.72347694  0.88765854  1  1.536359  0  0.207968  0.585163  0  4.194974  0
C  C91  1  0.47155268  0.77652004  0.38766137  1  1.536405  0  0.207982  0.585252  0  4.194679  0
C  C92  1  0.98818347  0.23506374  0.18842179  1  -0.065502  0  -0.018577  -0.040861  0  3.98783  0
C  C93  1  0.51181753  0.26493705  0.68841960  1  -0.065712  0  -0.018587  -0.040898  0  3.987895  0
C  C94  1  0.01181338  0.76493718  0.81158019  1  -0.06546  0  -0.018589  -0.040923  0  3.987892  0
C  C95  1  0.48818616  0.73506388  0.31158070  1  -0.065453  0  -0.01862  -0.040942  0  3.987878  0
C  C96  1  0.96733390  0.29197033  0.25156316  1  0.012325  0  -0.074179  -0.100225  0  3.918981  0
C  C97  1  0.53266578  0.20802999  0.75156031  1  0.012381  0  -0.074155  -0.100209  0  3.918974  0
C  C98  1  0.03266214  0.70802911  0.74843937  1  0.012354  0  -0.074209  -0.100361  0  3.918923  0
C  C99  1  0.46733485  0.79197019  0.24843999  1  0.012292  0  -0.074155  -0.100247  0  3.918967  0
C  C100  1  0.97017712  0.24947564  0.32277694  1  -0.010728  0  -0.021936  -0.048039  0  4.001186  0
C  C101  1  0.52982430  0.25052354  0.82277418  1  -0.010645  0  -0.022031  -0.048131  0  4.00118  0
C  C102  1  0.02982349  0.75052381  0.67722448  1  -0.010679  0  -0.021963  -0.047976  0  4.001083  0
C  C103  1  0.47017474  0.74947444  0.17722611  1  -0.010524  0  -0.022043  -0.048172  0  4.001356  0
C  C104  1  0.99972211  0.15176137  0.33120510  1  -0.070091  0  -0.076427  -0.079878  0  3.944029  0
C  C105  1  0.50027703  0.34823710  0.83120309  1  -0.070249  0  -0.076332  -0.079718  0  3.943863  0
C  C106  1  0.00027850  0.84823808  0.66879688  1  -0.070063  0  -0.076334  -0.079737  0  3.943865  0
C  C107  1  0.49972284  0.65176308  0.16879832  1  -0.070242  0  -0.076308  -0.079732  0  3.943907  0
C  C108  1  0.02515654  0.09654403  0.26851547  1  -0.095725  0  -0.087201  -0.08261  0  4.009127  0
C  C109  1  0.47484278  0.40345579  0.76851449  1  -0.095718  0  -0.087213  -0.082699  0  4.009163  0
C  C110  1  0.97484257  0.90345616  0.73148594  1  -0.095724  0  -0.087168  -0.082636  0  4.009169  0
C  C111  1  0.52515937  0.59654440  0.23148805  1  -0.095763  0  -0.087226  -0.08267  0  4.009063  0
C  C112  1  0.01723051  0.13725780  0.19703614  1  -0.005941  0  -0.073479  -0.084932  0  3.943638  0
C  C113  1  0.48276939  0.36274390  0.69703507  1  -0.006151  0  -0.073488  -0.084924  0  3.943773  0
C  C114  1  0.98276786  0.86274312  0.80296528  1  -0.006238  0  -0.07351  -0.084919  0  3.943712  0
C  C115  1  0.51723203  0.63725702  0.30296635  1  -0.006198  0  -0.073456  -0.08488  0  3.943714  0
C  C116  1  0.93319490  0.30497640  0.38877944  1  1.548048  0  0.20626  0.569609  0  4.213815  0
C  C117  1  0.56680605  0.19502527  0.88877494  1  1.547956  0  0.206258  0.569602  0  4.213793  0
C  C118  1  0.06680338  0.69502158  0.61122198  1  1.54798  0  0.206273  0.569563  0  4.213887  0
C  C119  1  0.43319234  0.80497638  0.11122424  1  1.548021  0  0.206302  0.569635  0  4.213791  0
C  C120  1  0.71881980  0.30619371  0.10637612  1  1.57006  0  0.232959  0.641314  0  4.161928  0
C  C121  1  0.78117851  0.19380229  0.60637537  1  1.56997  0  0.232911  0.641203  0  4.162012  0
C  C122  1  0.28118083  0.69380647  0.89362418  1  1.570099  0  0.232993  0.641326  0  4.162081  0
C  C123  1  0.21881815  0.80619201  0.39362045  1  1.570032  0  0.232949  0.641303  0  4.162006  0
C  C124  1  0.72209787  0.36941030  0.17515130  1  -0.063345  0  -0.021463  -0.057671  0  3.97731  0
C  C125  1  0.77790530  0.13058822  0.67515094  1  -0.063253  0  -0.02143  -0.057529  0  3.977221  0
C  C126  1  0.27790133  0.63059283  0.82484732  1  -0.063205  0  -0.021474  -0.057524  0  3.97712  0
C  C127  1  0.22209528  0.86941049  0.32484655  1  -0.063316  0  -0.021506  -0.057602  0  3.977237  0
C  C128  1  0.68295624  0.33262885  0.24276830  1  -0.03326  0  -0.074821  -0.102796  0  3.934563  0
C  C129  1  0.81704795  0.16737071  0.74276643  1  -0.033356  0  -0.074804  -0.102811  0  3.934727  0
C  C130  1  0.31704519  0.66737281  0.75723032  1  -0.033293  0  -0.074805  -0.102787  0  3.934578  0
C  C131  1  0.18295109  0.83262727  0.25722939  1  -0.033152  0  -0.074868  -0.102945  0  3.934519  0
C  C132  1  0.69575595  0.38645174  0.30906833  1  -0.078861  0  -0.017113  -0.054225  0  3.967603  0
C  C133  1  0.80424773  0.11354884  0.80906574  1  -0.07891  0  -0.017103  -0.054252  0  3.967487  0
C  C134  1  0.30424541  0.61354771  0.69093252  1  -0.078899  0  -0.017087  -0.054169  0  3.9676  0
C  C135  1  0.19575294  0.88645282  0.19092951  1  -0.079192  0  -0.017065  -0.054215  0  3.967397  0
C  C136  1  0.74439108  0.47968758  0.30713679  1  -0.055351  0  -0.067359  -0.066438  0  3.933584  0
C  C137  1  0.75561414  0.02031374  0.80713611  1  -0.055261  0  -0.067355  -0.066476  0  3.933493  0
C  C138  1  0.25560885  0.52031481  0.69286351  1  -0.055326  0  -0.067348  -0.066491  0  3.933597  0
C  C139  1  0.24438727  0.97968718  0.19286026  1  -0.0555  0  -0.067322  -0.06632  0  3.933485  0
C  C140  1  0.77914162  0.51848435  0.23907832  1  -0.027894  0  -0.090298  -0.096226  0  4.014512  0
C  C141  1  0.72086103  0.98151404  0.73907986  1  -0.027804  0  -0.090258  -0.096054  0  4.014278  0
C  C142  1  0.22085755  0.48151804  0.76092030  1  -0.028261  0  -0.090256  -0.096027  0  4.014305  0
C  C143  1  0.27913794  0.01848173  0.26092043  1  -0.027741  0  -0.090295  -0.096291  0  4.014313  0
C  C144  1  0.76965722  0.46311690  0.17350211  1  0.009907  0  -0.075832  -0.082052  0  3.95376  0
C  C145  1  0.73034288  0.03688088  0.67350087  1  0.00994  0  -0.075848  -0.082159  0  3.95355  0
C  C146  1  0.23034112  0.53688329  0.82649818  1  0.010305  0  -0.075869  -0.082256  0  3.95359  0
C  C147  1  0.26965384  0.96311563  0.32649606  1  0.009989  0  -0.075845  -0.082014  0  3.953658  0
C  C148  1  0.66563302  0.33977739  0.38217736  1  1.575192  0  0.234208  0.646153  0  4.167525  0
C  C149  1  0.83437244  0.16022352  0.88217551  1  1.57545  0  0.234237  0.646313  0  4.167424  0
C  C150  1  0.33437051  0.66021839  0.61782405  1  1.575313  0  0.234205  0.64629  0  4.167344  0
C  C151  1  0.16562291  0.83977813  0.11782031  1  1.575531  0  0.234249  0.646293  0  4.167111  0
C  C152  1  0.39492103  0.12960937  0.03338357  1  1.549996  0  0.234103  0.646152  0  4.167006  0
C  C153  1  0.10508131  0.37039088  0.53338518  1  1.550024  0  0.234105  0.64619  0  4.166973  0
C  C154  1  0.60507819  0.87039449  0.96661785  1  1.550028  0  0.234037  0.645979  0  4.167261  0
C  C155  1  0.89492534  0.62960711  0.46661960  1  1.549575  0  0.234038  0.64591  0  4.167312  0
C  C156  1  0.36758691  0.23533562  0.03233267  1  0.013613  0  -0.023409  -0.064134  0  3.982426  0
C  C157  1  0.13241386  0.26466315  0.53233294  1  0.013506  0  -0.023379  -0.064188  0  3.982543  0
C  C158  1  0.63241309  0.76466898  0.96766595  1  0.013608  0  -0.023399  -0.064012  0  3.982264  0
C  C159  1  0.86759192  0.73533116  0.46767016  1  0.013259  0  -0.023366  -0.063998  0  3.98243  0
C  C160  1  0.27095416  0.26244970  0.00864565  1  -0.052174  0  -0.070073  -0.091322  0  3.904268  0
C  C161  1  0.22904502  0.23754969  0.50864547  1  -0.052192  0  -0.070096  -0.091325  0  3.904409  0
C  C162  1  0.72904738  0.73755563  0.99135241  1  -0.052187  0  -0.070096  -0.091373  0  3.904151  0
C  C163  1  0.77096004  0.76244609  0.49135650  1  -0.052268  0  -0.070115  -0.091391  0  3.904315  0
C  C164  1  0.24791304  0.36201214  0.00391340  1  0.013872  0  -0.01819  -0.048209  0  3.966918  0
C  C165  1  0.25208615  0.13798797  0.50391078  1  0.013849  0  -0.0182  -0.048277  0  3.967019  0
C  C166  1  0.75208998  0.63799173  0.99608745  1  0.013877  0  -0.018197  -0.048381  0  3.966945  0
C  C167  1  0.74791285  0.86200854  0.49608616  1  0.013912  0  -0.018211  -0.048381  0  3.966982  0
C  C168  1  0.32247212  0.43430581  0.02127709  1  -0.08037  0  -0.073712  -0.073081  0  3.933559  0
C  C169  1  0.17752715  0.06569511  0.52127303  1  -0.080326  0  -0.073595  -0.072899  0  3.933604  0
C  C170  1  0.67753174  0.56570100  0.97872545  1  -0.080363  0  -0.073615  -0.072808  0  3.933485  0
C  C171  1  0.82246955  0.93430065  0.47872335  1  -0.080376  0  -0.073607  -0.072895  0  3.933556  0
C  C172  1  0.41794254  0.40708363  0.04626722  1  -0.0209  0  -0.094727  -0.097192  0  4.019441  0
C  C173  1  0.08205678  0.09291593  0.54626249  1  -0.021274  0  -0.094847  -0.097303  0  4.019468  0
C  C174  1  0.58205977  0.59292171  0.95373531  1  -0.020847  0  -0.094855  -0.097417  0  4.019514  0
C  C175  1  0.91794220  0.90707984  0.45373444  1  -0.020826  0  -0.094853  -0.097382  0  4.019223  0
C  C176  1  0.44044369  0.30804117  0.05248187  1  -0.072323  0  -0.073241  -0.065464  0  3.940634  0
C  C177  1  0.05955411  0.19195768  0.55248014  1  -0.072254  0  -0.073228  -0.065417  0  3.940643  0
C  C178  1  0.55955714  0.69196563  0.94751955  1  -0.072449  0  -0.073213  -0.065365  0  3.940397  0
C  C179  1  0.94044782  0.80803515  0.44752016  1  -0.072093  0  -0.073159  -0.065312  0  3.940387  0
C  C180  1  0.14279521  0.39104815  0.98397250  1  1.567369  0  0.224193  0.633446  0  4.184896  0
C  C181  1  0.35720402  0.10894967  0.48397077  1  1.567295  0  0.224191  0.6334  0  4.18491  0
C  C182  1  0.85721418  0.60896528  0.01602556  1  1.567518  0  0.224161  0.633518  0  4.185021  0
C  C183  1  0.64278865  0.89103874  0.51602281  1  1.56743  0  0.224259  0.633811  0  4.184624  0
O  O184  1  0.94498376  0.21892440  0.05874963  1  -1.170889  0  -0.339447  -0.610293  0  2.2457  0
O  O185  1  0.55501609  0.28107802  0.55874756  1  -1.170983  0  -0.339483  -0.610369  0  2.245614  0
O  O186  1  0.05501756  0.78107359  0.94125123  1  -1.170882  0  -0.339469  -0.610357  0  2.245681  0
O  O187  1  0.44498309  0.71892437  0.44125218  1  -1.170994  0  -0.339503  -0.610352  0  2.24571  0
O  O188  1  0.97852218  0.36944689  0.10131635  1  -1.193497  0  -0.351082  -0.631205  0  2.309666  0
O  O189  1  0.52147923  0.13055204  0.60131328  1  -1.193464  0  -0.35105  -0.631224  0  2.309447  0
O  O190  1  0.02147688  0.63055183  0.89868395  1  -1.193525  0  -0.351058  -0.631184  0  2.309637  0
O  O191  1  0.47851760  0.86944814  0.39868870  1  -1.193447  0  -0.351026  -0.631249  0  2.309408  0
O  O192  1  0.88871811  0.25617257  0.44156014  1  -1.18422  0  -0.351455  -0.625778  0  2.322273  0
O  O193  1  0.61128299  0.24382786  0.94155640  1  -1.184127  0  -0.351445  -0.625789  0  2.322325  0
O  O194  1  0.11127935  0.74382320  0.55844184  1  -1.184033  0  -0.351382  -0.625719  0  2.322494  0
O  O195  1  0.38871847  0.75617453  0.05844334  1  -1.184113  0  -0.351377  -0.625674  0  2.32239  0
O  O196  1  0.94163592  0.39848878  0.39239536  1  -1.196593  0  -0.33177  -0.61388  0  2.281023  0
O  O197  1  0.55836503  0.10151218  0.89239172  1  -1.196529  0  -0.331745  -0.61383  0  2.280926  0
O  O198  1  0.05836219  0.60150332  0.60760886  1  -1.1967  0  -0.331837  -0.613927  0  2.280861  0
O  O199  1  0.44163269  0.89849242  0.10760633  1  -1.196634  0  -0.33187  -0.61395  0  2.280872  0
O  O200  1  0.76540667  0.33687125  0.04804510  1  -1.210462  0  -0.404921  -0.680149  0  2.373785  0
O  O201  1  0.73458830  0.16312155  0.54804531  1  -1.210563  0  -0.404903  -0.680098  0  2.373846  0
O  O202  1  0.23459468  0.66312747  0.95195407  1  -1.210572  0  -0.404906  -0.680154  0  2.3739  0
O  O203  1  0.26540380  0.83687274  0.45195499  1  -1.210424  0  -0.404872  -0.680108  0  2.373688  0
O  O204  1  0.67075933  0.22365713  0.11002369  1  -1.195114  0  -0.389272  -0.662196  0  2.283638  0
O  O205  1  0.82923746  0.27633889  0.61001988  1  -1.195038  0  -0.389225  -0.662128  0  2.283609  0
O  O206  1  0.32924358  0.77634306  0.88997716  1  -1.195152  0  -0.389298  -0.662262  0  2.28366  0
O  O207  1  0.17076080  0.72365835  0.38997425  1  -1.195138  0  -0.389259  -0.66224  0  2.283767  0
O  O208  1  0.60270561  0.26714619  0.38163602  1  -1.176911  0  -0.389653  -0.647851  0  2.236827  0
O  O209  1  0.89730068  0.23285693  0.88163615  1  -1.177082  0  -0.389718  -0.647965  0  2.236687  0
O  O210  1  0.39729862  0.73284739  0.61835811  1  -1.177024  0  -0.389654  -0.647933  0  2.236813  0
O  O211  1  0.10269179  0.76714986  0.11836135  1  -1.177151  0  -0.389693  -0.647933  0  2.236712  0
O  O212  1  0.70881735  0.37270635  0.44143966  1  -1.209468  0  -0.411883  -0.681523  0  2.33878  0
O  O213  1  0.79118692  0.12729850  0.94143765  1  -1.209531  0  -0.411836  -0.681496  0  2.338881  0
O  O214  1  0.29118087  0.62728942  0.55856343  1  -1.20943  0  -0.411875  -0.681558  0  2.338652  0
O  O215  1  0.20881599  0.87270169  0.05855873  1  -1.209671  0  -0.411874  -0.681535  0  2.338663  0
O  O216  1  0.48682047  0.10837392  0.04670614  1  -1.205947  0  -0.414452  -0.685574  0  2.357315  0
O  O217  1  0.01318124  0.39162933  0.54671043  1  -1.205898  0  -0.414521  -0.685641  0  2.357209  0
O  O218  1  0.51318109  0.89163216  0.95329416  1  -1.205991  0  -0.414443  -0.685533  0  2.35747  0
O  O219  1  0.98681919  0.60836424  0.45329042  1  -1.205663  0  -0.414522  -0.685552  0  2.357427  0
O  O220  1  0.32554140  0.06499241  0.01897068  1  -1.204395  0  -0.396151  -0.668046  0  2.285509  0
O  O221  1  0.17446227  0.43500336  0.51896922  1  -1.204445  0  -0.396083  -0.668039  0  2.285583  0
O  O222  1  0.67445710  0.93501292  0.98103410  1  -1.204493  0  -0.396106  -0.667957  0  2.285627  0
O  O223  1  0.82554498  0.56498948  0.48104004  1  -1.204357  0  -0.396028  -0.667855  0  2.285504  0
O  O224  1  0.11709747  0.47950062  0.99675279  1  -1.223668  0  -0.417379  -0.722845  0  2.400742  0
O  O225  1  0.38289959  0.02049947  0.49675200  1  -1.223599  0  -0.417381  -0.722778  0  2.400639  0
O  O226  1  0.88291469  0.52050400  0.00324639  1  -1.223733  0  -0.417384  -0.72291  0  2.400154  0
O  O227  1  0.61709185  0.97949850  0.50324437  1  -1.223728  0  -0.417355  -0.722941  0  2.400322  0
O  O228  1  0.08144225  0.32680163  0.95642647  1  -1.181538  0  -0.387515  -0.645397  0  2.233912  0
O  O229  1  0.41855762  0.17319533  0.45642165  1  -1.18153  0  -0.387511  -0.645397  0  2.23399  0
O  O230  1  0.91855710  0.67320664  0.04356991  1  -1.181877  0  -0.387469  -0.645327  0  2.234575  0
O  O231  1  0.58144580  0.82679677  0.54356912  1  -1.181666  0  -0.387559  -0.645546  0  2.234242  0
O  O232  1  0.94884966  0.45212681  0.85752709  1  -1.232104  0  -0.615117  -0.825271  0  1.999827  0
O  O233  1  0.55114960  0.04787251  0.35752464  1  -1.232054  0  -0.61506  -0.825148  0  1.999918  0
O  O234  1  0.05114948  0.54787411  0.14247377  1  -1.232075  0  -0.615083  -0.825229  0  1.999874  0
O  O235  1  0.44885105  0.95212841  0.64247454  1  -1.232077  0  -0.615065  -0.825219  0  1.999796  0
O  O236  1  0.75051642  0.37829750  0.89889496  1  -1.240201  0  -0.618546  -0.824796  0  2.107463  0
O  O237  1  0.74948821  0.12169908  0.39889362  1  -1.240199  0  -0.618607  -0.824792  0  2.107623  0
O  O238  1  0.24948349  0.62170416  0.10110646  1  -1.239992  0  -0.618528  -0.824748  0  2.107618  0
O  O239  1  0.25051166  0.87830111  0.60110612  1  -1.240013  0  -0.61862  -0.824803  0  2.107519  0
O  O240  1  0.81153920  0.06949382  0.09001521  1  -1.219376  0  -0.617944  -0.81235  0  2.015526  0
O  O241  1  0.68846226  0.43050800  0.59001600  1  -1.219029  0  -0.617924  -0.812323  0  2.015575  0
O  O242  1  0.18846069  0.93050710  0.90998565  1  -1.219115  0  -0.617952  -0.812344  0  2.015542  0
O  O243  1  0.31153906  0.56948998  0.40998597  1  -1.219037  0  -0.617879  -0.812225  0  2.015633  0
O  O244  1  0.62057716  0.99483431  0.13062297  1  -1.243029  0  -0.616655  -0.814166  0  1.99246  0
O  O245  1  0.87942140  0.50516654  0.63062641  1  -1.243094  0  -0.616723  -0.814207  0  1.992482  0
O  O246  1  0.37942121  0.00516661  0.86937844  1  -1.243036  0  -0.616657  -0.814138  0  1.992573  0
O  O247  1  0.12057844  0.49483291  0.36937724  1  -1.243037  0  -0.61668  -0.814143  0  1.99239  0
