# generated using pymatgen
data_ScH18(C5O2)3
_symmetry_space_group_name_H-M   'P 1'
_cell_length_a   9.00139529
_cell_length_b   11.38533313
_cell_length_c   17.80823508
_cell_angle_alpha   84.26304137
_cell_angle_beta   75.36330155
_cell_angle_gamma   66.70672034
_symmetry_Int_Tables_number   1
_chemical_formula_structural   ScH18(C5O2)3
_chemical_formula_sum   'Sc4 H72 C60 O24'
_cell_volume   1621.90159838
_cell_formula_units_Z   4
loop_
 _symmetry_equiv_pos_site_id
 _symmetry_equiv_pos_as_xyz
  1  'x, y, z'
loop_
 _atom_site_type_symbol
 _atom_site_label
 _atom_site_symmetry_multiplicity
 _atom_site_fract_x
 _atom_site_fract_y
 _atom_site_fract_z
 _atom_site_occupancy
 _atom_site_pbe_bader_charge
 _atom_site_pbe_bader_spin_density
 _atom_site_pbe_cm5_charge
 _atom_site_pbe_ddec_charge
 _atom_site_pbe_ddec_spin_density
 _atom_site_pbe_ddec_sum_bond_order
 _atom_site_pbe_magmom
Sc  Sc0  1  0.38654230  0.74997204  0.22700005  1  2.153117  0  1.260813  1.85129  0  2.195143  0
Sc  Sc1  1  0.86361827  0.74997483  0.27286035  1  2.152916  0  1.260931  1.852017  0  2.19506  0
Sc  Sc2  1  0.61346541  0.25002391  0.77300117  1  2.153084  0  1.260854  1.85132  0  2.195176  0
Sc  Sc3  1  0.13637609  0.25002017  0.72714208  1  2.15271  0  1.260997  1.852138  0  2.194829  0
H  H4  1  0.65137329  0.44659769  0.60578346  1  0.109155  0  0.112155  0.114143  0  1.005386  0
H  H5  1  0.74280211  0.05336294  0.60573207  1  0.093386  0  0.111935  0.114136  0  1.004489  0
H  H6  1  0.90190726  0.44675588  0.89423124  1  0.072117  0  0.111421  0.11375  0  1.004063  0
H  H7  1  0.20383089  0.05326585  0.89424793  1  0.106901  0  0.11144  0.11379  0  1.004209  0
H  H8  1  0.34862664  0.55339731  0.39421913  1  0.109293  0  0.112142  0.114148  0  1.005452  0
H  H9  1  0.25719501  0.94663971  0.39426488  1  0.093142  0  0.111929  0.114111  0  1.004485  0
H  H10  1  0.09810033  0.55324390  0.10576703  1  0.071941  0  0.111404  0.113738  0  1.004079  0
H  H11  1  0.79616420  0.94673010  0.10575788  1  0.106673  0  0.111438  0.113724  0  1.004261  0
H  H12  1  0.73082940  0.57218783  0.49028673  1  0.112832  0  0.111316  0.111411  0  1.033201  0
H  H13  1  0.77900625  0.92768662  0.49024513  1  0.113406  0  0.11105  0.111068  0  1.032784  0
H  H14  1  0.69688719  0.57231131  0.00976477  1  0.137785  0  0.111683  0.111464  0  1.032292  0
H  H15  1  0.29332369  0.92772806  0.00978444  1  0.137294  0  0.111779  0.111662  0  1.032694  0
H  H16  1  0.26917109  0.42780717  0.50971530  1  0.112774  0  0.111299  0.111373  0  1.033243  0
H  H17  1  0.22098972  0.07231698  0.50975366  1  0.113518  0  0.11104  0.111068  0  1.032754  0
H  H18  1  0.30311827  0.42768847  0.99023447  1  0.137621  0  0.111698  0.111484  0  1.032286  0
H  H19  1  0.70667388  0.07226694  0.99022167  1  0.137499  0  0.111806  0.111678  0  1.032699  0
H  H20  1  0.67313341  0.12985473  0.25048917  1  0.117649  0  0.11236  0.110781  0  1.008627  0
H  H21  1  0.07651982  0.36997857  0.25048402  1  0.118152  0  0.112057  0.111017  0  1.008734  0
H  H22  1  0.19697584  0.13007167  0.24943346  1  0.106972  0  0.111831  0.110767  0  1.008306  0
H  H23  1  0.55372845  0.36977606  0.24944730  1  0.10654  0  0.111739  0.110708  0  1.008274  0
H  H24  1  0.32687277  0.87014409  0.74950754  1  0.117327  0  0.112292  0.11068  0  1.008687  0
H  H25  1  0.92348090  0.63001643  0.74951547  1  0.118099  0  0.112078  0.111083  0  1.008675  0
H  H26  1  0.80303340  0.86992238  0.75056141  1  0.107631  0  0.111826  0.110747  0  1.008344  0
H  H27  1  0.44627113  0.63022277  0.75055488  1  0.106849  0  0.111742  0.11071  0  1.008304  0
H  H28  1  0.70309281  0.30926091  0.39218552  1  0.034907  0  0.07833  0.149386  0  1.064908  0
H  H29  1  0.90467459  0.19073447  0.39218654  1  0.031099  0  0.078849  0.149802  0  1.065336  0
H  H30  1  0.98759495  0.30918315  0.10790385  1  0.052484  0  0.078216  0.148549  0  1.065439  0
H  H31  1  0.90450392  0.19071830  0.10788395  1  0.053411  0  0.078228  0.149167  0  1.065053  0
H  H32  1  0.29691608  0.69073217  0.60782402  1  0.034671  0  0.07833  0.149369  0  1.065005  0
H  H33  1  0.09534671  0.80926244  0.60780515  1  0.031509  0  0.078781  0.149702  0  1.065533  0
H  H34  1  0.01239446  0.69081472  0.89208135  1  0.052454  0  0.078179  0.148542  0  1.065497  0
H  H35  1  0.09547826  0.80927670  0.89212379  1  0.053526  0  0.078233  0.149103  0  1.065072  0
H  H36  1  0.87798212  0.31200327  0.31896156  1  -0.002772  0  0.08178  0.152523  0  1.039498  0
H  H37  1  0.80297805  0.18798410  0.31897444  1  0.016489  0  0.081877  0.152575  0  1.041035  0
H  H38  1  0.80995536  0.31196228  0.18110874  1  -0.007447  0  0.082038  0.152315  0  1.040209  0
H  H39  1  0.00897125  0.18788281  0.18109727  1  0.002494  0  0.081642  0.151755  0  1.040818  0
H  H40  1  0.12200426  0.68800703  0.68103889  1  -0.00267  0  0.081747  0.152459  0  1.039584  0
H  H41  1  0.19701578  0.81202333  0.68102689  1  0.016442  0  0.081876  0.15255  0  1.040982  0
H  H42  1  0.19004568  0.68804993  0.81888754  1  -0.007837  0  0.08204  0.152304  0  1.040253  0
H  H43  1  0.99102983  0.81213132  0.81889917  1  0.002377  0  0.081677  0.15174  0  1.04071  0
H  H44  1  0.96760670  0.62587517  0.49380819  1  0.035271  0  0.084361  0.160985  0  1.021811  0
H  H45  1  0.53856611  0.87419028  0.49380563  1  -0.003678  0  0.08439  0.161025  0  1.022422  0
H  H46  1  0.40654774  0.62576397  0.00619474  1  0.035638  0  0.08433  0.16079  0  1.02215  0
H  H47  1  0.58721876  0.87424028  0.00622583  1  0.009006  0  0.084482  0.161006  0  1.022181  0
H  H48  1  0.03239863  0.37412175  0.50619147  1  0.035268  0  0.084391  0.161008  0  1.021801  0
H  H49  1  0.46142894  0.12581428  0.50619245  1  -0.003566  0  0.084411  0.161067  0  1.02243  0
H  H50  1  0.59344747  0.37424251  0.99380222  1  0.035567  0  0.084404  0.160804  0  1.022199  0
H  H51  1  0.41277532  0.12575950  0.99377562  1  0.009059  0  0.084465  0.160966  0  1.022231  0
H  H52  1  0.01051329  0.54823985  0.58337280  1  0.048087  0  0.083269  0.156223  0  1.042701  0
H  H53  1  0.40617108  0.95177758  0.58338132  1  0.015341  0  0.083058  0.156325  0  1.042914  0
H  H54  1  0.44131460  0.54818593  0.91662331  1  0.035102  0  0.083146  0.156505  0  1.042888  0
H  H55  1  0.64200485  0.95180839  0.91664915  1  0.033088  0  0.08314  0.156331  0  1.043424  0
H  H56  1  0.98948729  0.45175897  0.41662953  1  0.048134  0  0.083284  0.156248  0  1.042733  0
H  H57  1  0.59382606  0.04822794  0.41661649  1  0.0154  0  0.083075  0.156303  0  1.042894  0
H  H58  1  0.55867861  0.45182054  0.08337335  1  0.035228  0  0.083157  0.156548  0  1.042882  0
H  H59  1  0.35799025  0.04819426  0.08335329  1  0.033104  0  0.083172  0.156354  0  1.043349  0
H  H60  1  0.95957353  0.71620982  0.57206080  1  0.027208  0  0.077275  0.148261  0  1.067678  0
H  H61  1  0.46837613  0.78381547  0.57203808  1  0.027479  0  0.077321  0.148275  0  1.068528  0
H  H62  1  0.32424636  0.71613805  0.92792791  1  0.037036  0  0.077525  0.1484  0  1.067484  0
H  H63  1  0.74779972  0.78385927  0.92797440  1  0.039034  0  0.077641  0.14873  0  1.067348  0
H  H64  1  0.04043389  0.28378805  0.42793859  1  0.027256  0  0.07728  0.148266  0  1.06764  0
H  H65  1  0.53162104  0.21618909  0.42795902  1  0.027529  0  0.077306  0.148271  0  1.068528  0
H  H66  1  0.67575551  0.28386938  0.07206879  1  0.037171  0  0.07754  0.148426  0  1.067482  0
H  H67  1  0.25219913  0.21614147  0.07202523  1  0.039057  0  0.077632  0.148698  0  1.06739  0
H  H68  1  0.80402702  0.65349748  0.57978765  1  0.016483  0  0.079075  0.149432  0  1.053516  0
H  H69  1  0.61623898  0.84649090  0.57977139  1  0.016677  0  0.079232  0.14989  0  1.052006  0
H  H70  1  0.54251316  0.65341799  0.92022891  1  0.028659  0  0.07924  0.149361  0  1.053817  0
H  H71  1  0.53723352  0.84655216  0.92026186  1  0.029456  0  0.079435  0.149538  0  1.053152  0
H  H72  1  0.19597550  0.34650708  0.42021215  1  0.016434  0  0.079085  0.149445  0  1.053452  0
H  H73  1  0.38375967  0.15351270  0.42022586  1  0.016665  0  0.079206  0.149888  0  1.051956  0
H  H74  1  0.45748898  0.34658466  0.07976877  1  0.028371  0  0.079274  0.14942  0  1.053787  0
H  H75  1  0.46276337  0.15345049  0.07973764  1  0.029072  0  0.07943  0.149506  0  1.053101  0
C  C76  1  0.59634188  0.64139208  0.36535450  1  1.571385  0  0.257212  0.667742  0  4.109884  0
C  C77  1  0.03841175  0.85858108  0.36534769  1  1.57506  0  0.256782  0.667139  0  4.106824  0
C  C78  1  0.76235501  0.64132663  0.13465065  1  1.573438  0  0.256696  0.667782  0  4.104606  0
C  C79  1  0.10301162  0.85865099  0.13467401  1  1.55816  0  0.256065  0.666337  0  4.107252  0
C  C80  1  0.40365146  0.35860961  0.63465020  1  1.571881  0  0.257311  0.667898  0  4.109686  0
C  C81  1  0.96158367  0.14142253  0.63465165  1  1.5751  0  0.256847  0.667281  0  4.106569  0
C  C82  1  0.23765069  0.35866932  0.86535027  1  1.573633  0  0.256741  0.667845  0  4.104572  0
C  C83  1  0.89698999  0.14134018  0.86533112  1  1.558592  0  0.256115  0.666395  0  4.10703  0
C  C84  1  0.54494799  0.57008209  0.43545656  1  -0.01406  0  -0.006478  -0.041934  0  3.947982  0
C  C85  1  0.01968903  0.92989358  0.43545784  1  -0.036075  0  -0.006381  -0.041798  0  3.94947  0
C  C86  1  0.88508202  0.56999144  0.06457612  1  -0.084035  0  -0.006191  -0.040851  0  3.945501  0
C  C87  1  0.05039977  0.92996358  0.06457325  1  -0.024023  0  -0.006336  -0.041255  0  3.94561  0
C  C88  1  0.45504950  0.42991577  0.56454589  1  -0.014272  0  -0.006461  -0.041926  0  3.947863  0
C  C89  1  0.98030257  0.07011098  0.56453909  1  -0.036145  0  -0.006461  -0.04187  0  3.949461  0
C  C90  1  0.11492766  0.43000929  0.93542187  1  -0.08436  0  -0.006149  -0.04077  0  3.945219  0
C  C91  1  0.94959121  0.07003524  0.93543411  1  -0.024272  0  -0.006432  -0.041361  0  3.945599  0
C  C92  1  0.44199081  0.11619585  0.24987637  1  -0.060801  0  -0.005631  -0.039712  0  3.945259  0
C  C93  1  0.30827446  0.38367193  0.24988027  1  -0.062367  0  -0.005933  -0.041382  0  3.945975  0
C  C94  1  0.55801999  0.88379820  0.75011809  1  -0.061134  0  -0.005631  -0.039721  0  3.945668  0
C  C95  1  0.69172935  0.61632403  0.75011909  1  -0.062391  0  -0.005925  -0.04147  0  3.946064  0
C  C96  1  0.51339664  0.97325332  0.24992535  1  1.548053  0  0.253942  0.660138  0  4.121359  0
C  C97  1  0.23681152  0.52662119  0.24993184  1  1.530961  0  0.254133  0.661956  0  4.118654  0
C  C98  1  0.48661484  0.02674073  0.75006727  1  1.547628  0  0.253943  0.660198  0  4.121197  0
C  C99  1  0.76318626  0.47337763  0.75007329  1  1.530877  0  0.254291  0.662262  0  4.118322  0
C  C100  1  0.58609907  0.47005943  0.55911275  1  -0.129944  0  -0.073097  -0.084322  0  3.943803  0
C  C101  1  0.85478761  0.02988931  0.55908704  1  -0.032644  0  -0.073626  -0.085715  0  3.944228  0
C  C102  1  0.94373744  0.47023625  0.94088907  1  0.047293  0  -0.073036  -0.085595  0  3.940934  0
C  C103  1  0.11531911  0.02981649  0.94090447  1  -0.028294  0  -0.073359  -0.085835  0  3.941822  0
C  C104  1  0.41389995  0.52993939  0.44088999  1  -0.130025  0  -0.073091  -0.084354  0  3.943747  0
C  C105  1  0.14520832  0.97011239  0.44091160  1  -0.032328  0  -0.073596  -0.08564  0  3.944075  0
C  C106  1  0.05627276  0.52976544  0.05910907  1  0.0476  0  -0.072982  -0.085514  0  3.940902  0
C  C107  1  0.88467187  0.97018234  0.05910289  1  -0.026069  0  -0.073385  -0.085785  0  3.941973  0
C  C108  1  0.63025975  0.53992172  0.49504175  1  0.030531  0  -0.071485  -0.081368  0  3.951508  0
C  C109  1  0.87476676  0.95999829  0.49502311  1  -0.02675  0  -0.070605  -0.079995  0  3.953571  0
C  C110  1  0.82974176  0.54001037  0.00499337  1  -0.059143  0  -0.07174  -0.081217  0  3.950229  0
C  C111  1  0.16524727  0.96002839  0.00500489  1  -0.059876  0  -0.071279  -0.080226  0  3.951452  0
C  C112  1  0.36973482  0.46007711  0.50495970  1  0.030569  0  -0.071456  -0.081318  0  3.951352  0
C  C113  1  0.12522518  0.04000915  0.50497665  1  -0.026804  0  -0.070532  -0.079943  0  3.953442  0
C  C114  1  0.17026904  0.45999324  0.99500436  1  -0.058919  0  -0.071684  -0.081163  0  3.950048  0
C  C115  1  0.83474478  0.03996852  0.99500120  1  -0.062073  0  -0.071258  -0.080204  0  3.95168  0
C  C116  1  0.54284100  0.18344645  0.25021297  1  0.054452  0  -0.071066  -0.080836  0  3.948805  0
C  C117  1  0.20710181  0.31641174  0.25020670  1  0.053262  0  -0.070583  -0.080098  0  3.949059  0
C  C118  1  0.27373799  0.18356161  0.24974827  1  -0.079064  0  -0.070449  -0.080961  0  3.94852  0
C  C119  1  0.47666560  0.31628322  0.24975415  1  -0.078242  0  -0.069912  -0.079566  0  3.947646  0
C  C120  1  0.45716546  0.81655046  0.74978556  1  0.05508  0  -0.070957  -0.080696  0  3.948825  0
C  C121  1  0.79290528  0.68358326  0.74978986  1  0.053354  0  -0.070656  -0.080209  0  3.949033  0
C  C122  1  0.72626717  0.81643435  0.75024743  1  -0.079644  0  -0.07041  -0.080913  0  3.948769  0
C  C123  1  0.52334137  0.68371178  0.75024368  1  -0.07869  0  -0.069906  -0.079532  0  3.947738  0
C  C124  1  0.82224882  0.24999235  0.35545209  1  -0.083226  0  -0.338486  -0.608781  0  3.849965  0
C  C125  1  0.92769618  0.24993504  0.14462706  1  -0.104472  0  -0.337699  -0.606154  0  3.849521  0
C  C126  1  0.17775356  0.75000935  0.64454812  1  -0.083436  0  -0.33838  -0.608568  0  3.850212  0
C  C127  1  0.07229863  0.75007048  0.85536848  1  -0.104031  0  -0.337706  -0.606059  0  3.849528  0
C  C128  1  0.93581513  0.63557770  0.55703039  1  -0.129551  0  -0.34115  -0.61674  0  3.848501  0
C  C129  1  0.50717620  0.86444869  0.55703056  1  -0.058271  0  -0.341169  -0.617399  0  3.84903  0
C  C130  1  0.42863899  0.63551606  0.94297704  1  -0.139741  0  -0.341409  -0.617096  0  3.849286  0
C  C131  1  0.62835478  0.86447442  0.94300561  1  -0.113478  0  -0.34185  -0.617677  0  3.849438  0
C  C132  1  0.06418922  0.36442208  0.44296997  1  -0.129588  0  -0.341206  -0.616814  0  3.84845  0
C  C133  1  0.49281986  0.13555587  0.44296767  1  -0.058461  0  -0.341161  -0.61741  0  3.848946  0
C  C134  1  0.57135831  0.36449137  0.05701964  1  -0.13963  0  -0.341541  -0.617251  0  3.849364  0
C  C135  1  0.37164147  0.13552728  0.05699500  1  -0.113177  0  -0.341851  -0.617592  0  3.849386  0
O  O136  1  0.72141702  0.67068948  0.36052163  1  -1.189318  0  -0.358541  -0.62666  0  2.235879  0
O  O137  1  0.91831846  0.82903572  0.36058921  1  -1.190447  0  -0.358233  -0.626087  0  2.2342  0
O  O138  1  0.60806136  0.67062918  0.13942642  1  -1.188626  0  -0.358233  -0.625967  0  2.236367  0
O  O139  1  0.25262336  0.82905739  0.13938606  1  -1.189692  0  -0.357626  -0.625567  0  2.238003  0
O  O140  1  0.27856858  0.32931699  0.63948036  1  -1.189432  0  -0.358564  -0.626739  0  2.235816  0
O  O141  1  0.08168136  0.17096980  0.63940705  1  -1.190258  0  -0.358234  -0.626096  0  2.234048  0
O  O142  1  0.39194416  0.32936199  0.86057477  1  -1.188641  0  -0.35828  -0.626008  0  2.2364  0
O  O143  1  0.74738213  0.17093856  0.86061162  1  -1.189672  0  -0.357633  -0.625524  0  2.237909  0
O  O144  1  0.43235512  0.91674230  0.22997547  1  -1.202931  0  -0.366084  -0.651838  0  2.306149  0
O  O145  1  0.33782796  0.58313365  0.23017459  1  -1.195533  0  -0.365827  -0.652381  0  2.306182  0
O  O146  1  0.65067892  0.91676625  0.27019548  1  -1.204012  0  -0.365618  -0.651328  0  2.304725  0
O  O147  1  0.07923216  0.58310105  0.27000775  1  -1.191242  0  -0.366174  -0.652956  0  2.304162  0
O  O148  1  0.56765542  0.08325270  0.77002223  1  -1.202799  0  -0.366103  -0.651925  0  2.305988  0
O  O149  1  0.66216897  0.41686422  0.76982841  1  -1.19558  0  -0.36588  -0.652452  0  2.305968  0
O  O150  1  0.34932733  0.08323066  0.72979981  1  -1.203583  0  -0.365656  -0.651371  0  2.304555  0
O  O151  1  0.92076410  0.41689299  0.73000131  1  -1.191125  0  -0.366303  -0.653168  0  2.304119  0
O  O152  1  0.51360885  0.66763121  0.31346808  1  -1.205203  0  -0.375117  -0.669117  0  2.364307  0
O  O153  1  0.17292296  0.83256665  0.31339451  1  -1.208994  0  -0.375213  -0.669277  0  2.362392  0
O  O154  1  0.81874816  0.66770315  0.18655996  1  -1.210555  0  -0.374735  -0.669529  0  2.3612  0
O  O155  1  0.99454027  0.83261142  0.18667618  1  -1.210868  0  -0.374957  -0.669155  0  2.362604  0
O  O156  1  0.48638192  0.33237048  0.68653688  1  -1.205238  0  -0.375202  -0.669216  0  2.364234  0
O  O157  1  0.82707394  0.16743887  0.68660584  1  -1.209029  0  -0.375228  -0.669329  0  2.362408  0
O  O158  1  0.18125472  0.33228707  0.81344207  1  -1.210587  0  -0.374757  -0.669573  0  2.361142  0
O  O159  1  0.00546171  0.16737879  0.81333022  1  -1.211198  0  -0.375021  -0.669258  0  2.362534  0
