# generated using pymatgen
data_CdH30C40(N3O2)2
_symmetry_space_group_name_H-M   'P 1'
_cell_length_a   10.57514909
_cell_length_b   16.36400638
_cell_length_c   23.07081777
_cell_angle_alpha   89.99967660
_cell_angle_beta   90.00017210
_cell_angle_gamma   105.79366693
_symmetry_Int_Tables_number   1
_chemical_formula_structural   CdH30C40(N3O2)2
_chemical_formula_sum   'Cd4 H120 C160 N24 O16'
_cell_volume   3841.72419421
_cell_formula_units_Z   4
loop_
 _symmetry_equiv_pos_site_id
 _symmetry_equiv_pos_as_xyz
  1  'x, y, z'
loop_
 _atom_site_type_symbol
 _atom_site_label
 _atom_site_symmetry_multiplicity
 _atom_site_fract_x
 _atom_site_fract_y
 _atom_site_fract_z
 _atom_site_occupancy
 _atom_site_pbe_bader_charge
 _atom_site_pbe_bader_spin_density
 _atom_site_pbe_cm5_charge
 _atom_site_pbe_ddec_charge
 _atom_site_pbe_ddec_spin_density
 _atom_site_pbe_ddec_sum_bond_order
 _atom_site_pbe_magmom
Cd  Cd0  1  0.69770917  0.03666781  0.09904717  1  1.249345  0  0.762735  0.865647  0  2.151536  0
Cd  Cd1  1  0.80228679  0.96332765  0.59904630  1  1.249442  0  0.762715  0.865731  0  2.151427  0
Cd  Cd2  1  0.30227044  0.96332262  0.90095680  1  1.249479  0  0.762722  0.865704  0  2.15149  0
Cd  Cd3  1  0.19770790  0.03666733  0.40095464  1  1.24941  0  0.762762  0.865693  0  2.151523  0
H  H4  1  0.92552069  0.22672965  0.07696840  1  0.183091  0  0.139816  0.116423  0  0.996483  0
H  H5  1  0.57447279  0.77326468  0.57696755  1  0.182672  0  0.139825  0.116418  0  0.996396  0
H  H6  1  0.07447492  0.77325584  0.92303730  1  0.183179  0  0.139835  0.116431  0  0.996329  0
H  H7  1  0.42552194  0.22673979  0.42302732  1  0.182797  0  0.139837  0.116398  0  0.996304  0
H  H8  1  0.83146301  0.02116120  0.96017541  1  0.1527  0  0.12271  0.118746  0  1.002069  0
H  H9  1  0.66851141  0.97884535  0.46018331  1  0.152825  0  0.122748  0.118799  0  1.00196  0
H  H10  1  0.16851077  0.97884057  0.03982075  1  0.15273  0  0.122778  0.118844  0  1.002018  0
H  H11  1  0.33146905  0.02116597  0.53982023  1  0.152913  0  0.12278  0.11889  0  1.002072  0
H  H12  1  0.06377776  0.12995982  0.92472296  1  0.176547  0  0.120615  0.124338  0  1.081155  0
H  H13  1  0.43620231  0.87004579  0.42472819  1  0.176392  0  0.120571  0.124372  0  1.081081  0
H  H14  1  0.93619854  0.87003880  0.07527451  1  0.176468  0  0.120567  0.12431  0  1.081027  0
H  H15  1  0.56378435  0.12996685  0.57527102  1  0.176765  0  0.120542  0.12429  0  1.081138  0
H  H16  1  0.14660034  0.30187487  0.08766739  1  0.094938  0  0.114178  0.123129  0  0.988966  0
H  H17  1  0.35337305  0.69812430  0.58766895  1  0.095083  0  0.114131  0.123004  0  0.989166  0
H  H18  1  0.85337282  0.69811360  0.91233962  1  0.095423  0  0.114168  0.12317  0  0.988994  0
H  H19  1  0.64661916  0.30188332  0.41233025  1  0.095075  0  0.114122  0.123012  0  0.989109  0
H  H20  1  0.34160755  0.42661226  0.07919206  1  0.106352  0  0.104093  0.099886  0  1.062565  0
H  H21  1  0.15837420  0.57338198  0.57918692  1  0.106564  0  0.104103  0.099911  0  1.06255  0
H  H22  1  0.65836499  0.57337937  0.92081971  1  0.106801  0  0.104093  0.099836  0  1.062559  0
H  H23  1  0.84162692  0.42662191  0.42081055  1  0.106532  0  0.104089  0.099878  0  1.06261  0
H  H24  1  0.34600781  0.39147542  0.89450090  1  0.096752  0  0.110596  0.118447  0  1.005879  0
H  H25  1  0.15400317  0.60852055  0.39449509  1  0.096628  0  0.110565  0.118363  0  1.005975  0
H  H26  1  0.65399725  0.60851712  0.10551174  1  0.096367  0  0.11051  0.118229  0  1.006096  0
H  H27  1  0.84599812  0.39148145  0.60550282  1  0.096694  0  0.110554  0.118345  0  1.005946  0
H  H28  1  0.14986667  0.26737467  0.90203695  1  0.089356  0  0.103585  0.104735  0  1.076542  0
H  H29  1  0.35014044  0.73262563  0.40203653  1  0.089293  0  0.103578  0.104778  0  1.076496  0
H  H30  1  0.85013744  0.73261785  0.09797049  1  0.089289  0  0.103626  0.104804  0  1.07665  0
H  H31  1  0.64985506  0.26738075  0.59796180  1  0.089361  0  0.103626  0.104835  0  1.076518  0
H  H32  1  0.39122572  0.90686919  0.04973704  1  0.145757  0  0.141704  0.106501  0  0.99447  0
H  H33  1  0.10876436  0.09312977  0.54973896  1  0.145921  0  0.141748  0.106515  0  0.994544  0
H  H34  1  0.60878135  0.09313539  0.95025913  1  0.145875  0  0.141666  0.106469  0  0.994455  0
H  H35  1  0.89121894  0.90686512  0.45026284  1  0.145709  0  0.141715  0.106522  0  0.9944  0
H  H36  1  0.77242690  0.89725742  0.00376756  1  0.149265  0  0.115627  0.104741  0  1.032163  0
H  H37  1  0.72756997  0.10274887  0.50376570  1  0.149225  0  0.115596  0.10469  0  1.032149  0
H  H38  1  0.22757783  0.10273195  0.99623555  1  0.149194  0  0.115608  0.104707  0  1.032162  0
H  H39  1  0.27241958  0.89725683  0.49623524  1  0.149275  0  0.115641  0.104764  0  1.032232  0
H  H40  1  0.59817747  0.74190270  0.97849132  1  0.121148  0  0.116937  0.109654  0  1.062213  0
H  H41  1  0.90182230  0.25810076  0.47848812  1  0.120927  0  0.116966  0.109648  0  1.062053  0
H  H42  1  0.40181327  0.25808718  0.02151178  1  0.119905  0  0.11694  0.109675  0  1.062242  0
H  H43  1  0.09817663  0.74190945  0.52151282  1  0.119876  0  0.117024  0.109767  0  1.062448  0
H  H44  1  0.25150741  0.78411058  0.08395921  1  0.08847  0  0.113696  0.120064  0  0.99041  0
H  H45  1  0.24848546  0.21589005  0.58395520  1  0.088788  0  0.11372  0.120103  0  0.990477  0
H  H46  1  0.74849707  0.21589461  0.91604216  1  0.088591  0  0.113715  0.120077  0  0.990513  0
H  H47  1  0.75150475  0.78410552  0.41604184  1  0.088582  0  0.113703  0.120075  0  0.990492  0
H  H48  1  0.05216444  0.66159427  0.08283019  1  0.096021  0  0.105149  0.105021  0  1.033719  0
H  H49  1  0.44782992  0.33840068  0.58282552  1  0.096283  0  0.105194  0.10504  0  1.033677  0
H  H50  1  0.94783934  0.33841154  0.91717205  1  0.096193  0  0.105173  0.105022  0  1.033611  0
H  H51  1  0.55216671  0.66158736  0.41716892  1  0.096155  0  0.105174  0.105039  0  1.033709  0
H  H52  1  0.21021138  0.54979589  0.94109962  1  0.114414  0  0.109176  0.112843  0  1.015864  0
H  H53  1  0.28979641  0.45019844  0.44108856  1  0.114355  0  0.109319  0.113006  0  1.015774  0
H  H54  1  0.78977601  0.45020915  0.05889655  1  0.114519  0  0.109237  0.112886  0  1.015973  0
H  H55  1  0.71020890  0.54979473  0.55890414  1  0.114282  0  0.109256  0.112952  0  1.015855  0
H  H56  1  0.40709634  0.67375920  0.93948144  1  0.088833  0  0.10836  0.116906  0  1.023067  0
H  H57  1  0.09290634  0.32623890  0.43947104  1  0.088786  0  0.108328  0.11683  0  1.023068  0
H  H58  1  0.59289416  0.32624650  0.06051602  1  0.088861  0  0.108393  0.117002  0  1.023007  0
H  H59  1  0.90708894  0.67375989  0.56052513  1  0.088451  0  0.108359  0.116883  0  1.023129  0
H  H60  1  0.60843896  0.76529742  0.19349527  1  0.06987  0  0.101471  0.103098  0  1.033006  0
H  H61  1  0.89156877  0.23470693  0.69349397  1  0.069564  0  0.101497  0.103159  0  1.03298  0
H  H62  1  0.39157102  0.23470971  0.80650913  1  0.069665  0  0.101515  0.103198  0  1.032975  0
H  H63  1  0.10842662  0.76528742  0.30650393  1  0.069562  0  0.101494  0.103117  0  1.033022  0
H  H64  1  0.66570583  0.63371424  0.22551871  1  0.086604  0  0.094351  0.090591  0  1.069846  0
H  H65  1  0.83430340  0.36628862  0.72552114  1  0.086637  0  0.094327  0.09058  0  1.069782  0
H  H66  1  0.33430047  0.36628843  0.77448093  1  0.086462  0  0.094333  0.090606  0  1.069818  0
H  H67  1  0.16570060  0.63370833  0.27447979  1  0.08663  0  0.094312  0.090628  0  1.069836  0
H  H68  1  0.07603327  0.76144946  0.20218512  1  0.072088  0  0.100485  0.106193  0  1.011547  0
H  H69  1  0.42397338  0.23855294  0.70218905  1  0.072185  0  0.100524  0.10621  0  1.011527  0
H  H70  1  0.92397562  0.23855260  0.79781105  1  0.072205  0  0.100525  0.106216  0  1.01153  0
H  H71  1  0.57602361  0.76144775  0.29781449  1  0.072217  0  0.100548  0.10624  0  1.011522  0
H  H72  1  0.01725411  0.89271742  0.17222315  1  0.104644  0  0.110593  0.118443  0  0.982917  0
H  H73  1  0.48275302  0.10728900  0.67222336  1  0.104731  0  0.110638  0.118435  0  0.982881  0
H  H74  1  0.98275365  0.10728653  0.82777562  1  0.104677  0  0.110617  0.118422  0  0.982931  0
H  H75  1  0.51724043  0.89271229  0.32777845  1  0.10475  0  0.110647  0.118474  0  0.982891  0
H  H76  1  0.93207947  0.49623753  0.35463813  1  0.04464  0  0.092026  0.087164  0  1.073604  0
H  H77  1  0.56793110  0.50376187  0.85463878  1  0.044673  0  0.092078  0.087305  0  1.073517  0
H  H78  1  0.06793460  0.50376331  0.64536238  1  0.044475  0  0.092066  0.087251  0  1.073493  0
H  H79  1  0.43208089  0.49624085  0.14535956  1  0.044752  0  0.092051  0.087187  0  1.073569  0
H  H80  1  0.96358505  0.57975645  0.14871897  1  0.051327  0  0.094681  0.097711  0  1.043508  0
H  H81  1  0.53640219  0.42024236  0.64871948  1  0.051422  0  0.094658  0.097636  0  1.043505  0
H  H82  1  0.03642497  0.42024372  0.85128110  1  0.05119  0  0.094673  0.097688  0  1.043444  0
H  H83  1  0.46358502  0.57974812  0.35128146  1  0.051728  0  0.094701  0.097659  0  1.043574  0
H  H84  1  0.85790335  0.61164646  0.38162779  1  0.031873  0  0.086571  0.126137  0  1.010541  0
H  H85  1  0.64211589  0.38836231  0.88162770  1  0.032466  0  0.086499  0.126118  0  1.010479  0
H  H86  1  0.14210992  0.38835944  0.61837185  1  0.032218  0  0.086518  0.126126  0  1.010512  0
H  H87  1  0.35789763  0.61164422  0.11837193  1  0.031857  0  0.086551  0.126136  0  1.010529  0
H  H88  1  0.74086445  0.62940429  0.33138195  1  0.05213  0  0.087391  0.12409  0  1.030239  0
H  H89  1  0.75915119  0.37060102  0.83138209  1  0.052132  0  0.08739  0.124063  0  1.030328  0
H  H90  1  0.25914755  0.37059843  0.66861769  1  0.052158  0  0.087405  0.124075  0  1.030349  0
H  H91  1  0.24085898  0.62940422  0.16861798  1  0.05229  0  0.087396  0.124098  0  1.030159  0
H  H92  1  0.89676811  0.70302806  0.33609565  1  0.02743  0  0.092363  0.133086  0  1.001773  0
H  H93  1  0.60324772  0.29697531  0.83609978  1  0.027597  0  0.092374  0.133108  0  1.001695  0
H  H94  1  0.10324527  0.29697340  0.66390009  1  0.027523  0  0.092384  0.133132  0  1.001712  0
H  H95  1  0.39676660  0.70302616  0.16390332  1  0.027477  0  0.092351  0.133116  0  1.001786  0
H  H96  1  0.04312236  0.37616442  0.17950657  1  0.044515  0  0.089755  0.126751  0  1.020953  0
H  H97  1  0.45686552  0.62383166  0.67950987  1  0.044631  0  0.089742  0.126761  0  1.020975  0
H  H98  1  0.95687741  0.62383376  0.82048830  1  0.044519  0  0.089777  0.126758  0  1.02099  0
H  H99  1  0.54312461  0.37616138  0.32049150  1  0.044398  0  0.089767  0.126782  0  1.02101  0
H  H100  1  0.14501902  0.47191380  0.15049057  1  0.048  0  0.08841  0.131002  0  1.009732  0
H  H101  1  0.35497186  0.52808316  0.65049368  1  0.047983  0  0.08836  0.130897  0  1.009709  0
H  H102  1  0.85497980  0.52808438  0.84950474  1  0.048107  0  0.088391  0.130968  0  1.009696  0
H  H103  1  0.64502371  0.47190930  0.34950596  1  0.047963  0  0.088378  0.131018  0  1.009666  0
H  H104  1  0.98148909  0.43337657  0.12552374  1  0.0586  0  0.087747  0.125704  0  1.024409  0
H  H105  1  0.51850073  0.56662434  0.62552624  1  0.058763  0  0.087794  0.125674  0  1.024401  0
H  H106  1  0.01850841  0.56662540  0.87447330  1  0.058712  0  0.087799  0.125778  0  1.024377  0
H  H107  1  0.48149429  0.43337381  0.37447340  1  0.058663  0  0.087801  0.125779  0  1.024321  0
H  H108  1  0.82927280  0.32819050  0.32297849  1  0.047203  0  0.097776  0.099922  0  1.009089  0
H  H109  1  0.67073645  0.67180849  0.82298641  1  0.047003  0  0.09777  0.099998  0  1.008932  0
H  H110  1  0.17073397  0.67180395  0.67701638  1  0.047042  0  0.097746  0.099928  0  1.008985  0
H  H111  1  0.32927849  0.32818983  0.17701496  1  0.046798  0  0.097745  0.099972  0  1.008844  0
H  H112  1  0.89242420  0.20126786  0.36087818  1  0.105546  0  0.103635  0.109683  0  1.003308  0
H  H113  1  0.60758603  0.79873529  0.86088247  1  0.105393  0  0.103572  0.109605  0  1.003227  0
H  H114  1  0.10758900  0.79873551  0.63912059  1  0.105423  0  0.103597  0.109663  0  1.003224  0
H  H115  1  0.39243899  0.20126691  0.13911847  1  0.105506  0  0.10371  0.109847  0  1.003188  0
H  H116  1  0.28665819  0.30703446  0.30071194  1  0.104022  0  0.101695  0.107991  0  1.020456  0
H  H117  1  0.21335432  0.69296917  0.80071160  1  0.104171  0  0.101717  0.108042  0  1.020429  0
H  H118  1  0.71335373  0.69296573  0.69929073  1  0.104081  0  0.101718  0.108019  0  1.020485  0
H  H119  1  0.78666781  0.30703996  0.19929021  1  0.103862  0  0.101687  0.107929  0  1.020589  0
H  H120  1  0.22547149  0.43409701  0.26279057  1  0.067223  0  0.094259  0.093078  0  1.062653  0
H  H121  1  0.27453880  0.56590877  0.76279083  1  0.067214  0  0.094331  0.093161  0  1.06258  0
H  H122  1  0.77453783  0.56590379  0.73720950  1  0.067314  0  0.094298  0.093145  0  1.062566  0
H  H123  1  0.72547721  0.43410157  0.23720708  1  0.066871  0  0.094275  0.093079  0  1.062614  0
C  C124  1  0.93143561  0.18564951  0.04075001  1  0.939087  0  0.147441  0.106994  0  3.88515  0
C  C125  1  0.56854909  0.81434945  0.54075202  1  0.9397  0  0.147499  0.107252  0  3.885142  0
C  C126  1  0.06855634  0.81434102  0.95925353  1  0.938594  0  0.147446  0.107204  0  3.885053  0
C  C127  1  0.43143889  0.18565940  0.45924545  1  0.939178  0  0.147476  0.10725  0  3.884701  0
C  C128  1  0.88516624  0.08113797  0.97912308  1  0.32835  0  -0.001215  -0.031159  0  4.006257  0
C  C129  1  0.61481076  0.91886530  0.47912897  1  0.284281  0  -0.001312  -0.03115  0  4.006166  0
C  C130  1  0.11481075  0.91886003  0.02087396  1  0.284445  0  -0.001353  -0.031247  0  4.006341  0
C  C131  1  0.38517222  0.08114288  0.52087284  1  0.328483  0  -0.001212  -0.031311  0  4.006179  0
C  C132  1  0.99955349  0.13601668  0.96009424  1  0.298491  0  0.000687  -0.101412  0  3.908992  0
C  C133  1  0.50043121  0.86398489  0.46009847  1  0.342923  0  0.000659  -0.101564  0  3.909066  0
C  C134  1  0.00042988  0.86398074  0.03990236  1  0.342826  0  0.000704  -0.10138  0  3.909097  0
C  C135  1  0.49956140  0.13602843  0.53990030  1  0.298586  0  0.000762  -0.101274  0  3.908828  0
C  C136  1  0.13689683  0.27608958  0.99534744  1  0.290819  0  0.105367  0.180365  0  3.990009  0
C  C137  1  0.36309371  0.72390801  0.49534751  1  0.290624  0  0.105332  0.180339  0  3.990119  0
C  C138  1  0.86308848  0.72390089  0.00466000  1  0.290983  0  0.105282  0.180376  0  3.990064  0
C  C139  1  0.63689843  0.27609708  0.50465212  1  0.291111  0  0.105285  0.180259  0  3.99018  0
C  C140  1  0.18942482  0.32204247  0.04529870  1  0.004406  0  -0.0834  -0.154866  0  3.963686  0
C  C141  1  0.31056327  0.67795397  0.54529768  1  0.004691  0  -0.083401  -0.154819  0  3.963809  0
C  C142  1  0.81055929  0.67794735  0.95470961  1  0.004245  0  -0.0834  -0.155135  0  3.963761  0
C  C143  1  0.68943197  0.32205178  0.45470152  1  0.004117  0  -0.083334  -0.154715  0  3.963532  0
C  C144  1  0.29859940  0.39153602  0.04073399  1  -0.059236  0  -0.079197  -0.125625  0  3.954088  0
C  C145  1  0.20138747  0.60845981  0.54073051  1  -0.059889  0  -0.079264  -0.125724  0  3.953907  0
C  C146  1  0.70138358  0.60845570  0.95927648  1  -0.059773  0  -0.079239  -0.125405  0  3.953719  0
C  C147  1  0.79860923  0.39154721  0.45926826  1  -0.059647  0  -0.079266  -0.125681  0  3.953933  0
C  C148  1  0.35730218  0.41600781  0.98632075  1  0.291459  0  0.084205  0.15001  0  4.06159  0
C  C149  1  0.14269420  0.58398799  0.48631675  1  0.292105  0  0.084393  0.150215  0  4.061295  0
C  C150  1  0.64268839  0.58398397  0.01369189  1  0.291868  0  0.084217  0.149827  0  4.061712  0
C  C151  1  0.85730363  0.41601714  0.51368288  1  0.292374  0  0.084325  0.150111  0  4.061418  0
C  C152  1  0.30139978  0.37137131  0.93656271  1  0.018897  0  -0.071978  -0.112734  0  3.931764  0
C  C153  1  0.19860522  0.62862556  0.43655861  1  0.018589  0  -0.071946  -0.112681  0  3.931524  0
C  C154  1  0.69860268  0.62862184  0.06344863  1  0.018739  0  -0.071926  -0.112379  0  3.931615  0
C  C155  1  0.80139185  0.37137767  0.56344016  1  0.018214  0  -0.071968  -0.112614  0  3.931316  0
C  C156  1  0.19207755  0.30173413  0.94091892  1  0.018583  0  -0.087817  -0.162101  0  3.976803  0
C  C157  1  0.30792254  0.69826457  0.44091773  1  0.018479  0  -0.087843  -0.162182  0  3.976732  0
C  C158  1  0.80791922  0.69825897  0.05908851  1  0.018375  0  -0.087685  -0.162066  0  3.976964  0
C  C159  1  0.69207402  0.30173739  0.55908104  1  0.0185  0  -0.087845  -0.162212  0  3.976819  0
C  C160  1  0.47269273  0.88441053  0.03443166  1  0.981407  0  0.152874  0.118057  0  3.889171  0
C  C161  1  0.02729970  0.11558983  0.53442991  1  0.981458  0  0.152847  0.117995  0  3.889168  0
C  C162  1  0.52730995  0.11559022  0.96556625  1  0.981406  0  0.152946  0.118093  0  3.88901  0
C  C163  1  0.97268944  0.88441017  0.46556929  1  0.981626  0  0.152867  0.118042  0  3.888993  0
C  C164  1  0.66664062  0.87678515  0.00872184  1  0.390385  0  -0.002377  -0.025896  0  4.001349  0
C  C165  1  0.83335462  0.12322173  0.50872134  1  0.390851  0  -0.002414  -0.025962  0  4.001636  0
C  C166  1  0.33336038  0.12320672  0.99128040  1  0.390276  0  -0.002302  -0.025877  0  4.001506  0
C  C167  1  0.16664234  0.87678593  0.49128046  1  0.390014  0  -0.002412  -0.026036  0  4.001155  0
C  C168  1  0.58221551  0.79940012  0.99629161  1  0.278944  0  0.003698  -0.087463  0  3.915076  0
C  C169  1  0.91777684  0.20059871  0.49628952  1  0.278891  0  0.003717  -0.087442  0  3.91502  0
C  C170  1  0.41777925  0.20059739  0.00371236  1  0.280336  0  0.003656  -0.087515  0  3.914997  0
C  C171  1  0.08221391  0.79939117  0.50371359  1  0.280518  0  0.003598  -0.087564  0  3.915047  0
C  C172  1  0.34234394  0.73639238  0.01197016  1  0.317021  0  0.109008  0.184104  0  3.984098  0
C  C173  1  0.15765636  0.26360441  0.51196626  1  0.317084  0  0.10889  0.183997  0  3.984124  0
C  C174  1  0.65765235  0.26360895  0.98802775  1  0.317201  0  0.109047  0.184141  0  3.98423  0
C  C175  1  0.84234030  0.73639312  0.48803121  1  0.316599  0  0.109043  0.184276  0  3.983942  0
C  C176  1  0.24182366  0.73386066  0.05198515  1  -0.037204  0  -0.085372  -0.159086  0  3.992643  0
C  C177  1  0.25817187  0.26613769  0.55197964  1  -0.037769  0  -0.085384  -0.159236  0  3.993031  0
C  C178  1  0.75817410  0.26614194  0.94801536  1  -0.037283  0  -0.085439  -0.159127  0  3.992783  0
C  C179  1  0.74182333  0.73385856  0.44801653  1  -0.037266  0  -0.085385  -0.159145  0  3.992908  0
C  C180  1  0.13095979  0.66506430  0.05180880  1  -0.026342  0  -0.077974  -0.126849  0  3.972899  0
C  C181  1  0.36903478  0.33493405  0.55180533  1  -0.026729  0  -0.078016  -0.126774  0  3.972939  0
C  C182  1  0.86903614  0.33494082  0.94819214  1  -0.026533  0  -0.077943  -0.126792  0  3.972745  0
C  C183  1  0.63096301  0.66506159  0.44819084  1  -0.026363  0  -0.077979  -0.126931  0  3.972941  0
C  C184  1  0.11904567  0.59782511  0.01253723  1  0.358058  0  0.082025  0.150254  0  4.055472  0
C  C185  1  0.38095490  0.40217231  0.51253395  1  0.35861  0  0.082099  0.150403  0  4.055284  0
C  C186  1  0.88094913  0.40218189  0.98746154  1  0.357649  0  0.081989  0.150323  0  4.05539  0
C  C187  1  0.61904706  0.59781957  0.48746265  1  0.357763  0  0.08203  0.150519  0  4.055222  0
C  C188  1  0.21993045  0.60148463  0.97196059  1  -0.033076  0  -0.076589  -0.119024  0  3.941389  0
C  C189  1  0.28007475  0.39851451  0.47195492  1  -0.033375  0  -0.07679  -0.119372  0  3.941494  0
C  C190  1  0.78006099  0.39852108  0.02803775  1  -0.033197  0  -0.076555  -0.118951  0  3.941531  0
C  C191  1  0.71992994  0.60148182  0.52804342  1  -0.033112  0  -0.076707  -0.119303  0  3.941522  0
C  C192  1  0.33046692  0.67036749  0.97164021  1  0.030987  0  -0.084685  -0.147831  0  3.95542  0
C  C193  1  0.16953758  0.32963229  0.47163380  1  0.030823  0  -0.084607  -0.147693  0  3.955304  0
C  C194  1  0.66952598  0.32963950  0.02835683  1  0.030818  0  -0.084816  -0.148174  0  3.955661  0
C  C195  1  0.83046149  0.67036653  0.52836497  1  0.031349  0  -0.084684  -0.147835  0  3.955387  0
C  C196  1  0.77167412  0.91199338  0.15649727  1  1.555477  0  0.183421  0.554081  0  4.238651  0
C  C197  1  0.72832790  0.08800677  0.65649460  1  1.5556  0  0.18349  0.55417  0  4.238583  0
C  C198  1  0.22833572  0.08800869  0.84350584  1  1.555751  0  0.183467  0.554239  0  4.238455  0
C  C199  1  0.27165438  0.91198558  0.34350374  1  1.555384  0  0.183424  0.554166  0  4.238519  0
C  C200  1  0.80876565  0.83652304  0.18037609  1  -0.048142  0  -0.018107  -0.029374  0  3.966008  0
C  C201  1  0.69123806  0.16348328  0.68037394  1  -0.047965  0  -0.018033  -0.029364  0  3.966183  0
C  C202  1  0.19124390  0.16348536  0.81962788  1  -0.04841  0  -0.018071  -0.02955  0  3.966332  0
C  C203  1  0.30875145  0.83651292  0.31962569  1  -0.048273  0  -0.018107  -0.029615  0  3.966452  0
C  C204  1  0.71047496  0.76350715  0.19603231  1  -0.082526  0  -0.085555  -0.093299  0  3.976228  0
C  C205  1  0.78953183  0.23649718  0.69603087  1  -0.082325  0  -0.085586  -0.093338  0  3.976322  0
C  C206  1  0.28953718  0.23650064  0.80396992  1  -0.018563  0  -0.085633  -0.093348  0  3.976514  0
C  C207  1  0.21046209  0.76349590  0.30396660  1  -0.082243  0  -0.085515  -0.093081  0  3.976344  0
C  C208  1  0.74292087  0.69035970  0.21365951  1  -0.042754  0  -0.094365  -0.13843  0  3.973221  0
C  C209  1  0.75708573  0.30964387  0.71365990  1  -0.043067  0  -0.094381  -0.138445  0  3.973346  0
C  C210  1  0.25709112  0.30964302  0.78634099  1  -0.106634  0  -0.09438  -0.138443  0  3.97347  0
C  C211  1  0.24291042  0.69035239  0.28634017  1  -0.042969  0  -0.0944  -0.1386  0  3.973421  0
C  C212  1  0.87469256  0.68827682  0.21523172  1  0.020649  0  -0.006615  0.081424  0  3.988224  0
C  C213  1  0.62531543  0.31172548  0.71523236  1  0.021357  0  -0.006629  0.081376  0  3.988384  0
C  C214  1  0.12531771  0.31172399  0.78476791  1  0.021401  0  -0.006629  0.081334  0  3.988355  0
C  C215  1  0.37468408  0.68827207  0.28476858  1  0.020791  0  -0.006617  0.081395  0  3.988288  0
C  C216  1  0.97317264  0.76181262  0.19997124  1  -0.030734  0  -0.092329  -0.140815  0  3.976484  0
C  C217  1  0.52683124  0.23818913  0.69997377  1  -0.030806  0  -0.092287  -0.140691  0  3.976545  0
C  C218  1  0.02683194  0.23818814  0.80002753  1  -0.030708  0  -0.092325  -0.140719  0  3.976421  0
C  C219  1  0.47316663  0.76180905  0.30002890  1  -0.0307  0  -0.092408  -0.140771  0  3.976356  0
C  C220  1  0.94070335  0.83545414  0.18337131  1  -0.081635  0  -0.081515  -0.091044  0  3.983397  0
C  C221  1  0.55930201  0.16455153  0.68337244  1  -0.081605  0  -0.081657  -0.091152  0  3.983748  0
C  C222  1  0.05930630  0.16454982  0.81662919  1  -0.081562  0  -0.081541  -0.091003  0  3.983615  0
C  C223  1  0.44068947  0.83544722  0.31663066  1  -0.081491  0  -0.081566  -0.09111  0  3.983775  0
C  C224  1  0.90980915  0.61048180  0.23420869  1  -0.063849  0  -0.01055  0.008011  0  3.982698  0
C  C225  1  0.59019599  0.38951780  0.73421026  1  -0.064561  0  -0.010591  0.007855  0  3.982927  0
C  C226  1  0.09019752  0.38951707  0.76578921  1  -0.064594  0  -0.010538  0.007996  0  3.982812  0
C  C227  1  0.40980731  0.61047979  0.26579024  1  -0.064009  0  -0.010592  0.007905  0  3.982869  0
C  C228  1  0.89689339  0.58554286  0.29297041  1  0.010206  0  -0.012874  0.121421  0  3.973184  0
C  C229  1  0.60311514  0.41445951  0.79297017  1  0.009825  0  -0.01287  0.121414  0  3.973217  0
C  C230  1  0.10311335  0.41445855  0.70702966  1  0.009869  0  -0.012869  0.121397  0  3.973254  0
C  C231  1  0.39689160  0.58554190  0.20702903  1  0.009835  0  -0.012857  0.12139  0  3.973248  0
C  C232  1  0.93611553  0.51386491  0.30890846  1  -0.030735  0  -0.098705  -0.205825  0  3.992349  0
C  C233  1  0.56389280  0.48613670  0.80890962  1  -0.030693  0  -0.098719  -0.205885  0  3.992432  0
C  C234  1  0.06389380  0.48613589  0.69109204  1  -0.030498  0  -0.098707  -0.205788  0  3.992503  0
C  C235  1  0.43611876  0.51386728  0.19108829  1  -0.030564  0  -0.098712  -0.205711  0  3.99232  0
C  C236  1  0.98636010  0.46563603  0.26922643  1  -0.07804  0  -0.0107  0.008143  0  3.981958  0
C  C237  1  0.51364601  0.53436776  0.76922905  1  -0.077935  0  -0.010723  0.008113  0  3.982198  0
C  C238  1  0.01364733  0.53436476  0.73077191  1  -0.077954  0  -0.010728  0.008005  0  3.982103  0
C  C239  1  0.48636770  0.46563688  0.23076842  1  -0.077641  0  -0.010705  0.008115  0  3.982132  0
C  C240  1  0.99750396  0.48982153  0.21036155  1  0.023652  0  -0.009128  0.125176  0  3.948998  0
C  C241  1  0.50249237  0.51018008  0.71036469  1  0.023729  0  -0.00912  0.125112  0  3.948928  0
C  C242  1  0.00250062  0.51017923  0.78963679  1  0.023848  0  -0.009154  0.125113  0  3.948912  0
C  C243  1  0.49750739  0.48981811  0.28963495  1  0.023729  0  -0.009114  0.125139  0  3.948877  0
C  C244  1  0.95871072  0.56213279  0.19445427  1  -0.074208  0  -0.095244  -0.196706  0  3.968932  0
C  C245  1  0.54128694  0.43786768  0.69445818  1  -0.07436  0  -0.095209  -0.196524  0  3.968827  0
C  C246  1  0.04129766  0.43786800  0.80554450  1  -0.074  0  -0.095241  -0.196627  0  3.968875  0
C  C247  1  0.45871041  0.56212922  0.30554362  1  -0.074719  0  -0.095274  -0.196623  0  3.96894  0
C  C248  1  0.84584337  0.63487438  0.33794137  1  -0.056456  0  -0.24331  -0.414046  0  3.973438  0
C  C249  1  0.65417305  0.36513278  0.83794053  1  -0.057025  0  -0.243266  -0.41403  0  3.97327  0
C  C250  1  0.15417172  0.36512900  0.66205870  1  -0.056792  0  -0.243319  -0.414094  0  3.973272  0
C  C251  1  0.34583832  0.63487310  0.16205867  1  -0.056477  0  -0.243275  -0.414067  0  3.973327  0
C  C252  1  0.04404687  0.43972499  0.16418579  1  -0.09401  0  -0.243402  -0.413593  0  3.960818  0
C  C253  1  0.45594457  0.56027313  0.66418761  1  -0.094137  0  -0.243391  -0.413442  0  3.960686  0
C  C254  1  0.95595487  0.56027574  0.83581212  1  -0.094237  0  -0.243422  -0.413579  0  3.960747  0
C  C255  1  0.54404987  0.43972121  0.33581203  1  -0.093834  0  -0.243408  -0.413652  0  3.960705  0
C  C256  1  0.02349494  0.39006039  0.29083981  1  -0.009935  0  -0.007461  0.079961  0  4.000235  0
C  C257  1  0.47651031  0.60993946  0.79084103  1  -0.010062  0  -0.007501  0.080065  0  4.000312  0
C  C258  1  0.97650811  0.60993656  0.70915939  1  -0.010169  0  -0.007494  0.080151  0  4.000333  0
C  C259  1  0.52350289  0.39006391  0.20915644  1  -0.010676  0  -0.007447  0.07994  0  4.000531  0
C  C260  1  0.93031324  0.32424390  0.31902942  1  -0.047704  0  -0.093533  -0.138128  0  3.983794  0
C  C261  1  0.56969118  0.67575254  0.81903198  1  -0.047795  0  -0.093555  -0.138415  0  3.983621  0
C  C262  1  0.06968619  0.67575112  0.68096892  1  -0.047575  0  -0.093528  -0.138311  0  3.983809  0
C  C263  1  0.43032592  0.32424643  0.18096765  1  -0.04663  0  -0.09347  -0.138089  0  3.983691  0
C  C264  1  0.96459016  0.25322563  0.33983335  1  -0.068587  0  -0.085898  -0.09447  0  3.986402  0
C  C265  1  0.53541328  0.74677508  0.83983602  1  -0.068311  0  -0.085798  -0.094219  0  3.98612  0
C  C266  1  0.03541322  0.74677449  0.66016542  1  -0.068442  0  -0.085801  -0.094312  0  3.986342  0
C  C267  1  0.46460484  0.25322642  0.16016491  1  -0.069063  0  -0.08595  -0.09469  0  3.986613  0
C  C268  1  0.09357654  0.24717912  0.33351310  1  -0.056585  0  -0.018362  -0.027621  0  3.97517  0
C  C269  1  0.40642660  0.75282419  0.83351278  1  -0.056707  0  -0.018356  -0.02773  0  3.975293  0
C  C270  1  0.90642779  0.75282101  0.66649043  1  -0.05647  0  -0.018465  -0.027795  0  3.975441  0
C  C271  1  0.59358926  0.24718109  0.16648772  1  -0.056078  0  -0.018474  -0.027777  0  3.97556  0
C  C272  1  0.18687368  0.31268707  0.30547458  1  0.025221  0  -0.085797  -0.090304  0  3.96801  0
C  C273  1  0.31313531  0.68731713  0.80547397  1  0.025137  0  -0.085768  -0.090234  0  3.967977  0
C  C274  1  0.81313350  0.68731308  0.69452722  1  0.025318  0  -0.085735  -0.09019  0  3.96816  0
C  C275  1  0.68688442  0.31269072  0.19452394  1  0.025239  0  -0.08576  -0.090137  0  3.967978  0
C  C276  1  0.15214740  0.38312692  0.28418215  1  -0.142529  0  -0.095303  -0.138076  0  3.977644  0
C  C277  1  0.34786392  0.61687872  0.78418273  1  -0.142256  0  -0.095412  -0.138274  0  3.977735  0
C  C278  1  0.84786124  0.61687450  0.71581792  1  -0.142537  0  -0.095384  -0.138281  0  3.977818  0
C  C279  1  0.65215278  0.38313101  0.21581430  1  -0.142198  0  -0.095329  -0.138118  0  3.977628  0
C  C280  1  0.13319946  0.17257999  0.35697235  1  1.555717  0  0.183784  0.55436  0  4.231076  0
C  C281  1  0.36681310  0.82741816  0.85697732  1  1.555643  0  0.184034  0.554568  0  4.230858  0
C  C282  1  0.86681713  0.82741771  0.64302642  1  1.555376  0  0.184046  0.554623  0  4.230531  0
C  C283  1  0.63320546  0.17258208  0.14303012  1  1.555263  0  0.183776  0.554285  0  4.230827  0
N  N284  1  0.84374655  0.11268669  0.02915623  1  -1.205511  0  -0.351272  -0.294636  0  3.524761  0
N  N285  1  0.65623577  0.88731359  0.52916066  1  -1.205803  0  -0.351291  -0.29497  0  3.525092  0
N  N286  1  0.15623719  0.88730693  0.97084514  1  -1.205665  0  -0.351346  -0.294975  0  3.525055  0
N  N287  1  0.34375005  0.11269460  0.47083897  1  -1.2055  0  -0.351374  -0.294887  0  3.524714  0
N  N288  1  0.02887736  0.20280468  0.99952682  1  -1.250826  0  -0.22528  0.001231  0  3.781419  0
N  N289  1  0.47110948  0.79719537  0.49952891  1  -1.251009  0  -0.225199  0.001365  0  3.7815  0
N  N290  1  0.97110993  0.79718834  0.00047455  1  -1.250555  0  -0.225222  0.001198  0  3.781445  0
N  N291  1  0.52887919  0.20281285  0.50046899  1  -1.251292  0  -0.225272  0.001177  0  3.781393  0
N  N292  1  0.47164026  0.48288160  0.97706745  1  -0.4611  0  -0.151409  -0.135761  0  3.290214  0
N  N293  1  0.02835755  0.51711554  0.47706010  1  -0.460681  0  -0.151357  -0.135669  0  3.290204  0
N  N294  1  0.52834582  0.51711077  0.02294693  1  -0.505832  0  -0.15126  -0.135741  0  3.290565  0
N  N295  1  0.97164166  0.48288834  0.52293824  1  -0.506047  0  -0.15138  -0.135877  0  3.29049  0
N  N296  1  0.00414145  0.53024725  0.01780282  1  -0.48264  0  -0.152266  -0.139045  0  3.295275  0
N  N297  1  0.49585906  0.46974760  0.51779855  1  -0.483343  0  -0.152364  -0.139136  0  3.295252  0
N  N298  1  0.99585310  0.46975912  0.98219812  1  -0.533848  0  -0.152302  -0.139167  0  3.295445  0
N  N299  1  0.50414585  0.53023988  0.48219588  1  -0.533211  0  -0.152221  -0.139128  0  3.295294  0
N  N300  1  0.45854454  0.80416717  0.01325007  1  -1.253861  0  -0.219464  0.013087  0  3.781103  0
N  N301  1  0.04145033  0.19583020  0.51324586  1  -1.253796  0  -0.219402  0.013372  0  3.780766  0
N  N302  1  0.54145358  0.19583164  0.98675087  1  -1.254233  0  -0.219432  0.013202  0  3.780975  0
N  N303  1  0.95854349  0.80416731  0.48675291  1  -1.253679  0  -0.219447  0.013094  0  3.78102  0
N  N304  1  0.59734509  0.92954178  0.03216212  1  -1.201168  0  -0.348596  -0.293787  0  3.48514  0
N  N305  1  0.90264517  0.07046172  0.53216236  1  -1.201366  0  -0.348584  -0.293806  0  3.485142  0
N  N306  1  0.40265866  0.07045454  0.96783709  1  -1.201093  0  -0.348641  -0.293794  0  3.485247  0
N  N307  1  0.09734197  0.92954269  0.46783944  1  -1.201068  0  -0.348584  -0.293721  0  3.485039  0
O  O308  1  0.85631619  0.96353450  0.12458201  1  -1.171247  0  -0.344514  -0.56325  0  2.147412  0
O  O309  1  0.64368352  0.03647220  0.62457684  1  -1.171301  0  -0.344507  -0.563256  0  2.147348  0
O  O310  1  0.14369285  0.03647263  0.87542456  1  -1.171163  0  -0.344466  -0.563218  0  2.147345  0
O  O311  1  0.35629504  0.96352265  0.37542410  1  -1.170827  0  -0.344463  -0.563194  0  2.147213  0
O  O312  1  0.65701468  0.91980951  0.16594070  1  -1.152728  0  -0.343255  -0.55119  0  2.118423  0
O  O313  1  0.84298900  0.08018995  0.66594083  1  -1.15278  0  -0.343287  -0.551221  0  2.118355  0
O  O314  1  0.34299395  0.08019191  0.83405807  1  -1.15291  0  -0.343301  -0.551242  0  2.11824  0
O  O315  1  0.15699536  0.91980052  0.33405794  1  -1.153036  0  -0.343302  -0.551227  0  2.118458  0
O  O316  1  0.25212790  0.17053039  0.35080057  1  -1.16313  0  -0.342129  -0.560665  0  2.139375  0
O  O317  1  0.24788179  0.82946778  0.85080710  1  -1.163076  0  -0.342239  -0.560758  0  2.13938  0
O  O318  1  0.74788591  0.82946981  0.64919300  1  -1.162961  0  -0.342237  -0.560779  0  2.139245  0
O  O319  1  0.75213505  0.17053055  0.14919817  1  -1.163175  0  -0.342124  -0.560672  0  2.139346  0
O  O320  1  0.04675280  0.11380136  0.38309936  1  -1.15192  0  -0.34719  -0.560258  0  2.146936  0
O  O321  1  0.45325372  0.88619782  0.88310594  1  -1.151862  0  -0.347337  -0.560367  0  2.146817  0
O  O322  1  0.95326291  0.88619886  0.61689768  1  -1.151965  0  -0.347306  -0.560382  0  2.146673  0
O  O323  1  0.54675502  0.11379918  0.11690627  1  -1.151751  0  -0.347213  -0.560153  0  2.146675  0
