# generated using pymatgen
data_NiH24(C5N3)6
_symmetry_space_group_name_H-M   'P 1'
_cell_length_a   9.33848357
_cell_length_b   11.97755745
_cell_length_c   13.52469629
_cell_angle_alpha   90.00077422
_cell_angle_beta   105.15848298
_cell_angle_gamma   89.99994953
_symmetry_Int_Tables_number   1
_chemical_formula_structural   NiH24(C5N3)6
_chemical_formula_sum   'Ni2 H48 C60 N36'
_cell_volume   1460.13246440
_cell_formula_units_Z   2
loop_
 _symmetry_equiv_pos_site_id
 _symmetry_equiv_pos_as_xyz
  1  'x, y, z'
loop_
 _atom_site_type_symbol
 _atom_site_label
 _atom_site_symmetry_multiplicity
 _atom_site_fract_x
 _atom_site_fract_y
 _atom_site_fract_z
 _atom_site_occupancy
 _atom_site_hle17_ddec_charge
 _atom_site_hle17_ddec_spin_density
 _atom_site_hle17_ddec_sum_bond_order
 _atom_site_hle17_magmom
 _atom_site_hse06_10hf_ddec_charge
 _atom_site_hse06_10hf_ddec_spin_density
 _atom_site_hse06_10hf_ddec_sum_bond_order
 _atom_site_hse06_10hf_magmom
 _atom_site_hse06_ddec_charge
 _atom_site_hse06_ddec_spin_density
 _atom_site_hse06_ddec_sum_bond_order
 _atom_site_hse06_magmom
 _atom_site_pbe_cm5_charge
 _atom_site_pbe_ddec_charge
 _atom_site_pbe_ddec_spin_density
 _atom_site_pbe_ddec_sum_bond_order
 _atom_site_pbe_magmom
Ni  Ni0  1  0.00000102  0.00000147  0.99999899  1  0.581037  -0.144749  2.335039  -0.111  0.58702  -0.00718  2.725218  -0.007  0.680428  -0.003621  2.655046  -0.004  0.653681  0.527917  -0.009323  2.770982  -0.009
Ni  Ni1  1  0.50000189  0.50000689  0.49999611  1  0.580844  -0.145213  2.334716  -0.112  0.586902  -0.007288  2.724853  -0.007  0.680333  -0.003692  2.654664  -0.004  0.653556  0.527778  -0.009479  2.770649  -0.009
H  H2  1  0.62100869  0.84951829  0.31241722  1  0.133405  -2.3e-05  0.951554  0.0  0.145175  2.2e-05  1.010522  0.0  0.148703  1.7e-05  1.007551  0.0  0.118271  0.142395  2.1e-05  1.013192  0.0
H  H3  1  0.12100679  0.65048576  0.81240772  1  0.13347  -4.1e-05  0.951624  0.0  0.145307  2.2e-05  1.010533  0.0  0.148785  1.6e-05  1.007622  0.0  0.118276  0.142526  2.1e-05  1.013205  0.0
H  H4  1  0.37898546  0.15047461  0.68759232  1  0.133429  -3.5e-05  0.951482  0.0  0.145249  2.2e-05  1.010398  0.0  0.148734  1.6e-05  1.007479  0.0  0.118286  0.142468  2.1e-05  1.013069  0.0
H  H5  1  0.87898681  0.34950964  0.18758766  1  0.133426  -3.2e-05  0.951599  0.0  0.145251  2.2e-05  1.010507  0.0  0.148731  1.7e-05  1.007595  0.0  0.118267  0.142472  2.1e-05  1.013177  0.0
H  H6  1  0.76205092  0.01190219  0.60703512  1  0.131192  3.2e-05  0.954766  0.0  0.140926  -1e-06  1.01901  0.0  0.144167  -6e-06  1.017387  0.0  0.115279  0.1383  -4e-06  1.020701  0.0
H  H7  1  0.26202317  0.48809851  0.10701627  1  0.131271  4.4e-05  0.954894  0.0  0.140984  -1e-06  1.019124  0.0  0.144236  -6e-06  1.017491  0.0  0.115288  0.13836  -3e-06  1.020812  0.0
H  H8  1  0.23795272  0.98810156  0.39296076  1  0.131184  3.6e-05  0.954638  0.0  0.140943  -1e-06  1.018856  0.0  0.144209  -6e-06  1.017205  0.0  0.115283  0.138316  -3e-06  1.020549  0.0
H  H9  1  0.73799278  0.51191943  0.89297910  1  0.131226  3.4e-05  0.954902  0.0  0.140942  -1e-06  1.019126  0.0  0.144227  -5e-06  1.01745  0.0  0.115295  0.138315  -3e-06  1.02082  0.0
H  H10  1  0.87867449  0.15126753  0.34357068  1  0.123565  -5e-06  0.945866  0.0  0.135944  -8e-06  1.004828  0.0  0.139163  -6e-06  1.003072  0.0  0.115504  0.133376  -4e-06  1.006614  0.0
H  H11  1  0.37866953  0.34874823  0.84357707  1  0.123503  9e-06  0.945999  0.0  0.135894  -8e-06  1.004933  0.0  0.139116  -5e-06  1.003183  0.0  0.115465  0.133324  -3e-06  1.006717  0.0
H  H12  1  0.12133572  0.84872454  0.65642873  1  0.123571  -5e-06  0.94584  0.0  0.135972  -8e-06  1.004779  0.0  0.139192  -6e-06  1.003025  0.0  0.11551  0.133404  -4e-06  1.006567  0.0
H  H13  1  0.62132929  0.65125719  0.15642748  1  0.123574  -6e-06  0.945926  0.0  0.135971  -8e-06  1.004866  0.0  0.139185  -6e-06  1.00311  0.0  0.115493  0.133399  -4e-06  1.006652  0.0
H  H14  1  0.98501270  0.04849357  0.22457715  1  0.100507  -0.000327  0.965634  0.0  0.107074  6.1e-05  1.033568  0.0  0.109889  9.2e-05  1.02996  0.0  0.133742  0.105366  8.7e-05  1.035708  0.0
H  H15  1  0.48502546  0.45151284  0.72457205  1  0.100491  -0.000329  0.965569  0.0  0.107032  6.2e-05  1.033544  0.0  0.109875  9.3e-05  1.029902  0.0  0.133704  0.105327  8.7e-05  1.035681  0.0
H  H16  1  0.01496516  0.95150434  0.77542029  1  0.10059  -0.000323  0.965276  0.0  0.107074  6.2e-05  1.033323  0.0  0.109959  9.3e-05  1.029637  0.0  0.133756  0.10537  8.8e-05  1.03545  0.0
H  H17  1  0.51497713  0.54848841  0.27542215  1  0.100498  -0.000318  0.965563  0.0  0.107039  6.2e-05  1.033545  0.0  0.109877  9.3e-05  1.02991  0.0  0.133737  0.105332  8.7e-05  1.035681  0.0
H  H18  1  0.66490711  0.91582210  0.97366152  1  0.111104  5.6e-05  0.983748  0.0  0.118147  0.000381  1.046835  0.0  0.119348  0.000332  1.04811  0.0  0.118899  0.11699  0.000391  1.046559  0.0
H  H19  1  0.16490723  0.58415421  0.47365280  1  0.111042  6.5e-05  0.983909  0.0  0.118159  0.000381  1.046812  0.0  0.119368  0.000332  1.048078  0.0  0.118857  0.116992  0.000391  1.046566  0.0
H  H20  1  0.33510534  0.08415660  0.02633760  1  0.110951  6.2e-05  0.984115  0.0  0.118226  0.000381  1.046881  0.0  0.119429  0.000332  1.048153  0.0  0.118863  0.117056  0.000391  1.046637  0.0
H  H21  1  0.83508511  0.41584453  0.52634603  1  0.111059  6.7e-05  0.983807  0.0  0.11823  0.000381  1.046689  0.0  0.119433  0.000333  1.047961  0.0  0.118901  0.117062  0.000391  1.046441  0.0
H  H22  1  0.54741917  0.91406365  0.14525614  1  0.119707  -0.000152  0.97354  0.0  0.125356  7e-05  1.04204  0.0  0.128096  6.8e-05  1.040684  0.0  0.119829  0.124314  0.000328  1.042085  0.0
H  H23  1  0.04741254  0.58593468  0.64524563  1  0.119686  -0.000152  0.973623  0.0  0.125356  7e-05  1.042106  0.0  0.128092  6.9e-05  1.040759  0.0  0.119856  0.12432  0.000327  1.042145  0.0
H  H24  1  0.45259556  0.08592090  0.85474195  1  0.119731  -0.000149  0.973368  0.0  0.125354  7e-05  1.041909  0.0  0.128111  6.8e-05  1.040533  0.0  0.119845  0.124309  0.000328  1.041959  0.0
H  H25  1  0.95259081  0.41407241  0.35475760  1  0.119663  -0.000147  0.973562  0.0  0.125314  7e-05  1.042074  0.0  0.128057  6.9e-05  1.040724  0.0  0.119831  0.124271  0.000328  1.042119  0.0
H  H26  1  0.66167368  0.69912857  0.41209093  1  0.092863  -0.000178  0.997026  -0.001  0.094313  -0.000177  1.073522  0.0  0.097431  -0.000152  1.069362  0.0  0.132226  0.091945  -0.000194  1.076863  0.0
H  H27  1  0.16164702  0.80086772  0.91207542  1  0.093006  -0.000177  0.997177  -0.001  0.094499  -0.000176  1.073594  0.0  0.097613  -0.000152  1.069445  0.0  0.132285  0.092126  -0.000193  1.076926  0.0
H  H28  1  0.33832984  0.30087184  0.58790789  1  0.092931  -0.000173  0.99717  -0.001  0.094398  -0.000176  1.073632  0.0  0.097519  -0.000151  1.069468  0.0  0.132266  0.092029  -0.000194  1.076968  0.0
H  H29  1  0.83833467  0.19913186  0.08791020  1  0.09289  -0.000178  0.997115  -0.001  0.094366  -0.000176  1.073568  0.0  0.097485  -0.000152  1.069404  0.0  0.132255  0.092002  -0.000194  1.076909  0.0
H  H30  1  0.44696836  0.70031095  0.65023458  1  0.094621  -0.000224  0.994538  0.0  0.10113  -0.000302  1.061354  0.0  0.10257  -0.00024  1.062182  0.0  0.11433  0.100123  -0.000364  1.060942  0.0
H  H31  1  0.94696941  0.79969712  0.15023147  1  0.094691  -0.000221  0.994655  0.0  0.101237  -0.000302  1.061404  0.0  0.102675  -0.00024  1.062236  0.0  0.114354  0.100228  -0.000364  1.060993  0.0
H  H32  1  0.55304479  0.29967944  0.34977503  1  0.09462  -0.00022  0.994622  0.0  0.101132  -0.000302  1.061411  0.0  0.102567  -0.00024  1.06224  0.0  0.114326  0.100122  -0.000364  1.060999  0.0
H  H33  1  0.05304546  0.20030496  0.84976295  1  0.094557  -0.000214  0.994368  0.0  0.101068  -0.000303  1.061208  0.0  0.102508  -0.00024  1.062039  0.0  0.114315  0.100061  -0.000364  1.060796  0.0
H  H34  1  0.54685179  0.91499224  0.62755357  1  0.115279  -0.00028  0.972494  0.0  0.123035  -0.000288  1.039002  0.0  0.125103  -0.000231  1.03889  0.0  0.119995  0.121545  -0.000307  1.039144  0.0
H  H35  1  0.04684319  0.58502002  0.12753944  1  0.115345  -0.000238  0.972575  0.0  0.122979  -0.000287  1.03923  0.0  0.125043  -0.000231  1.039125  0.0  0.120013  0.121493  -0.000307  1.039365  0.0
H  H36  1  0.45315451  0.08500817  0.37245985  1  0.115234  -0.000242  0.972686  0.0  0.122945  -0.000287  1.039247  0.0  0.125011  -0.00023  1.039137  0.0  0.119957  0.121458  -0.000307  1.039384  0.0
H  H37  1  0.95316605  0.41498623  0.87245608  1  0.115218  -0.000276  0.972629  0.0  0.122976  -0.000287  1.039132  0.0  0.125043  -0.000231  1.039027  0.0  0.11998  0.121486  -0.000306  1.039271  0.0
H  H38  1  0.07308349  0.21305345  0.45982340  1  0.083431  5e-05  0.951939  0.0  0.092902  -1.4e-05  1.014416  0.0  0.095367  -1.2e-05  1.011662  0.0  0.128459  0.09104  3.5e-05  1.01652  0.0
H  H39  1  0.57309109  0.28696261  0.95981948  1  0.08337  4.9e-05  0.951566  0.0  0.092833  -1.4e-05  1.014083  0.0  0.095285  -1.2e-05  1.011375  0.0  0.128413  0.090975  3.5e-05  1.016166  0.0
H  H40  1  0.92691326  0.78696199  0.54017704  1  0.083424  5.1e-05  0.951779  0.0  0.092855  -1.4e-05  1.014331  0.0  0.095312  -1.1e-05  1.011617  0.0  0.128434  0.091  3.5e-05  1.016416  0.0
H  H41  1  0.42690248  0.71303280  0.04017663  1  0.083513  4.7e-05  0.95185  0.0  0.092948  -1.4e-05  1.014362  0.0  0.095403  -1.2e-05  1.011652  0.0  0.128514  0.091091  3.5e-05  1.016446  0.0
H  H42  1  0.01918090  0.35068537  0.73285915  1  0.092147  -6e-06  0.97452  0.0  0.103318  1.2e-05  1.033363  0.0  0.105141  7e-06  1.033503  0.0  0.109889  0.101848  6e-06  1.033694  0.0
H  H43  1  0.51915333  0.14931239  0.23285516  1  0.092372  1.5e-05  0.974571  0.0  0.103581  1.3e-05  1.033317  0.0  0.105388  9e-06  1.033509  0.0  0.109994  0.102103  6e-06  1.033663  0.0
H  H44  1  0.98080718  0.64931922  0.26713439  1  0.092253  1e-05  0.974582  0.0  0.103416  1.3e-05  1.033393  0.0  0.105238  9e-06  1.033538  0.0  0.109937  0.10194  6e-06  1.033738  0.0
H  H45  1  0.48083241  0.85069137  0.76714088  1  0.092205  2e-06  0.974566  0.0  0.103353  1.3e-05  1.033409  0.0  0.10516  8e-06  1.033606  0.0  0.1099  0.101874  6e-06  1.033754  0.0
H  H46  1  0.79756885  0.19324091  0.66495490  1  0.125041  -7.7e-05  0.968812  0.0  0.13078  1e-06  1.037154  0.0  0.134186  1e-06  1.034774  0.0  0.118898  0.128004  7e-06  1.039306  0.0
H  H47  1  0.29755917  0.30676980  0.16493812  1  0.125107  -7.7e-05  0.968871  0.0  0.130753  1e-06  1.037274  0.0  0.134136  1e-06  1.034915  0.0  0.118953  0.127985  7e-06  1.039432  0.0
H  H48  1  0.20242437  0.80675700  0.33505002  1  0.124966  -6.7e-05  0.96899  0.0  0.130672  1e-06  1.037363  0.0  0.134074  1e-06  1.034985  0.0  0.118857  0.127904  7e-06  1.039519  0.0
H  H49  1  0.70243980  0.69323729  0.83506276  1  0.124974  -7.4e-05  0.968892  0.0  0.130666  1e-06  1.037274  0.0  0.134037  1e-06  1.034935  0.0  0.118916  0.127897  8e-06  1.039432  0.0
C  C50  1  0.75710442  0.99603396  0.31897543  1  0.22646  0.000195  3.790793  0.0  0.220411  0.000433  4.037103  0.0  0.228564  0.000388  4.057722  0.0  0.104576  0.214608  0.000692  4.023842  0.001
C  C51  1  0.25712088  0.50398259  0.81896479  1  0.226713  0.000171  3.790823  0.0  0.22064  0.000432  4.037148  0.0  0.228795  0.000384  4.057758  0.0  0.104694  0.214832  0.00069  4.023893  0.001
C  C52  1  0.24289417  0.00395810  0.68103498  1  0.226529  0.00019  3.79057  0.0  0.220474  0.000431  4.036891  0.0  0.228627  0.000383  4.057498  0.0  0.104609  0.214671  0.000687  4.023632  0.001
C  C53  1  0.74288723  0.49602534  0.18103124  1  0.226601  0.000213  3.790836  0.0  0.220514  0.000431  4.037196  0.0  0.228668  0.000385  4.057809  0.0  0.104628  0.214709  0.000689  4.023935  0.001
C  C54  1  0.68138428  0.91591863  0.36004619  1  -0.227902  0.000251  3.713707  0.0  -0.261363  -2.8e-05  3.972604  0.0  -0.267068  -8e-06  3.9903  0.0  -0.087293  -0.258073  4.7e-05  3.961834  0.0
C  C55  1  0.18138254  0.58408857  0.86002479  1  -0.227931  0.000283  3.713573  0.0  -0.261458  -2.6e-05  3.972613  0.0  -0.267119  -4e-06  3.990333  0.0  -0.087269  -0.25817  4.9e-05  3.96185  0.0
C  C56  1  0.31859797  0.08408763  0.63995360  1  -0.227778  0.000286  3.713424  0.0  -0.261237  -2.6e-05  3.972331  0.0  -0.266896  -4e-06  3.990068  0.0  -0.087231  -0.257953  5.1e-05  3.961547  0.0
C  C57  1  0.81862218  0.41591685  0.13997205  1  -0.227957  0.000276  3.713534  0.0  -0.261417  -2.5e-05  3.972508  0.0  -0.267077  -3e-06  3.990242  0.0  -0.087219  -0.258125  4.9e-05  3.961738  0.0
C  C58  1  0.68390666  0.92266116  0.46348043  1  0.211832  -0.00052  3.81371  -0.001  0.203531  -0.000222  4.064506  0.0  0.211493  -0.000188  4.085025  0.0  0.102488  0.198231  -0.000404  4.050508  0.0
C  C59  1  0.18388116  0.57734338  0.96346534  1  0.212062  -0.000495  3.813174  -0.001  0.203553  -0.000223  4.06427  0.0  0.211523  -0.000189  4.084782  0.0  0.102518  0.198253  -0.000403  4.050272  0.0
C  C60  1  0.31609876  0.07733842  0.53652691  1  0.211823  -0.000523  3.813719  -0.001  0.20337  -0.000223  4.064715  0.0  0.211298  -0.000191  4.085283  0.0  0.102369  0.198099  -0.000406  4.050675  0.0
C  C61  1  0.81610914  0.42265620  0.03652865  1  0.212016  -0.000541  3.812949  -0.001  0.203509  -0.000222  4.064032  0.0  0.211456  -0.00019  4.084582  0.0  0.102454  0.198209  -0.000403  4.050029  0.0
C  C62  1  0.75822240  0.00879579  0.52589315  1  -0.239592  -0.000195  3.672456  0.0  -0.272171  -0.000222  3.932989  0.0  -0.27802  -0.000193  3.950266  0.0  -0.092686  -0.268808  -9.8e-05  3.922224  0.0
C  C63  1  0.25821892  0.49120540  0.02588284  1  -0.239879  -0.000207  3.672257  0.0  -0.272327  -0.000219  3.932866  0.0  -0.278184  -0.000192  3.950133  0.0  -0.092718  -0.268963  -9.7e-05  3.9221  0.0
C  C64  1  0.24177966  0.99120462  0.47411426  1  -0.239602  -0.000185  3.672433  0.0  -0.272131  -0.000219  3.932952  0.0  -0.277988  -0.00019  3.950229  0.0  -0.09266  -0.268775  -9.3e-05  3.922177  0.0
C  C65  1  0.74177605  0.50879668  0.97410615  1  -0.239682  -0.000169  3.67212  0.0  -0.27221  -0.000222  3.932697  0.0  -0.278089  -0.00019  3.949953  0.0  -0.092685  -0.268848  -9.6e-05  3.921934  0.0
C  C66  1  0.82980373  0.09023608  0.48195490  1  0.227179  2.2e-05  3.804863  0.0  0.21822  6.5e-05  4.055957  0.0  0.226716  6.2e-05  4.077589  0.0  0.102537  0.212132  -7.3e-05  4.041866  0.0
C  C67  1  0.32979976  0.40976170  0.98194376  1  0.227438  1.1e-05  3.804977  0.0  0.218456  6.4e-05  4.056077  0.0  0.226955  6.1e-05  4.077708  0.0  0.102659  0.212362  -7.6e-05  4.041981  0.0
C  C68  1  0.17020855  0.90976266  0.51804862  1  0.227202  1.7e-05  3.804998  0.0  0.218273  6.3e-05  4.056034  0.0  0.226769  6.1e-05  4.077665  0.0  0.102545  0.212182  -7.6e-05  4.041948  0.0
C  C69  1  0.67021278  0.59024121  0.01805316  1  0.227254  1e-05  3.80524  0.0  0.218446  6.6e-05  4.056084  0.0  0.226945  6e-05  4.077717  0.0  0.102674  0.212353  -7.3e-05  4.041998  0.0
C  C70  1  0.82840608  0.08523932  0.37831974  1  -0.248531  -0.000163  3.691783  0.0  -0.280972  -0.00015  3.952063  0.0  -0.287638  -0.00014  3.971139  0.0  -0.095084  -0.276672  -0.000236  3.939957  0.0
C  C71  1  0.32840850  0.41478200  0.87831731  1  -0.248666  -0.000168  3.692217  0.0  -0.281099  -0.00015  3.952504  0.0  -0.287777  -0.000136  3.971591  0.0  -0.095218  -0.276797  -0.000233  3.9404  0.0
C  C72  1  0.17161854  0.91475859  0.62168253  1  -0.248516  -0.000166  3.691977  0.0  -0.280993  -0.000148  3.952269  0.0  -0.287661  -0.000135  3.971346  0.0  -0.095086  -0.276702  -0.000232  3.940176  0.0
C  C73  1  0.67159730  0.58523177  0.12168048  1  -0.248601  -0.000171  3.691903  0.0  -0.281106  -0.000151  3.952181  0.0  -0.287766  -0.000135  3.971247  0.0  -0.095128  -0.276805  -0.000234  3.940084  0.0
C  C74  1  0.88039096  0.01506410  0.17939120  1  0.147353  0.001318  3.625451  0.001  0.091038  0.000283  3.892997  0.0  0.106845  -0.000338  3.904708  -0.001  0.142601  0.080619  0.000412  3.884806  0.0
C  C75  1  0.38039729  0.48493840  0.67938302  1  0.147602  0.001344  3.625874  0.001  0.091273  0.000283  3.89346  0.0  0.107058  -0.000337  3.905149  -0.001  0.142683  0.080854  0.000415  3.885266  0.0
C  C76  1  0.11961875  0.98493715  0.82062069  1  0.147445  0.001318  3.625896  0.001  0.091195  0.000283  3.893506  0.0  0.106947  -0.000337  3.905187  -0.001  0.142623  0.080775  0.000413  3.885302  0.0
C  C77  1  0.61960387  0.51505617  0.32061903  1  0.147423  0.001334  3.626014  0.001  0.091102  0.000281  3.893603  0.0  0.106897  -0.000339  3.905301  -0.001  0.142615  0.080682  0.000411  3.885412  0.0
C  C78  1  0.71256613  0.94229903  0.05191502  1  0.014724  0.000536  3.677119  0.0  -0.022241  0.000648  3.950187  0.0  -0.017726  0.000229  3.970006  0.0  0.006414  -0.0256  0.001005  3.938095  0.001
C  C79  1  0.21256942  0.55769361  0.55190465  1  0.01468  0.000523  3.677062  0.0  -0.022232  0.000646  3.950069  0.0  -0.01772  0.000225  3.969882  0.0  0.006519  -0.025594  0.001002  3.937975  0.001
C  C80  1  0.28743371  0.05769053  0.94809195  1  0.014574  0.000524  3.67733  0.0  -0.022514  0.000645  3.950304  0.0  -0.018  0.000227  3.970126  0.0  0.0064  -0.025876  0.001003  3.938207  0.001
C  C81  1  0.78743317  0.44230680  0.44808955  1  0.014615  0.00052  3.677258  0.0  -0.02239  0.000648  3.950287  0.0  -0.017875  0.000224  3.970107  0.0  0.006421  -0.025751  0.001004  3.938191  0.001
C  C82  1  0.65502038  0.93868374  0.13545987  1  -0.053727  0.000842  3.629031  0.001  -0.09247  0.001406  3.8902  0.001  -0.09129  0.001317  3.907133  0.001  0.002721  -0.094216  0.001484  3.879208  0.001
C  C83  1  0.15500561  0.56130183  0.63545411  1  -0.053494  0.000823  3.628865  0.001  -0.092322  0.001406  3.890059  0.001  -0.091134  0.001313  3.906985  0.001  0.002655  -0.094074  0.001482  3.879068  0.001
C  C84  1  0.34499415  0.06130749  0.86454335  1  -0.053469  0.000833  3.628461  0.001  -0.092194  0.001407  3.889677  0.001  -0.091023  0.001317  3.906594  0.001  0.002736  -0.093937  0.001481  3.878688  0.001
C  C85  1  0.84498116  0.43869107  0.36454436  1  -0.053524  0.000816  3.62904  0.001  -0.092306  0.001406  3.890256  0.001  -0.091132  0.001312  3.907187  0.001  0.002737  -0.09405  0.001483  3.879266  0.001
C  C86  1  0.60837271  0.72680828  0.46987798  1  0.176417  0.009216  3.588739  0.006  0.12547  0.000741  3.842808  0.001  0.141913  0.001351  3.854934  0.001  0.150261  0.11379  0.000331  3.835569  0.0
C  C87  1  0.10835632  0.77319307  0.96985381  1  0.176153  0.00922  3.588296  0.006  0.125155  0.000741  3.842383  0.001  0.141597  0.00135  3.854522  0.001  0.150045  0.113481  0.000329  3.83513  0.0
C  C88  1  0.39162935  0.27318044  0.53012943  1  0.17623  0.009201  3.589  0.006  0.125271  0.000739  3.843139  0.001  0.14171  0.001348  3.855265  0.001  0.150134  0.113597  0.000331  3.835893  0.0
C  C89  1  0.89163448  0.22681569  0.03012770  1  0.176202  0.00922  3.588834  0.006  0.125251  0.00074  3.842905  0.001  0.1417  0.001349  3.855024  0.001  0.150055  0.113558  0.000329  3.83567  0.0
C  C90  1  0.50437339  0.73158235  0.59621680  1  0.005708  0.002105  3.718822  0.001  -0.025781  -0.000666  3.981489  -0.001  -0.022245  -0.000205  4.00335  0.0  0.000621  -0.028506  -0.000973  3.967517  -0.001
C  C91  1  0.00437274  0.76843868  0.09622130  1  0.005608  0.002072  3.718554  0.001  -0.025877  -0.000664  3.981228  -0.001  -0.022343  -0.000207  4.003099  0.0  0.00066  -0.028604  -0.000971  3.967259  -0.001
C  C92  1  0.49562663  0.26841389  0.40378577  1  0.005775  0.002075  3.718862  0.001  -0.025635  -0.000664  3.98154  -0.001  -0.022094  -0.000205  4.003403  0.0  0.000723  -0.028362  -0.000971  3.967565  -0.001
C  C93  1  0.99561925  0.23157509  0.90378634  1  0.005884  0.002078  3.718822  0.001  -0.025574  -0.000666  3.981504  -0.001  -0.022039  -0.000207  4.003379  0.0  0.000719  -0.028305  -0.000974  3.967527  -0.001
C  C94  1  0.55315566  0.83797123  0.58661805  1  -0.061432  -0.004291  3.654496  -0.004  -0.096146  -0.00146  3.903216  -0.001  -0.094905  -0.001369  3.921673  -0.001  0.000375  -0.09667  -0.00158  3.890646  -0.001
C  C95  1  0.05316025  0.66204210  0.08661858  1  -0.061289  -0.004351  3.654424  -0.004  -0.095962  -0.001462  3.903198  -0.001  -0.094721  -0.001374  3.921663  -0.001  0.000308  -0.096486  -0.001579  3.890629  -0.001
C  C96  1  0.44684100  0.16202167  0.41338459  1  -0.061398  -0.004342  3.654638  -0.004  -0.096113  -0.001461  3.903356  -0.001  -0.094873  -0.001373  3.921813  -0.001  0.000374  -0.096636  -0.001578  3.890787  -0.001
C  C97  1  0.94685229  0.33796749  0.91337833  1  -0.061339  -0.004296  3.654482  -0.004  -0.096086  -0.001461  3.903212  -0.001  -0.094851  -0.001369  3.921679  -0.001  0.000289  -0.09661  -0.001577  3.89064  -0.001
C  C98  1  0.03086519  0.23130892  0.52549002  1  0.140373  -5e-05  3.709184  0.0  0.089805  -1.6e-05  3.98278  0.0  0.101012  -1.1e-05  3.99638  0.0  0.126873  0.082583  6.9e-05  3.973358  0.0
C  C99  1  0.53086666  0.26869747  0.02550067  1  0.140446  -3.3e-05  3.70924  0.0  0.089908  -1.6e-05  3.98283  0.0  0.101105  -1e-05  3.996425  0.0  0.12699  0.082691  6.7e-05  3.973402  0.0
C  C100  1  0.96912622  0.76869650  0.47450418  1  0.140448  -4e-05  3.708946  0.0  0.089888  -1.6e-05  3.982554  0.0  0.101083  -1.2e-05  3.996145  0.0  0.126854  0.08267  6.7e-05  3.973132  0.0
C  C101  1  0.46913292  0.73129626  0.97451291  1  0.140258  -4.3e-05  3.708976  0.0  0.089753  -1.7e-05  3.98254  0.0  0.100945  -1e-05  3.996134  0.0  0.126869  0.082537  6.4e-05  3.973115  0.0
C  C102  1  0.00018341  0.29636413  0.66674497  1  -0.00936  -4.8e-05  3.772634  0.0  -0.034663  -1e-05  4.04367  0.0  -0.033638  -3e-06  4.061793  0.0  -0.009845  -0.03553  2.8e-05  4.031837  0.0
C  C103  1  0.50016465  0.20363768  0.16675080  1  -0.009697  -8e-05  3.77228  0.0  -0.03505  -9e-06  4.043347  0.0  -0.034037  -4e-06  4.06145  0.0  -0.009932  -0.035911  2.9e-05  4.031516  0.0
C  C104  1  0.99981462  0.70363544  0.33325129  1  -0.009405  -8.2e-05  3.772406  0.0  -0.034669  -1e-05  4.043404  0.0  -0.033647  -5e-06  4.061524  0.0  -0.009785  -0.035535  2.7e-05  4.031573  0.0
C  C105  1  0.49982191  0.79636441  0.83325280  1  -0.009287  -6.5e-05  3.772119  0.0  -0.034559  -9e-06  4.043112  0.0  -0.033546  -4e-06  4.061214  0.0  -0.00974  -0.03542  2e-05  4.031281  0.0
C  C106  1  0.88916910  0.21884436  0.63425925  1  -0.052548  1.7e-05  3.631946  0.0  -0.090289  6.3e-05  3.884448  0.0  -0.087958  4.3e-05  3.901395  0.0  0.001923  -0.091811  -9.5e-05  3.873443  0.0
C  C107  1  0.38914779  0.28116331  0.13425093  1  -0.052585  1e-06  3.631948  0.0  -0.090208  6.2e-05  3.884493  0.0  -0.087844  3.9e-05  3.901439  0.0  0.001874  -0.091749  -9.4e-05  3.873501  0.0
C  C108  1  0.11082210  0.78116524  0.36574010  1  -0.052468  -1e-05  3.632341  0.0  -0.090211  6.3e-05  3.884867  0.0  -0.087873  4.2e-05  3.901817  0.0  0.001925  -0.091745  -9.5e-05  3.873868  0.0
C  C109  1  0.61083773  0.71884295  0.86575098  1  -0.052513  -1.2e-05  3.632087  0.0  -0.090178  6.3e-05  3.884582  0.0  -0.087806  4e-05  3.901542  0.0  0.001952  -0.091712  -8.8e-05  3.873591  0.0
N  N110  1  0.18179903  0.04401255  0.15697258  1  -0.491973  0.038984  2.531319  0.035  -0.53293  0.000159  2.822612  0.0  -0.555125  -0.001024  2.83171  -0.001  -0.275236  -0.516251  0.000803  2.815223  0.001
N  N111  1  0.68182152  0.45599397  0.65697962  1  -0.491664  0.038981  2.531823  0.035  -0.53264  0.000171  2.823075  0.0  -0.554815  -0.001017  2.832164  -0.001  -0.275099  -0.515982  0.000823  2.815708  0.001
N  N112  1  0.81819124  0.95598703  0.84302214  1  -0.492032  0.038965  2.531557  0.035  -0.532936  0.000154  2.822793  0.0  -0.555133  -0.001029  2.831895  -0.001  -0.275256  -0.51627  0.000802  2.815411  0.001
N  N113  1  0.31818743  0.54400811  0.34302324  1  -0.491877  0.03909  2.531213  0.035  -0.532806  0.000172  2.822484  0.0  -0.555011  -0.001026  2.831583  -0.001  -0.275201  -0.516127  0.000832  2.815104  0.001
N  N114  1  0.26909299  0.97471842  0.19748921  1  0.359093  -0.009998  4.280262  -0.016  0.412688  -0.000197  4.59175  0.0  0.429281  -0.000349  4.622632  -0.001  0.051286  0.4013  0.000195  4.569119  0.0
N  N115  1  0.76908691  0.52528048  0.69748895  1  0.359125  -0.010055  4.28009  -0.016  0.412755  -0.000196  4.591573  0.0  0.429348  -0.000349  4.622462  -0.001  0.051378  0.401369  0.000196  4.568952  0.0
N  N116  1  0.73090959  0.02527698  0.80250499  1  0.359183  -0.010032  4.280317  -0.016  0.41279  -0.000197  4.591759  0.0  0.429385  -0.000351  4.62264  -0.001  0.051401  0.401402  0.000194  4.56913  0.0
N  N117  1  0.23090210  0.47470240  0.30250921  1  0.358842  -0.010031  4.280392  -0.016  0.412437  -0.000195  4.591938  0.0  0.429031  -0.000346  4.62283  -0.001  0.051213  0.401052  0.000198  4.569311  0.0
N  N118  1  0.35675741  0.90631075  0.23883120  1  -0.51473  0.076695  2.389582  0.062  -0.545579  0.006809  2.641329  0.006  -0.55617  0.005394  2.649538  0.005  -0.291022  -0.535826  0.007948  2.634288  0.007
N  N119  1  0.85676040  0.59370371  0.73883581  1  -0.514998  0.076991  2.388806  0.063  -0.545927  0.006838  2.640538  0.006  -0.556538  0.005415  2.648748  0.005  -0.29129  -0.536158  0.007989  2.633497  0.007
N  N120  1  0.64324641  0.09368549  0.76116028  1  -0.514789  0.076743  2.389431  0.062  -0.545662  0.00681  2.641147  0.006  -0.556258  0.005399  2.649347  0.005  -0.291125  -0.535901  0.007945  2.634101  0.007
N  N121  1  0.14324493  0.40628919  0.26117372  1  -0.514468  0.076881  2.389733  0.063  -0.54539  0.006845  2.641439  0.006  -0.555978  0.005429  2.649646  0.005  -0.29098  -0.535641  0.007988  2.6344  0.007
N  N122  1  0.76244356  0.98562874  0.21574106  1  -0.090767  0.00068  3.603625  0.001  -0.001673  0.001021  3.811743  0.001  -0.016538  0.000809  3.835922  0.001  -0.226398  0.008581  0.00113  3.795227  0.001
N  N123  1  0.26244337  0.51436625  0.71572872  1  -0.091288  0.000682  3.604238  0.001  -0.002098  0.001021  3.812315  0.001  -0.016957  0.000809  3.836488  0.001  -0.226365  0.008156  0.001129  3.795806  0.001
N  N124  1  0.23756063  0.01435748  0.78426899  1  -0.091204  0.000674  3.604252  0.001  -0.002096  0.001022  3.812356  0.001  -0.016959  0.000809  3.836542  0.001  -0.226401  0.008158  0.001131  3.795843  0.001
N  N125  1  0.73754921  0.48563165  0.28426424  1  -0.090985  0.000665  3.604096  0.001  -0.001827  0.001021  3.812191  0.001  -0.01669  0.00081  3.83637  0.001  -0.226421  0.008428  0.001129  3.795677  0.001
N  N126  1  0.85285357  0.98898149  0.08069457  1  -0.287124  0.016667  3.361321  0.013  -0.240368  0.028075  3.656416  0.026  -0.273597  0.024922  3.678517  0.024  -0.347044  -0.218592  0.029531  3.641528  0.028
N  N127  1  0.35286736  0.51102565  0.58069532  1  -0.287068  0.016574  3.361836  0.013  -0.240395  0.028057  3.657039  0.026  -0.273658  0.024909  3.679234  0.023  -0.347149  -0.218614  0.029508  3.64215  0.027
N  N128  1  0.14713989  0.01101726  0.91930448  1  -0.286958  0.01667  3.361845  0.013  -0.24029  0.028074  3.657034  0.026  -0.273532  0.024921  3.679182  0.024  -0.347105  -0.218515  0.029532  3.642136  0.028
N  N129  1  0.64714164  0.48898228  0.41930607  1  -0.287032  0.016565  3.361845  0.013  -0.240344  0.028059  3.657026  0.026  -0.273593  0.024911  3.679173  0.023  -0.347116  -0.218563  0.02951  3.642138  0.027
N  N130  1  0.61763787  0.83437972  0.50519180  1  -0.094365  -0.00121  3.590779  -0.002  -0.001888  -0.000952  3.791331  -0.001  -0.017202  -0.000743  3.815201  -0.001  -0.226442  0.008659  -0.001126  3.774826  -0.001
N  N131  1  0.11760755  0.66561483  0.00517140  1  -0.094705  -0.001219  3.590935  -0.002  -0.002066  -0.000953  3.791429  -0.001  -0.017382  -0.000741  3.815298  -0.001  -0.226363  0.008478  -0.001125  3.774923  -0.001
N  N132  1  0.38237975  0.16561067  0.49481795  1  -0.094498  -0.00121  3.591234  -0.002  -0.001901  -0.000951  3.79172  -0.001  -0.017205  -0.000741  3.815599  -0.001  -0.226402  0.008634  -0.001126  3.775209  -0.001
N  N133  1  0.88238710  0.33438726  0.99482567  1  -0.094551  -0.001199  3.591164  -0.001  -0.00195  -0.000951  3.791672  -0.001  -0.017259  -0.00074  3.815544  -0.001  -0.226334  0.008597  -0.001126  3.775163  -0.001
N  N134  1  0.54014816  0.66314715  0.52353111  1  -0.284772  -0.05755  3.314839  -0.064  -0.232245  -0.031915  3.596857  -0.031  -0.265573  -0.027973  3.619656  -0.027  -0.335907  -0.210533  -0.034334  3.582352  -0.033
N  N135  1  0.04013049  0.83686944  0.02352199  1  -0.284622  -0.057517  3.313993  -0.063  -0.232206  -0.031909  3.596161  -0.031  -0.265535  -0.027966  3.618965  -0.027  -0.335927  -0.210492  -0.034324  3.581638  -0.033
N  N136  1  0.45986070  0.33684826  0.47647395  1  -0.284696  -0.057541  3.314478  -0.064  -0.232336  -0.031915  3.596662  -0.031  -0.265663  -0.027971  3.619471  -0.027  -0.335931  -0.210623  -0.034337  3.582146  -0.033
N  N137  1  0.95985993  0.16313264  0.97646906  1  -0.28473  -0.05751  3.314392  -0.063  -0.232334  -0.031897  3.596559  -0.031  -0.26566  -0.027959  3.619354  -0.027  -0.335938  -0.210621  -0.034313  3.582045  -0.033
N  N138  1  0.90950863  0.17700544  0.54302460  1  -0.110618  -2.3e-05  3.597914  0.0  -0.019447  -1.6e-05  3.804097  0.0  -0.035674  -1.3e-05  3.830919  0.0  -0.231485  -0.008512  -1.7e-05  3.785871  0.0
N  N139  1  0.40949385  0.32300422  0.04302549  1  -0.110641  -9e-06  3.597682  0.0  -0.01951  -1.5e-05  3.803915  0.0  -0.035738  -1.1e-05  3.830727  0.0  -0.231693  -0.008569  -1.7e-05  3.785688  0.0
N  N140  1  0.09049597  0.82299247  0.45697518  1  -0.110769  -1.2e-05  3.597992  0.0  -0.019587  -1.6e-05  3.804172  0.0  -0.035814  -1.3e-05  3.830992  0.0  -0.23155  -0.008649  -1.6e-05  3.785948  0.0
N  N141  1  0.59051070  0.67699953  0.95697575  1  -0.110519  -1.2e-05  3.597835  0.0  -0.01943  -1.4e-05  3.804001  0.0  -0.035654  -1.5e-05  3.830809  0.0  -0.231688  -0.008493  -1.5e-05  3.785784  0.0
N  N142  1  0.08857388  0.30270296  0.59931099  1  -0.355123  8e-05  3.079865  0.0  -0.322543  -1.2e-05  3.364079  0.0  -0.334806  -1e-05  3.380415  0.0  -0.346325  -0.314082  -7e-05  3.352968  0.0
N  N143  1  0.58856140  0.19731115  0.09929876  1  -0.354963  6e-05  3.080087  0.0  -0.322395  -1.1e-05  3.364333  0.0  -0.334652  -1.2e-05  3.380672  0.0  -0.34623  -0.313937  -7e-05  3.353224  0.0
N  N144  1  0.91140732  0.69730998  0.40068710  1  -0.355121  7.3e-05  3.079585  0.0  -0.322553  -1.1e-05  3.363818  0.0  -0.334814  -1.2e-05  3.380156  0.0  -0.346305  -0.314091  -6.9e-05  3.352706  0.0
N  N145  1  0.41141764  0.80268008  0.90069743  1  -0.355227  9.2e-05  3.079765  0.0  -0.322665  -1.2e-05  3.363962  0.0  -0.334923  -9e-06  3.380301  0.0  -0.346412  -0.314206  -6.6e-05  3.352848  0.0
