# generated using pymatgen
data_Cu3H10C16S3N7
_symmetry_space_group_name_H-M   'P 1'
_cell_length_a   5.74187224
_cell_length_b   8.31636406
_cell_length_c   10.05389759
_cell_angle_alpha   86.86889616
_cell_angle_beta   84.24022957
_cell_angle_gamma   79.83006881
_symmetry_Int_Tables_number   1
_chemical_formula_structural   Cu3H10C16S3N7
_chemical_formula_sum   'Cu3 H10 C16 S3 N7'
_cell_volume   469.82616253
_cell_formula_units_Z   1
loop_
 _symmetry_equiv_pos_site_id
 _symmetry_equiv_pos_as_xyz
  1  'x, y, z'
loop_
 _atom_site_type_symbol
 _atom_site_label
 _atom_site_symmetry_multiplicity
 _atom_site_fract_x
 _atom_site_fract_y
 _atom_site_fract_z
 _atom_site_occupancy
 _atom_site_hle17_bader_spin_density
 _atom_site_hle17_ddec_charge
 _atom_site_hle17_ddec_spin_density
 _atom_site_hle17_ddec_sum_bond_order
 _atom_site_hle17_magmom
 _atom_site_hse06_10hf_bader_spin_density
 _atom_site_hse06_10hf_ddec_charge
 _atom_site_hse06_10hf_ddec_spin_density
 _atom_site_hse06_10hf_ddec_sum_bond_order
 _atom_site_hse06_10hf_magmom
 _atom_site_hse06_bader_spin_density
 _atom_site_hse06_ddec_charge
 _atom_site_hse06_ddec_spin_density
 _atom_site_hse06_ddec_sum_bond_order
 _atom_site_hse06_magmom
 _atom_site_pbe_bader_spin_density
 _atom_site_pbe_cm5_charge
 _atom_site_pbe_ddec_charge
 _atom_site_pbe_ddec_spin_density
 _atom_site_pbe_ddec_sum_bond_order
 _atom_site_pbe_magmom
Cu  Cu0  1  0.46944549  0.49682472  0.48299304  1  0  0.425965  0  2.254471  0  0  0.343492  0  2.76455  0  0  0.331738  0  2.728873  0  0  0.497043  0.35457  0  2.784512  0
Cu  Cu1  1  0.71180731  0.65116983  0.83408354  1  0  0.433124  0  2.219862  0  0  0.347483  0  2.734068  0  0  0.337086  0  2.695744  0  0  0.483599  0.358106  0  2.757149  0
Cu  Cu2  1  0.80768850  0.76759281  0.16557863  1  0  0.421256  0  2.19483  0  0  0.33323  0  2.702246  0  0  0.323438  0  2.663421  0  0  0.488546  0.342898  0  2.725556  0
H  H3  1  0.80831755  0.40336344  0.24945798  1  0  0.274593  0  0.91735  0  0  0.252067  0  0.993319  0  0  0.258654  0  0.988922  0  0  0.313579  0.247372  0  0.996187  0
H  H4  1  0.85992526  0.88331574  0.63885332  1  0  0.082505  0  0.943807  0  0  0.091215  0  1.010116  0  0  0.093725  0  1.007997  0  0  0.113361  0.089325  0  1.011818  0
H  H5  1  0.23449759  0.88184061  0.88199652  1  0  0.081409  0  0.94388  0  0  0.090384  0  1.009085  0  0  0.092606  0  1.007227  0  0  0.11349  0.088471  0  1.010776  0
H  H6  1  0.02772799  0.12709272  0.75677294  1  0  0.101811  0  0.942556  0  0  0.115563  0  0.995559  0  0  0.118298  0  0.995644  0  0  0.106789  0.113671  0  0.995497  0
H  H7  1  0.24925903  0.24963379  0.56182051  1  0  0.104798  0  0.950253  0  0  0.112221  0  1.016696  0  0  0.116784  0  1.012039  0  0  0.103659  0.108667  0  1.020393  0
H  H8  1  0.02727356  0.93591230  0.42885069  1  0  0.136772  0  0.964056  0  0  0.148683  0  1.021121  0  0  0.151063  0  1.021393  0  0  0.110564  0.146762  0  1.021364  0
H  H9  1  0.09880302  0.35165659  0.06790817  1  0  0.105641  0  0.939123  0  0  0.120171  0  0.994614  0  0  0.122656  0  0.993023  0  0  0.107039  0.118078  0  0.99623  0
H  H10  1  0.47644913  0.29493701  0.91929278  1  0  0.093725  0  1.01393  0  0  0.102136  0  1.078311  0  0  0.103539  0  1.081007  0  0  0.090501  0.100776  0  1.077209  0
H  H11  1  0.78553342  0.05606164  0.97347244  1  0  0.074747  0  0.931008  0  0  0.085295  0  0.995759  0  0  0.088848  0  0.991323  0  0  0.113417  0.082741  0  0.998829  0
H  H12  1  0.37853518  0.93308175  0.31439285  1  0  0.080922  0  0.96263  0  0  0.094919  0  1.022736  0  0  0.096869  0  1.021259  0  0  0.10825  0.093123  0  1.024359  0
C  C13  1  0.67531172  0.94129466  0.66087635  1  0  0.083602  0  3.671205  0  0  0.046988  0  3.923742  0  0  0.054069  0  3.937972  0  0  0.040463  0.041836  0  3.914753  0
C  C14  1  0.32599652  0.94025165  0.79750851  1  0  0.116986  0  3.691254  0  0  0.086683  0  3.943004  0  0  0.093351  0  3.960468  0  0  0.038218  0.082411  0  3.931671  0
C  C15  1  0.21263699  0.07575620  0.72719568  1  0  -0.117019  0  3.750793  0  0  -0.125742  0  3.999289  0  0  -0.13391  0  4.021958  0  0  -0.08723  -0.120674  0  3.984118  0
C  C16  1  0.33651660  0.14493319  0.61903849  1  0  -0.038214  0  3.689495  0  0  -0.06628  0  3.939315  0  0  -0.061278  0  3.955257  0  0  -0.069023  -0.069714  0  3.929354  0
C  C17  1  0.57546806  0.07709686  0.58413059  1  0  -0.018951  0  3.799858  0  0  0.002102  0  4.030747  0  0  -0.003739  0  4.054826  0  0  -0.006239  0.005502  0  4.015249  0
C  C18  1  0.72019369  0.13843633  0.47119976  1  0  0.165103  0  3.78988  0  0  0.1564  0  4.045954  0  0  0.162988  0  4.066932  0  0  0.093876  0.152585  0  4.032193  0
C  C19  1  0.93465129  0.05789199  0.40621025  1  0  -0.275665  0  3.699354  0  0  -0.304342  0  3.964697  0  0  -0.314645  0  3.985787  0  0  -0.104556  -0.298239  0  3.950979  0
C  C20  1  0.99893935  0.16404367  0.30210224  1  0  0.183348  0  3.774594  0  0  0.162265  0  4.031735  0  0  0.171551  0  4.051265  0  0  0.10299  0.156372  0  4.018668  0
C  C21  1  0.20652667  0.14509321  0.20493251  1  0  -0.012434  0  3.796118  0  0  0.008805  0  4.032279  0  0  0.004565  0  4.052888  0  0  -0.000856  0.011197  0  4.01903  0
C  C22  1  0.23589838  0.24845809  0.09163081  1  0  -0.044595  0  3.657843  0  0  -0.071122  0  3.899692  0  0  -0.067076  0  3.916366  0  0  -0.069794  -0.074444  0  3.889223  0
C  C23  1  0.44636472  0.21747493  0.00801937  1  0  -0.106564  0  3.768629  0  0  -0.116488  0  4.016885  0  0  -0.124142  0  4.041578  0  0  -0.088752  -0.111612  0  4.000401  0
C  C24  1  0.61983840  0.08481576  0.03723211  1  0  0.114033  0  3.684104  0  0  0.07911  0  3.944438  0  0  0.086614  0  3.957672  0  0  0.035415  0.074335  0  3.935875  0
C  C25  1  0.39197721  0.01491554  0.22665710  1  0  0.100552  0  3.647485  0  0  0.062967  0  3.889866  0  0  0.069304  0  3.905696  0  0  0.045863  0.058525  0  3.880735  0
C  C26  1  0.24784967  0.54417560  0.76449558  1  0  0.290185  0  3.934192  0  0  0.283187  0  4.223087  0  0  0.298592  0  4.237346  0  0  0.14267  0.272569  0  4.21439  0
C  C27  1  0.34044899  0.65776018  0.09898334  1  0  0.303595  0  3.906463  0  0  0.294271  0  4.201575  0  0  0.309919  0  4.214731  0  0  0.145693  0.284475  0  4.191025  0
C  C28  1  0.95044590  0.62063575  0.43526316  1  0  0.283084  0  3.961265  0  0  0.272776  0  4.259327  0  0  0.289324  0  4.270431  0  0  0.138278  0.262008  0  4.250611  0
S  S29  1  0.52816904  0.48068887  0.71247015  1  0  -0.317663  0  2.696218  0  0  -0.292221  0  3.128391  0  0  -0.293933  0  3.105966  0  0  -0.172119  -0.291621  0  3.143504  0
S  S30  1  0.62340261  0.58773611  0.05699244  1  0  -0.350603  0  2.798281  0  0  -0.331899  0  3.273833  0  0  -0.330019  0  3.242382  0  0  -0.188273  -0.333842  0  3.292955  0
S  S31  1  0.68269385  0.69682401  0.39502179  1  0  -0.333429  0  2.758394  0  0  -0.313405  0  3.216886  0  0  -0.313668  0  3.189885  0  0  -0.174345  -0.312341  0  3.231366  0
N  N32  1  0.55518545  0.87316419  0.76449565  1  0  -0.292976  0  3.383449  0  0  -0.226516  0  3.683956  0  0  -0.236119  0  3.692752  0  0  -0.358702  -0.221059  0  3.678248  0
N  N33  1  0.65699011  0.28793003  0.41092283  1  0  -0.225536  0  3.194671  0  0  -0.189781  0  3.507403  0  0  -0.194028  0  3.514764  0  0  -0.270614  -0.18791  0  3.502253  0
N  N34  1  0.82519618  0.29868018  0.30866528  1  0  -0.179187  0  3.47045  0  0  -0.117654  0  3.697691  0  0  -0.131805  0  3.717964  0  0  -0.273985  -0.108473  0  3.684224  0
N  N35  1  0.59295353  0.98311420  0.14519020  1  0  -0.285796  0  3.402824  0  0  -0.215017  0  3.700226  0  0  -0.223732  0  3.708456  0  0  -0.361956  -0.210444  0  3.694929  0
N  N36  1  0.04534350  0.58923767  0.79956562  1  0  -0.489472  0  3.122862  0  0  -0.441914  0  3.448508  0  0  -0.451295  0  3.448908  0  0  -0.434226  -0.436284  0  3.448023  0
N  N37  1  0.13749348  0.71029376  0.12738167  1  0  -0.488291  0  3.151422  0  0  -0.443281  0  3.488599  0  0  -0.451092  0  3.48719  0  0  -0.433697  -0.438481  0  3.488475  0
N  N38  1  0.14600805  0.56649359  0.46014012  1  0  -0.481359  0  3.152872  0  0  -0.436748  0  3.482606  0  0  -0.445097  0  3.482303  0  0  -0.438934  -0.431236  0  3.481326  0
