# generated using pymatgen
data_ZnH11C11NO6
_symmetry_space_group_name_H-M   'P 1'
_cell_length_a   10.30618625
_cell_length_b   15.65883662
_cell_length_c   22.84259984
_cell_angle_alpha   90.00010457
_cell_angle_beta   91.76319599
_cell_angle_gamma   89.99968721
_symmetry_Int_Tables_number   1
_chemical_formula_structural   ZnH11C11NO6
_chemical_formula_sum   'Zn8 H88 C88 N8 O48'
_cell_volume   3684.65930074
_cell_formula_units_Z   8
loop_
 _symmetry_equiv_pos_site_id
 _symmetry_equiv_pos_as_xyz
  1  'x, y, z'
loop_
 _atom_site_type_symbol
 _atom_site_label
 _atom_site_symmetry_multiplicity
 _atom_site_fract_x
 _atom_site_fract_y
 _atom_site_fract_z
 _atom_site_occupancy
 _atom_site_pbe_bader_charge
 _atom_site_pbe_bader_spin_density
 _atom_site_pbe_cm5_charge
 _atom_site_pbe_ddec_charge
 _atom_site_pbe_ddec_spin_density
 _atom_site_pbe_ddec_sum_bond_order
 _atom_site_pbe_magmom
Zn  Zn0  1  0.02054913  0.15952558  0.74389885  1  1.375017  0  0.686261  0.961752  0  2.267351  0
Zn  Zn1  1  0.15126995  0.02387238  0.85760879  1  1.334591  0  0.693207  0.953369  0  2.302772  0
Zn  Zn2  1  0.47943899  0.65951977  0.75609984  1  1.375085  0  0.68624  0.961747  0  2.267249  0
Zn  Zn3  1  0.34872414  0.52387376  0.64238938  1  1.334624  0  0.693187  0.953392  0  2.302787  0
Zn  Zn4  1  0.97943991  0.84047737  0.25609910  1  1.37509  0  0.686221  0.961639  0  2.267433  0
Zn  Zn5  1  0.84872588  0.97612610  0.14238970  1  1.334565  0  0.693204  0.953381  0  2.302768  0
Zn  Zn6  1  0.52055199  0.34047935  0.24390032  1  1.375078  0  0.686285  0.961796  0  2.267325  0
Zn  Zn7  1  0.65127170  0.47612855  0.35761085  1  1.334618  0  0.693186  0.953358  0  2.302821  0
H  H8  1  0.43879512  0.20629162  0.91249481  1  0.098755  0  0.116772  0.139163  0  0.98742  0
H  H9  1  0.28029996  0.32189862  0.75493120  1  0.149239  0  0.11105  0.126121  0  1.017887  0
H  H10  1  0.56438750  0.45752072  0.86225190  1  0.109226  0  0.11018  0.123403  0  1.006204  0
H  H11  1  0.74480024  0.27122047  0.85992649  1  0.103138  0  0.106349  0.12298  0  1.009143  0
H  H12  1  0.89134001  0.06545986  0.96815287  1  0.147233  0  0.112983  0.133332  0  0.998094  0
H  H13  1  0.61357131  0.24236114  0.03648992  1  0.115863  0  0.111747  0.131731  0  0.998181  0
H  H14  1  0.80807991  0.28726672  0.73459313  1  0.12187  0  0.123733  0.051502  0  0.992317  0
H  H15  1  0.67489147  0.39131044  0.72721958  1  0.031523  0  0.106614  0.116359  0  1.007338  0
H  H16  1  0.70552630  0.46335334  0.66854281  1  0.109526  0  0.109176  0.135842  0  0.986031  0
H  H17  1  0.74180514  0.49412322  0.74213958  1  0.074372  0  0.103856  0.123946  0  0.988282  0
H  H18  1  0.94106646  0.49604369  0.64956032  1  0.046637  0  0.111363  0.12902  0  0.967009  0
H  H19  1  0.06116712  0.42563140  0.67996137  1  0.17945  0  0.113773  0.152691  0  1.027765  0
H  H20  1  0.99514508  0.50947445  0.72399871  1  0.055416  0  0.100574  0.107731  0  0.991905  0
H  H21  1  0.20181333  0.26412804  0.64796237  1  0.13445  0  0.125458  0.068094  0  1.044446  0
H  H22  1  0.47009397  0.06731216  0.63680820  1  0.067159  0  0.110391  0.120312  0  0.985464  0
H  H23  1  0.31028994  0.04260304  0.60883904  1  0.077303  0  0.111036  0.128166  0  0.973429  0
H  H24  1  0.34026424  0.04898862  0.68578499  1  0.07817  0  0.10827  0.127809  0  0.989461  0
H  H25  1  0.51866669  0.21929914  0.66889788  1  0.035671  0  0.103827  0.117034  0  0.983302  0
H  H26  1  0.40520580  0.29335270  0.63671892  1  0.116527  0  0.114792  0.1338  0  1.005084  0
H  H27  1  0.48711453  0.21891401  0.59154953  1  0.059866  0  0.108481  0.122565  0  0.97242  0
H  H28  1  0.93467291  0.15554522  0.64371295  1  0.621791  0  0.301694  0.392642  0  0.923613  0
H  H29  1  0.86918575  0.08212550  0.67575667  1  0.61685  0  0.299645  0.384654  0  0.935688  0
H  H30  1  0.06118679  0.70628814  0.58750735  1  0.098876  0  0.11678  0.139131  0  0.987417  0
H  H31  1  0.21968973  0.82189755  0.74506771  1  0.149418  0  0.11106  0.126194  0  1.017869  0
H  H32  1  0.93562069  0.95752625  0.63774248  1  0.109152  0  0.110143  0.123334  0  1.00622  0
H  H33  1  0.75519200  0.77122729  0.64007137  1  0.103038  0  0.106321  0.122943  0  1.009226  0
H  H34  1  0.60865004  0.56546947  0.53184513  1  0.147338  0  0.112978  0.133367  0  0.998097  0
H  H35  1  0.88642432  0.74236389  0.46350987  1  0.115951  0  0.111732  0.131686  0  0.998204  0
H  H36  1  0.69191609  0.78724856  0.76539910  1  0.122155  0  0.12375  0.051547  0  0.992205  0
H  H37  1  0.82510853  0.89129501  0.77276977  1  0.031492  0  0.106659  0.116337  0  1.007509  0
H  H38  1  0.79449349  0.96333754  0.83144691  1  0.110304  0  0.109225  0.135945  0  0.986137  0
H  H39  1  0.75820178  0.99410479  0.75785132  1  0.074464  0  0.103831  0.124013  0  0.988415  0
H  H40  1  0.55896179  0.99602943  0.85043876  1  0.046442  0  0.111356  0.129022  0  0.967071  0
H  H41  1  0.43884986  0.92562399  0.82004200  1  0.179604  0  0.113782  0.152759  0  1.027774  0
H  H42  1  0.50487164  0.00946507  0.77600398  1  0.055548  0  0.100578  0.107749  0  0.991899  0
H  H43  1  0.29819334  0.76411995  0.85203715  1  0.134615  0  0.125453  0.068087  0  1.044375  0
H  H44  1  0.02989102  0.56731719  0.86318813  1  0.067597  0  0.110431  0.120422  0  0.985424  0
H  H45  1  0.18968359  0.54260182  0.89117111  1  0.077009  0  0.111045  0.128222  0  0.973485  0
H  H46  1  0.15974127  0.54898603  0.81422299  1  0.07783  0  0.108319  0.127918  0  0.989375  0
H  H47  1  0.98132595  0.71930438  0.83111655  1  0.034919  0  0.10384  0.116942  0  0.983234  0
H  H48  1  0.09480256  0.79335430  0.86328985  1  0.116565  0  0.114779  0.133786  0  1.004992  0
H  H49  1  0.01290414  0.71891858  0.90846368  1  0.059016  0  0.108439  0.122511  0  0.972543  0
H  H50  1  0.56533873  0.65553542  0.85628460  1  0.621541  0  0.301674  0.392605  0  0.923653  0
H  H51  1  0.63080611  0.58211282  0.82423525  1  0.617111  0  0.299615  0.384736  0  0.935627  0
H  H52  1  0.56119392  0.79371069  0.08750664  1  0.098917  0  0.116761  0.139131  0  0.987443  0
H  H53  1  0.71969199  0.67810241  0.24506854  1  0.149386  0  0.111069  0.126171  0  1.01783  0
H  H54  1  0.43561805  0.54247585  0.13774453  1  0.109188  0  0.110166  0.123348  0  1.006232  0
H  H55  1  0.25519657  0.72877673  0.14007113  1  0.103179  0  0.106359  0.12301  0  1.00912  0
H  H56  1  0.10865486  0.93453671  0.03184516  1  0.147463  0  0.112968  0.133352  0  0.998108  0
H  H57  1  0.38643132  0.75764117  0.96350953  1  0.115861  0  0.111717  0.131719  0  0.998208  0
H  H58  1  0.19190623  0.71273878  0.26540127  1  0.121822  0  0.123764  0.051664  0  0.992167  0
H  H59  1  0.32509952  0.60869826  0.27277226  1  0.031822  0  0.106629  0.116351  0  1.007402  0
H  H60  1  0.29448216  0.53665473  0.33145016  1  0.110141  0  0.10919  0.135974  0  0.985996  0
H  H61  1  0.25819459  0.50588612  0.25785327  1  0.074343  0  0.103804  0.123895  0  0.988469  0
H  H62  1  0.05894588  0.50396181  0.35044233  1  0.046555  0  0.111321  0.128936  0  0.967096  0
H  H63  1  0.93883647  0.57436581  0.32003985  1  0.179572  0  0.113747  0.152643  0  1.027883  0
H  H64  1  0.00486337  0.49052147  0.27600565  1  0.055503  0  0.100616  0.10773  0  0.991916  0
H  H65  1  0.79819706  0.73587555  0.35203938  1  0.134783  0  0.125477  0.068168  0  1.044427  0
H  H66  1  0.52990478  0.93268568  0.36318550  1  0.067167  0  0.110406  0.120284  0  0.985443  0
H  H67  1  0.68970396  0.95740055  0.39115766  1  0.077398  0  0.111055  0.128139  0  0.973467  0
H  H68  1  0.65973936  0.95100986  0.31421141  1  0.078  0  0.108281  0.127775  0  0.989642  0
H  H69  1  0.48132815  0.78070445  0.33111241  1  0.035137  0  0.1038  0.116869  0  0.983311  0
H  H70  1  0.59480460  0.70664706  0.36327714  1  0.116529  0  0.114805  0.133803  0  1.005048  0
H  H71  1  0.51291430  0.78107681  0.40845905  1  0.059084  0  0.108389  0.122503  0  0.972585  0
H  H72  1  0.06533943  0.84445517  0.35628183  1  0.621988  0  0.301726  0.392591  0  0.923653  0
H  H73  1  0.13081786  0.91787618  0.32423535  1  0.617346  0  0.299639  0.384667  0  0.935698  0
H  H74  1  0.93880128  0.29371098  0.41249146  1  0.09915  0  0.116785  0.139167  0  0.987495  0
H  H75  1  0.78030319  0.17810349  0.25492898  1  0.149291  0  0.111068  0.126151  0  1.017841  0
H  H76  1  0.06438195  0.04247734  0.36225304  1  0.109229  0  0.110159  0.123354  0  1.006249  0
H  H77  1  0.24480383  0.22878013  0.35992712  1  0.103034  0  0.106379  0.123023  0  1.009124  0
H  H78  1  0.39134288  0.43453668  0.46815462  1  0.14725  0  0.112977  0.133388  0  0.998069  0
H  H79  1  0.11357055  0.25763907  0.53648816  1  0.115896  0  0.111727  0.131704  0  0.998238  0
H  H80  1  0.30808363  0.21274226  0.23459374  1  0.122276  0  0.123758  0.051538  0  0.992197  0
H  H81  1  0.17489508  0.10869900  0.22722707  1  0.031749  0  0.106623  0.116338  0  1.007362  0
H  H82  1  0.20552176  0.03665264  0.16855141  1  0.110104  0  0.109195  0.135989  0  0.986031  0
H  H83  1  0.24181056  0.00588602  0.24214827  1  0.074339  0  0.103812  0.123889  0  0.988454  0
H  H84  1  0.44106413  0.00395947  0.14956453  1  0.046588  0  0.111339  0.128955  0  0.96701  0
H  H85  1  0.56116538  0.07437258  0.17996114  1  0.179532  0  0.113807  0.152787  0  1.027687  0
H  H86  1  0.49514846  0.99053213  0.22400185  1  0.055979  0  0.100611  0.107801  0  0.991893  0
H  H87  1  0.70181123  0.23587534  0.14796277  1  0.134523  0  0.125481  0.068156  0  1.044408  0
H  H88  1  0.97010286  0.43268385  0.13681426  1  0.067428  0  0.110459  0.120398  0  0.98551  0
H  H89  1  0.81030543  0.45739538  0.10883997  1  0.077177  0  0.111036  0.128139  0  0.973433  0
H  H90  1  0.84026522  0.45100990  0.18578614  1  0.0781  0  0.108269  0.12781  0  0.989502  0
H  H91  1  0.01867083  0.28069857  0.16889902  1  0.035879  0  0.103785  0.116975  0  0.983325  0
H  H92  1  0.90520296  0.20664418  0.13672540  1  0.116886  0  0.114801  0.133761  0  1.005092  0
H  H93  1  0.98711011  0.28107607  0.09155083  1  0.059385  0  0.108439  0.122461  0  0.972514  0
H  H94  1  0.43468041  0.34445604  0.14371421  1  0.621765  0  0.301689  0.39263  0  0.923623  0
H  H95  1  0.36918489  0.41787672  0.17575397  1  0.616849  0  0.299692  0.38472  0  0.935622  0
C  C96  1  0.51070558  0.33266994  0.89217281  1  0.424772  0  0.082575  0.254047  0  4.070923  0
C  C97  1  0.43421000  0.26019661  0.88234119  1  0.006449  0  -0.083723  -0.194456  0  3.927274  0
C  C98  1  0.35124831  0.25651315  0.83286928  1  -0.019535  0  -0.017688  -0.017858  0  3.99708  0
C  C99  1  0.34505376  0.32483045  0.79339658  1  -0.013099  0  -0.080123  -0.118285  0  3.918181  0
C  C100  1  0.42172800  0.39728526  0.80381693  1  -0.039518  0  -0.020808  -0.030507  0  4.004801  0
C  C101  1  0.50417742  0.40157158  0.85371496  1  -0.018073  0  -0.086215  -0.190854  0  3.93624  0
C  C102  1  0.26787042  0.17939645  0.82275910  1  1.568751  0  0.222565  0.602984  0  4.173539  0
C  C103  1  0.42011633  0.46852549  0.76012172  1  1.580583  0  0.224299  0.603175  0  4.163344  0
C  C104  1  0.67287654  0.26487031  0.94792107  1  0.436731  0  0.076168  0.246072  0  4.073084  0
C  C105  1  0.74754975  0.23742491  0.90162453  1  -0.037157  0  -0.092808  -0.205875  0  3.962575  0
C  C106  1  0.82583436  0.16511034  0.90882679  1  -0.015255  0  -0.021414  -0.025022  0  4.003715  0
C  C107  1  0.82966219  0.12139834  0.96235229  1  -0.050269  0  -0.078986  -0.117167  0  3.91324  0
C  C108  1  0.75402379  0.14938588  0.00834329  1  -0.009053  0  -0.015835  -0.008812  0  3.982328  0
C  C109  1  0.67485477  0.22168704  0.00116350  1  -0.017525  0  -0.085852  -0.195571  0  3.931363  0
C  C110  1  0.90790905  0.13518070  0.85987781  1  1.573134  0  0.222128  0.605585  0  4.173531  0
C  C111  1  0.75409117  0.10116526  0.06536576  1  1.556392  0  0.198657  0.555956  0  4.258221  0
C  C112  1  0.89468297  0.32336182  0.72190887  1  1.356255  0  0.179881  0.310375  0  4.066461  0
C  C113  1  0.74149080  0.44015940  0.71143060  1  0.256276  0  -0.130732  -0.27819  0  3.920142  0
C  C114  1  0.97383709  0.46208650  0.68941621  1  0.228471  0  -0.131764  -0.2724  0  3.874466  0
C  C115  1  0.21568022  0.19429525  0.64851608  1  1.362478  0  0.170717  0.301804  0  4.07628  0
C  C116  1  0.36618955  0.07634112  0.64339321  1  0.246203  0  -0.127219  -0.266283  0  3.898509  0
C  C117  1  0.44307672  0.22808469  0.63435343  1  0.252121  0  -0.124642  -0.276108  0  3.914904  0
C  C118  1  0.98928712  0.83267073  0.60782731  1  0.424778  0  0.082462  0.25376  0  4.071284  0
C  C119  1  0.06577534  0.76019511  0.61766021  1  0.006766  0  -0.083645  -0.194182  0  3.927116  0
C  C120  1  0.14873900  0.75650957  0.66713214  1  -0.020196  0  -0.017674  -0.017933  0  3.996842  0
C  C121  1  0.15493882  0.82483078  0.70660325  1  -0.013032  0  -0.080135  -0.118402  0  3.918263  0
C  C122  1  0.07826689  0.89728839  0.69618084  1  -0.039514  0  -0.020859  -0.030451  0  4.004525  0
C  C123  1  0.99582152  0.90157244  0.64628052  1  -0.017942  0  -0.08613  -0.190673  0  3.936064  0
C  C124  1  0.23211365  0.67939323  0.67724218  1  1.56872  0  0.222567  0.602995  0  4.173237  0
C  C125  1  0.07988769  0.96853257  0.73987539  1  1.580538  0  0.224053  0.602755  0  4.163659  0
C  C126  1  0.82711866  0.76487281  0.55207725  1  0.43718  0  0.076154  0.246057  0  4.072977  0
C  C127  1  0.75243986  0.73743227  0.59837499  1  -0.03673  0  -0.092759  -0.205777  0  3.962446  0
C  C128  1  0.67415875  0.66511668  0.59117313  1  -0.015429  0  -0.021444  -0.02506  0  4.003834  0
C  C129  1  0.67033322  0.62140072  0.53764805  1  -0.050264  0  -0.079051  -0.117195  0  3.913144  0
C  C130  1  0.74597066  0.64938984  0.49165374  1  -0.009077  0  -0.015801  -0.008867  0  3.982379  0
C  C131  1  0.82513714  0.72169265  0.49883490  1  -0.017727  0  -0.085833  -0.195532  0  3.931373  0
C  C132  1  0.59208237  0.63518619  0.64011986  1  1.572532  0  0.222181  0.605539  0  4.173684  0
C  C133  1  0.74590270  0.60116906  0.43463426  1  1.556332  0  0.198711  0.556023  0  4.258526  0
C  C134  1  0.60531759  0.82334912  0.77808697  1  1.356134  0  0.17982  0.310225  0  4.066491  0
C  C135  1  0.75852045  0.94014106  0.78855898  1  0.255565  0  -0.130861  -0.278456  0  3.920432  0
C  C136  1  0.52618172  0.96207480  0.81058533  1  0.216254  0  -0.131683  -0.272454  0  3.874565  0
C  C137  1  0.28431731  0.69428911  0.85148366  1  1.362068  0  0.170735  0.301924  0  4.076243  0
C  C138  1  0.13380021  0.57634065  0.85661196  1  0.246409  0  -0.127374  -0.26671  0  3.898524  0
C  C139  1  0.05692829  0.72808771  0.86565740  1  0.253615  0  -0.124572  -0.275953  0  3.914674  0
C  C140  1  0.48928928  0.66732918  0.10782697  1  0.424788  0  0.082455  0.25381  0  4.071136  0
C  C141  1  0.56578098  0.73980506  0.11765985  1  0.006785  0  -0.083654  -0.194309  0  3.927079  0
C  C142  1  0.64874169  0.74348852  0.16713262  1  -0.020222  0  -0.017637  -0.017781  0  3.996694  0
C  C143  1  0.65493916  0.67516931  0.20660404  1  -0.013073  0  -0.080095  -0.118357  0  3.918063  0
C  C144  1  0.57826686  0.60271258  0.19618110  1  -0.03944  0  -0.020934  -0.030547  0  4.004705  0
C  C145  1  0.49582424  0.59842754  0.14628185  1  -0.018078  0  -0.086127  -0.19066  0  3.936161  0
C  C146  1  0.73211668  0.82060523  0.17724188  1  1.568795  0  0.222505  0.602833  0  4.173427  0
C  C147  1  0.57988339  0.53147108  0.23987638  1  1.580341  0  0.224082  0.602861  0  4.16372  0
C  C148  1  0.32712124  0.73513009  0.05207656  1  0.43781  0  0.076159  0.246066  0  4.073062  0
C  C149  1  0.25244803  0.76257293  0.09837397  1  -0.037786  0  -0.092777  -0.205835  0  3.962439  0
C  C150  1  0.17416633  0.83488942  0.09117220  1  -0.015184  0  -0.021421  -0.025037  0  4.003736  0
C  C151  1  0.17033946  0.87860333  0.03764803  1  -0.05043  0  -0.079039  -0.117272  0  3.91314  0
C  C152  1  0.24597885  0.85061452  0.99165441  1  -0.009096  0  -0.015766  -0.008778  0  3.982343  0
C  C153  1  0.32514592  0.77831464  0.99883505  1  -0.017612  0  -0.085852  -0.195607  0  3.931649  0
C  C154  1  0.09208582  0.86481714  0.14011978  1  1.573016  0  0.222219  0.605662  0  4.173376  0
C  C155  1  0.24590854  0.89883450  0.93463365  1  1.556413  0  0.198698  0.556104  0  4.258295  0
C  C156  1  0.10530511  0.67664113  0.27808775  1  1.356579  0  0.179705  0.310022  0  4.067061  0
C  C157  1  0.25850990  0.55984994  0.28856182  1  0.255568  0  -0.130732  -0.278256  0  3.920299  0
C  C158  1  0.02616942  0.53791453  0.31058549  1  0.228396  0  -0.131728  -0.272251  0  3.8747  0
C  C159  1  0.78432435  0.80570707  0.35148209  1  1.362216  0  0.1707  0.30179  0  4.076334  0
C  C160  1  0.63381114  0.92365864  0.35660271  1  0.246284  0  -0.127261  -0.266162  0  3.898635  0
C  C161  1  0.55693464  0.77191443  0.36565140  1  0.253551  0  -0.124517  -0.275857  0  3.914926  0
C  C162  1  0.01070775  0.16733158  0.39217115  1  0.424797  0  0.082595  0.254033  0  4.071118  0
C  C163  1  0.93421370  0.23980465  0.38233861  1  0.00607  0  -0.083695  -0.194358  0  3.92736  0
C  C164  1  0.85125198  0.24348891  0.33286759  1  -0.019683  0  -0.017711  -0.017903  0  3.996903  0
C  C165  1  0.84505605  0.17517026  0.29339478  1  -0.012931  0  -0.080144  -0.118373  0  3.918099  0
C  C166  1  0.92172700  0.10271392  0.30381674  1  -0.039578  0  -0.020848  -0.030506  0  4.004702  0
C  C167  1  0.00417626  0.09842732  0.35371536  1  -0.018111  0  -0.086184  -0.19077  0  3.936195  0
C  C168  1  0.76787539  0.32060716  0.32275708  1  1.568872  0  0.222526  0.603009  0  4.173566  0
C  C169  1  0.92011397  0.03147102  0.26012230  1  1.58058  0  0.224215  0.603037  0  4.163424  0
C  C170  1  0.17287815  0.23513014  0.44792036  1  0.436712  0  0.076199  0.246156  0  4.073135  0
C  C171  1  0.24755210  0.26257579  0.40162388  1  -0.037026  0  -0.092843  -0.205949  0  3.962429  0
C  C172  1  0.32583417  0.33489138  0.40882750  1  -0.015307  0  -0.021422  -0.024989  0  4.003679  0
C  C173  1  0.32966067  0.37860287  0.46235216  1  -0.050223  0  -0.079058  -0.117345  0  3.913188  0
C  C174  1  0.25402129  0.35061312  0.50834469  1  -0.009058  0  -0.015767  -0.008782  0  3.982273  0
C  C175  1  0.17485384  0.27831286  0.50116308  1  -0.017544  0  -0.085888  -0.195617  0  3.93158  0
C  C176  1  0.40791346  0.36481932  0.35987950  1  1.573136  0  0.222194  0.605663  0  4.173444  0
C  C177  1  0.25408925  0.39883389  0.56536504  1  1.556459  0  0.198715  0.556181  0  4.25796  0
C  C178  1  0.39468699  0.17664490  0.22190988  1  1.355939  0  0.179784  0.310361  0  4.066732  0
C  C179  1  0.24149092  0.05984912  0.21143797  1  0.255752  0  -0.130739  -0.278278  0  3.920203  0
C  C180  1  0.47383449  0.03791985  0.18941870  1  0.227951  0  -0.131793  -0.272501  0  3.874506  0
C  C181  1  0.71568337  0.30570745  0.14851620  1  1.362482  0  0.170612  0.30161  0  4.076654  0
C  C182  1  0.86619755  0.42365655  0.14339574  1  0.246165  0  -0.127253  -0.266313  0  3.898499  0
C  C183  1  0.94307626  0.27191141  0.13435653  1  0.252022  0  -0.124575  -0.275917  0  3.914992  0
N  N184  1  0.87136393  0.40464055  0.70763665  1  -1.218291  0  -0.275076  0.03529  0  3.724658  0
N  N185  1  0.33752267  0.16765958  0.64191704  1  -1.191573  0  -0.278409  0.032196  0  3.705538  0
N  N186  1  0.62864469  0.90462461  0.79235985  1  -1.206271  0  -0.275082  0.035452  0  3.724287  0
N  N187  1  0.16247411  0.66765773  0.85808615  1  -1.191422  0  -0.278343  0.032415  0  3.705399  0
N  N188  1  0.12863191  0.59536559  0.29236096  1  -1.2185  0  -0.275058  0.035307  0  3.724842  0
N  N189  1  0.66248094  0.83234082  0.35808155  1  -1.191607  0  -0.278446  0.032093  0  3.705531  0
N  N190  1  0.37136571  0.09536940  0.20763927  1  -1.218512  0  -0.275034  0.035324  0  3.724747  0
N  N191  1  0.83752462  0.33233883  0.14191981  1  -1.191665  0  -0.278368  0.032296  0  3.705716  0
O  O192  1  0.20428062  0.17445743  0.77443615  1  -1.202006  0  -0.31842  -0.578782  0  2.423609  0
O  O193  1  0.26786334  0.12362544  0.86364136  1  -1.154009  0  -0.311462  -0.537513  0  2.30575  0
O  O194  1  0.33833930  0.46197273  0.71721581  1  -1.174467  0  -0.310919  -0.551152  0  2.365669  0
O  O195  1  0.50181214  0.52886828  0.76764743  1  -1.195263  0  -0.315619  -0.594418  0  2.426283  0
O  O196  1  0.90684701  0.17991193  0.81306509  1  -1.168366  0  -0.320248  -0.570422  0  2.335306  0
O  O197  1  0.97205736  0.06695331  0.86885673  1  -1.203888  0  -0.319461  -0.569582  0  2.404752  0
O  O198  1  0.84275718  0.04255155  0.07071264  1  -1.155065  0  -0.336188  -0.562389  0  2.313147  0
O  O199  1  0.67380464  0.11947971  0.10328972  1  -1.188727  0  -0.321032  -0.554534  0  2.179134  0
O  O200  1  0.59452574  0.33720532  0.94083082  1  -1.093496  0  -0.173576  -0.237711  0  2.488821  0
O  O201  1  0.00467999  0.28849621  0.72139410  1  -1.147002  0  -0.293811  -0.4424  0  2.366155  0
O  O202  1  0.12240854  0.14310899  0.65411078  1  -1.176357  0  -0.319486  -0.506429  0  2.313399  0
O  O203  1  0.86001935  0.14355025  0.66845920  1  -1.220236  0  -0.586693  -0.748764  0  1.962259  0
O  O204  1  0.29570446  0.67445284  0.72556514  1  -1.20181  0  -0.318412  -0.578779  0  2.423279  0
O  O205  1  0.23212701  0.62362339  0.63635775  1  -1.154153  0  -0.311482  -0.537522  0  2.305738  0
O  O206  1  0.16166283  0.96197707  0.78278127  1  -1.174369  0  -0.310863  -0.551034  0  2.365852  0
O  O207  1  0.99819181  0.02887554  0.73234590  1  -1.195409  0  -0.315397  -0.594151  0  2.42644  0
O  O208  1  0.59314501  0.67991307  0.68693396  1  -1.168424  0  -0.320316  -0.570387  0  2.335319  0
O  O209  1  0.52792977  0.56695900  0.63113861  1  -1.203554  0  -0.319408  -0.569609  0  2.404945  0
O  O210  1  0.65723620  0.54255567  0.42928774  1  -1.155088  0  -0.33623  -0.562454  0  2.313203  0
O  O211  1  0.82619200  0.61948057  0.39671081  1  -1.188662  0  -0.321014  -0.554504  0  2.179251  0
O  O212  1  0.90546983  0.83720947  0.55916935  1  -1.094007  0  -0.173538  -0.237615  0  2.488901  0
O  O213  1  0.49531871  0.78848785  0.77860840  1  -1.147158  0  -0.293805  -0.442401  0  2.366286  0
O  O214  1  0.37758748  0.64309931  0.84588537  1  -1.176176  0  -0.319519  -0.506595  0  2.313438  0
O  O215  1  0.63998656  0.64353692  0.83153737  1  -1.220247  0  -0.586666  -0.748839  0  1.962092  0
O  O216  1  0.79570550  0.82554680  0.22556569  1  -1.201919  0  -0.318369  -0.578689  0  2.423465  0
O  O217  1  0.73212861  0.87637560  0.13635838  1  -1.154106  0  -0.311463  -0.537463  0  2.305712  0
O  O218  1  0.66165848  0.53802384  0.28278182  1  -1.174357  0  -0.310831  -0.550999  0  2.365732  0
O  O219  1  0.49818467  0.47112893  0.23234887  1  -1.195134  0  -0.315487  -0.594277  0  2.426547  0
O  O220  1  0.09314495  0.82008591  0.18693246  1  -1.168487  0  -0.320277  -0.570383  0  2.335174  0
O  O221  1  0.02793654  0.93304454  0.13113998  1  -1.203899  0  -0.319483  -0.569656  0  2.404863  0
O  O222  1  0.15723962  0.95744757  0.92928717  1  -1.155074  0  -0.336194  -0.562408  0  2.313046  0
O  O223  1  0.32619411  0.88052133  0.89670968  1  -1.18871  0  -0.321072  -0.554655  0  2.17922  0
O  O224  1  0.40547398  0.66279316  0.05916815  1  -1.093966  0  -0.173572  -0.237674  0  2.488811  0
O  O225  1  0.99531002  0.71150547  0.27860737  1  -1.147311  0  -0.293663  -0.442239  0  2.366497  0
O  O226  1  0.87759603  0.85689652  0.34588651  1  -1.176472  0  -0.319458  -0.506439  0  2.313456  0
O  O227  1  0.13998814  0.85645143  0.33153375  1  -1.220886  0  -0.586717  -0.748697  0  1.962371  0
O  O228  1  0.70428750  0.32554883  0.27443460  1  -1.20203  0  -0.31841  -0.578843  0  2.423729  0
O  O229  1  0.76786688  0.37637701  0.36364114  1  -1.154183  0  -0.311426  -0.537487  0  2.305746  0
O  O230  1  0.83833689  0.03802396  0.21721815  1  -1.174463  0  -0.310899  -0.55112  0  2.365787  0
O  O231  1  0.00181180  0.97112933  0.26764875  1  -1.195285  0  -0.315543  -0.594289  0  2.426357  0
O  O232  1  0.40685470  0.32008924  0.31306633  1  -1.168426  0  -0.320263  -0.570383  0  2.335276  0
O  O233  1  0.47206315  0.43304587  0.36886027  1  -1.203962  0  -0.319497  -0.569702  0  2.404876  0
O  O234  1  0.34275478  0.45744792  0.57071242  1  -1.155508  0  -0.336208  -0.562493  0  2.312991  0
O  O235  1  0.17380092  0.38052110  0.60328851  1  -1.188401  0  -0.321059  -0.554604  0  2.179008  0
O  O236  1  0.09452503  0.16279604  0.44082868  1  -1.093415  0  -0.173614  -0.23778  0  2.489015  0
O  O237  1  0.50468004  0.21150936  0.22139143  1  -1.147166  0  -0.29377  -0.442441  0  2.366266  0
O  O238  1  0.62241225  0.35689597  0.15410879  1  -1.17636  0  -0.319472  -0.506417  0  2.313528  0
O  O239  1  0.36002384  0.35645135  0.16845782  1  -1.220195  0  -0.586738  -0.748831  0  1.962162  0
