# generated using pymatgen
data_Zn3H46C56(N2O3)4
_symmetry_space_group_name_H-M   'P 1'
_cell_length_a   9.42349135
_cell_length_b   18.09959988
_cell_length_c   18.57387790
_cell_angle_alpha   61.92648323
_cell_angle_beta   84.04037642
_cell_angle_gamma   86.24675091
_symmetry_Int_Tables_number   1
_chemical_formula_structural   Zn3H46C56(N2O3)4
_chemical_formula_sum   'Zn6 H92 C112 N16 O24'
_cell_volume   2779.65109432
_cell_formula_units_Z   2
loop_
 _symmetry_equiv_pos_site_id
 _symmetry_equiv_pos_as_xyz
  1  'x, y, z'
loop_
 _atom_site_type_symbol
 _atom_site_label
 _atom_site_symmetry_multiplicity
 _atom_site_fract_x
 _atom_site_fract_y
 _atom_site_fract_z
 _atom_site_occupancy
 _atom_site_pbe_bader_charge
 _atom_site_pbe_bader_spin_density
 _atom_site_pbe_cm5_charge
 _atom_site_pbe_ddec_charge
 _atom_site_pbe_ddec_spin_density
 _atom_site_pbe_ddec_sum_bond_order
 _atom_site_pbe_magmom
Zn  Zn0  1  0.35661249  0.93161469  0.86842860  1  1.292288  0  0.702885  0.881642  0  2.358621  0
Zn  Zn1  1  0.64338816  0.06838475  0.13157274  1  1.292407  0  0.702864  0.881634  0  2.358657  0
Zn  Zn2  1  0.65894817  0.91985344  0.35658004  1  1.297575  0  0.704462  0.881621  0  2.38509  0
Zn  Zn3  1  0.34105030  0.08014726  0.64341976  1  1.297472  0  0.704462  0.881596  0  2.385117  0
Zn  Zn4  1  0.48242865  0.49942583  0.25485147  1  1.276275  0  0.718129  0.838284  0  2.419769  0
Zn  Zn5  1  0.51757088  0.50057550  0.74514854  1  1.276295  0  0.718145  0.838326  0  2.419841  0
H  H6  1  0.20419278  0.79537326  0.77520739  1  0.071499  0  0.103829  0.154236  0  0.993702  0
H  H7  1  0.79580893  0.20462619  0.22479228  1  0.071523  0  0.103834  0.154229  0  0.993759  0
H  H8  1  0.13669380  0.72435769  0.87530703  1  0.081998  0  0.10827  0.157858  0  0.98787  0
H  H9  1  0.86330789  0.27564238  0.12469235  1  0.081981  0  0.108247  0.157799  0  0.987858  0
H  H10  1  0.29401479  0.77928144  0.86221806  1  0.119466  0  0.106771  0.162288  0  1.015327  0
H  H11  1  0.70598801  0.22071738  0.13778184  1  0.119603  0  0.106761  0.162278  0  1.015344  0
H  H12  1  0.12546500  0.04841237  0.89936281  1  0.117901  0  0.10759  0.126509  0  1.007787  0
H  H13  1  0.87453349  0.95158770  0.10063566  1  0.117873  0  0.107598  0.126525  0  1.007776  0
H  H14  1  0.88216263  0.10730764  0.91419466  1  0.072742  0  0.100605  0.10297  0  1.006463  0
H  H15  1  0.11783588  0.89269181  0.08580464  1  0.072705  0  0.100629  0.103023  0  1.006451  0
H  H16  1  0.66849765  0.05503782  0.88838966  1  0.097538  0  0.097967  0.101971  0  1.05452  0
H  H17  1  0.33150194  0.94496100  0.11160987  1  0.097493  0  0.097971  0.101972  0  1.054544  0
H  H18  1  0.68440122  0.94125924  0.84842229  1  0.091945  0  0.103477  0.11769  0  1.043151  0
H  H19  1  0.31559944  0.05873959  0.15157718  1  0.091956  0  0.103457  0.117663  0  1.043086  0
H  H20  1  0.93031786  0.78472624  0.78983597  1  0.089181  0  0.112301  0.090156  0  1.011081  0
H  H21  1  0.06968172  0.21527321  0.21016327  1  0.088801  0  0.112299  0.090144  0  1.011098  0
H  H22  1  0.77736732  0.84161462  0.80007572  1  0.109214  0  0.112388  0.097879  0  0.991228  0
H  H23  1  0.22263437  0.15838545  0.19992421  1  0.109199  0  0.1124  0.097888  0  0.991222  0
H  H24  1  0.78605086  0.68115378  0.90202576  1  0.131477  0  0.100313  0.119284  0  1.03217  0
H  H25  1  0.21394870  0.31884629  0.09797481  1  0.131488  0  0.100308  0.119295  0  1.03217  0
H  H26  1  0.91844651  0.70476984  0.94934521  1  0.055146  0  0.098611  0.098706  0  0.983225  0
H  H27  1  0.08155412  0.29523023  0.05065477  1  0.055169  0  0.098612  0.098711  0  0.98323  0
H  H28  1  0.73175802  0.81436622  0.96078517  1  0.076356  0  0.109766  0.083586  0  1.01567  0
H  H29  1  0.26824154  0.18563385  0.03921486  1  0.076371  0  0.109769  0.083594  0  1.015654  0
H  H30  1  0.60523133  0.76409647  0.93665244  1  0.101852  0  0.114166  0.098467  0  1.004233  0
H  H31  1  0.39476931  0.23590298  0.06334782  1  0.101842  0  0.114151  0.098447  0  1.004246  0
H  H32  1  0.00823124  0.76909117  0.17873665  1  0.052875  0  0.095158  0.087532  0  1.037351  0
H  H33  1  0.99176822  0.23091203  0.82126141  1  0.052713  0  0.09513  0.087448  0  1.03737  0
H  H34  1  0.91271382  0.79942384  0.04717526  1  0.065532  0  0.104676  0.117474  0  1.003125  0
H  H35  1  0.08728570  0.20057748  0.95282366  1  0.065573  0  0.10467  0.117499  0  1.003066  0
H  H36  1  0.72443969  0.56114929  0.31517555  1  0.094268  0  0.106276  0.117441  0  1.00103  0
H  H37  1  0.27556623  0.43885203  0.68482412  1  0.09434  0  0.106264  0.117406  0  1.001025  0
H  H38  1  0.91540073  0.65246711  0.31010065  1  0.084877  0  0.104759  0.109235  0  0.990757  0
H  H39  1  0.08460301  0.34753609  0.68989773  1  0.084881  0  0.10475  0.109216  0  0.990787  0
H  H40  1  0.42898436  0.65905577  0.01009611  1  0.109363  0  0.103175  0.17068  0  1.010024  0
H  H41  1  0.57101840  0.34094430  0.98990429  1  0.109307  0  0.103165  0.170648  0  1.010004  0
H  H42  1  0.44507371  0.55088890  0.08015090  1  0.130346  0  0.102807  0.169797  0  1.033523  0
H  H43  1  0.55492694  0.44911054  0.91985044  1  0.130353  0  0.10282  0.169813  0  1.033483  0
H  H44  1  0.56733872  0.59680877  0.99038441  1  0.110484  0  0.102913  0.173386  0  1.015088  0
H  H45  1  0.43266299  0.40319067  0.00961633  1  0.110476  0  0.10291  0.173376  0  1.015074  0
H  H46  1  0.54575263  0.89932017  0.08207952  1  0.138773  0  0.112024  0.123522  0  1.003578  0
H  H47  1  0.45424693  0.10067990  0.91792105  1  0.138758  0  0.112017  0.123521  0  1.003562  0
H  H48  1  0.48053903  0.72326488  0.33801255  1  0.09689  0  0.109133  0.112194  0  1.014948  0
H  H49  1  0.51946055  0.27673456  0.66198777  1  0.096898  0  0.109108  0.112164  0  1.014971  0
H  H50  1  0.31260998  0.67472286  0.15731921  1  0.11841  0  0.113329  0.121344  0  0.990567  0
H  H51  1  0.68739066  0.32527658  0.84268105  1  0.11795  0  0.113328  0.121326  0  0.990584  0
H  H52  1  0.65850128  0.66645161  0.64448069  1  0.121034  0  0.112632  0.11771  0  1.004619  0
H  H53  1  0.34149610  0.33354972  0.35551942  1  0.121014  0  0.112614  0.117685  0  1.004683  0
H  H54  1  0.54921556  0.73376449  0.83697252  1  0.063024  0  0.109444  0.109986  0  1.025467  0
H  H55  1  0.45078503  0.26623683  0.16302796  1  0.063028  0  0.109458  0.110022  0  1.025443  0
H  H56  1  0.50745480  0.91619695  0.58507509  1  0.132113  0  0.11181  0.12416  0  1.002477  0
H  H57  1  0.49254579  0.08380437  0.41492540  1  0.13213  0  0.111801  0.124143  0  1.002466  0
H  H58  1  0.54538891  0.66438231  0.49889147  1  0.12627  0  0.104158  0.169625  0  1.001317  0
H  H59  1  0.45460849  0.33561839  0.50110785  1  0.126272  0  0.10416  0.169653  0  1.001294  0
H  H60  1  0.43052437  0.59619515  0.48751608  1  0.114607  0  0.103981  0.165255  0  1.009938  0
H  H61  1  0.56947412  0.40380493  0.51248347  1  0.114612  0  0.103967  0.165252  0  1.009955  0
H  H62  1  0.55386649  0.55544850  0.56584380  1  0.132856  0  0.105487  0.170869  0  1.016128  0
H  H63  1  0.44613199  0.44455220  0.43415546  1  0.132831  0  0.105513  0.170885  0  1.01619  0
H  H64  1  0.26433878  0.55168118  0.83397971  1  0.083206  0  0.106833  0.120269  0  0.999064  0
H  H65  1  0.73565973  0.44831827  0.16601959  1  0.083179  0  0.106828  0.120278  0  0.999126  0
H  H66  1  0.02232611  0.60673680  0.85585668  1  0.069701  0  0.103497  0.10498  0  0.995744  0
H  H67  1  0.97767448  0.39326453  0.14414219  1  0.069696  0  0.103487  0.104984  0  0.995745  0
H  H68  1  0.87944041  0.69331942  0.73946794  1  0.060315  0  0.096434  0.092543  0  1.044632  0
H  H69  1  0.12055804  0.30668191  0.26053212  1  0.060338  0  0.096429  0.092528  0  1.04463  0
H  H70  1  0.96741523  0.72630441  0.59703507  1  0.06123  0  0.107418  0.118069  0  1.003932  0
H  H71  1  0.03258218  0.27369629  0.40296425  1  0.061241  0  0.107402  0.118052  0  1.004008  0
H  H72  1  0.09128304  0.72390672  0.48719785  1  0.049599  0  0.114555  0.096126  0  0.972205  0
H  H73  1  0.90871545  0.27609335  0.51280116  1  0.049624  0  0.114567  0.096158  0  0.972223  0
H  H74  1  0.23195150  0.67881326  0.44860582  1  0.145982  0  0.114118  0.113859  0  1.040751  0
H  H75  1  0.76804701  0.32118619  0.55139348  1  0.145907  0  0.114112  0.113875  0  1.040792  0
H  H76  1  0.31647387  0.90520469  0.32122153  1  0.071338  0  0.112886  0.094817  0  0.985778  0
H  H77  1  0.68352571  0.09479475  0.67877771  1  0.071322  0  0.112873  0.094777  0  0.985799  0
H  H78  1  0.23340734  0.82160311  0.31988725  1  0.067362  0  0.116074  0.099028  0  0.985555  0
H  H79  1  0.76659223  0.17839633  0.68011253  1  0.067344  0  0.11606  0.099019  0  0.985517  0
H  H80  1  0.40059741  0.78599396  0.43431319  1  0.080046  0  0.10155  0.10969  0  1.011748  0
H  H81  1  0.59940217  0.21400548  0.56568605  1  0.080036  0  0.101538  0.109679  0  1.011781  0
H  H82  1  0.27002605  0.83008665  0.47870385  1  0.042781  0  0.097171  0.099141  0  0.986205  0
H  H83  1  0.72997353  0.16991280  0.52129540  1  0.042751  0  0.097156  0.099115  0  0.986243  0
H  H84  1  0.84513337  0.77412196  0.36579202  1  0.094842  0  0.112265  0.175768  0  0.980607  0
H  H85  1  0.15486620  0.22587749  0.63420776  1  0.094955  0  0.11226  0.175747  0  0.980643  0
H  H86  1  0.03121367  0.75961594  0.34508198  1  0.062156  0  0.107899  0.157202  0  0.997145  0
H  H87  1  0.96878588  0.24038413  0.65491806  1  0.062153  0  0.107892  0.157177  0  0.997183  0
H  H88  1  0.92753401  0.82993483  0.26458457  1  0.085824  0  0.101951  0.152062  0  1.017985  0
H  H89  1  0.07246556  0.17006462  0.73541521  1  0.085834  0  0.101958  0.15208  0  1.017969  0
H  H90  1  0.76273974  0.06535546  0.38081248  1  0.093662  0  0.105859  0.124566  0  1.022898  0
H  H91  1  0.23726090  0.93464399  0.61918724  1  0.09367  0  0.105863  0.124574  0  1.022826  0
H  H92  1  0.93077429  0.14850412  0.40861154  1  0.056157  0  0.092589  0.087176  0  1.042472  0
H  H93  1  0.06922527  0.85149596  0.59138796  1  0.056164  0  0.092554  0.087126  0  1.042492  0
H  H94  1  0.18860932  0.11400826  0.41333317  1  0.066415  0  0.09612  0.096638  0  1.031944  0
H  H95  1  0.81138919  0.88599119  0.58666667  1  0.066397  0  0.096136  0.096658  0  1.031952  0
H  H96  1  0.29034663  0.99497620  0.39142844  1  0.056554  0  0.107125  0.123416  0  1.008399  0
H  H97  1  0.70965295  0.00502325  0.60857134  1  0.056541  0  0.107114  0.123403  0  1.00842  0
C  C98  1  0.18993761  0.78456816  0.83894239  1  -0.056523  0  -0.228358  -0.475527  0  3.919879  0
C  C99  1  0.81006090  0.21543129  0.16105853  1  -0.056664  0  -0.228328  -0.475457  0  3.919846  0
C  C100  1  0.10509561  0.85314769  0.84586796  1  0.983636  0  0.241968  0.389274  0  3.923772  0
C  C101  1  0.89490503  0.14685176  0.15413177  1  0.983654  0  0.241997  0.389337  0  3.923767  0
C  C102  1  0.03919769  0.96076429  0.86682381  1  0.354995  0  0.082374  0.144545  0  4.073383  0
C  C103  1  0.96080402  0.03923515  0.13317640  1  0.354931  0  0.082412  0.144582  0  4.073525  0
C  C104  1  0.03029838  0.02576397  0.88793298  1  -0.040702  0  -0.09438  -0.163917  0  3.98861  0
C  C105  1  0.96970120  0.97423548  0.11206680  1  -0.040607  0  -0.094376  -0.16393  0  3.988558  0
C  C106  1  0.89470028  0.05835233  0.89541291  1  -0.076563  0  -0.099841  -0.098099  0  4.03287  0
C  C107  1  0.10530038  0.94164649  0.10458710  1  -0.076559  0  -0.09985  -0.098084  0  4.032705  0
C  C108  1  0.77225049  0.02855002  0.88072564  1  -0.016185  0  -0.097329  -0.077143  0  4.002886  0
C  C109  1  0.22775124  0.97144880  0.11927431  1  -0.016199  0  -0.097374  -0.077269  0  4.002942  0
C  C110  1  0.77987403  0.96456200  0.85878798  1  -0.038639  0  -0.10106  -0.174551  0  4.010004  0
C  C111  1  0.22012665  0.03543620  0.14121286  1  -0.03865  0  -0.101019  -0.174428  0  4.009862  0
C  C112  1  0.91524315  0.93025387  0.85369936  1  0.335472  0  0.088329  0.083748  0  4.033811  0
C  C113  1  0.08475856  0.06974558  0.14630138  1  0.335575  0  0.088358  0.083742  0  4.033701  0
C  C114  1  0.87043493  0.80543410  0.83118966  1  0.25297  0  -0.050069  -0.043617  0  3.860578  0
C  C115  1  0.12956570  0.19456597  0.16880978  1  0.253339  0  -0.050067  -0.043596  0  3.860575  0
C  C116  1  0.82510448  0.73048460  0.91336177  1  -0.094223  0  -0.164976  -0.215305  0  3.905063  0
C  C117  1  0.17489614  0.26951547  0.08663767  1  -0.094234  0  -0.164976  -0.215329  0  3.905044  0
C  C118  1  0.70835636  0.75491937  0.96250095  1  0.299891  0  -0.053452  -0.044887  0  3.864904  0
C  C119  1  0.29164428  0.24508008  0.03749931  1  0.299864  0  -0.053467  -0.044904  0  3.864946  0
C  C120  1  0.92377502  0.73065277  0.17890138  1  -0.043437  0  -0.097922  -0.085293  0  4.03589  0
C  C121  1  0.07622768  0.26934918  0.82109709  1  -0.043146  0  -0.097864  -0.085078  0  4.035721  0
C  C122  1  0.87156951  0.74790193  0.10487804  1  0.010648  0  -0.097264  -0.1639  0  4.000773  0
C  C123  1  0.12843212  0.25210002  0.89512102  1  0.010589  0  -0.097266  -0.164037  0  4.000764  0
C  C124  1  0.76584579  0.69530476  0.10880344  1  0.301703  0  0.091727  0.090207  0  4.030836  0
C  C125  1  0.23415480  0.30469656  0.89119650  1  0.30166  0  0.091761  0.090286  0  4.030776  0
C  C126  1  0.76482925  0.61234486  0.25710866  1  -0.023018  0  -0.090998  -0.153005  0  3.982217  0
C  C127  1  0.23517560  0.38765647  0.74289053  1  -0.023132  0  -0.091018  -0.152991  0  3.982152  0
C  C128  1  0.87113219  0.66423746  0.25363559  1  -0.064478  0  -0.096195  -0.087488  0  4.018481  0
C  C129  1  0.12887156  0.33576511  0.74636307  1  -0.064424  0  -0.096193  -0.087514  0  4.018481  0
C  C130  1  0.71289647  0.62809065  0.18326975  1  0.407227  0  0.084172  0.146035  0  4.078722  0
C  C131  1  0.28710627  0.37191005  0.81673037  1  0.407231  0  0.084188  0.14606  0  4.078699  0
C  C132  1  0.60020079  0.62805996  0.08499676  1  0.984059  0  0.245861  0.399896  0  3.925245  0
C  C133  1  0.39980089  0.37194074  0.91500396  1  0.983657  0  0.245829  0.399889  0  3.925236  0
C  C134  1  0.50573499  0.60698372  0.03878807  1  -0.100777  0  -0.241895  -0.505034  0  3.891428  0
C  C135  1  0.49426672  0.39301572  0.96121321  1  -0.1004  0  -0.241876  -0.504977  0  3.891379  0
C  C136  1  0.39187850  0.82087350  0.02443180  1  1.555003  0  0.194243  0.551914  0  4.240844  0
C  C137  1  0.60812214  0.17912594  0.97556900  1  1.554984  0  0.194283  0.551995  0  4.240704  0
C  C138  1  0.42593399  0.78992054  0.11121789  1  -0.017493  0  -0.020848  -0.040566  0  3.982143  0
C  C139  1  0.57406666  0.21007890  0.88878292  1  -0.017497  0  -0.020852  -0.040586  0  3.982233  0
C  C140  1  0.50449691  0.84005984  0.13060772  1  0.001042  0  -0.073472  -0.100118  0  3.936991  0
C  C141  1  0.49550266  0.15993961  0.86939314  1  0.001002  0  -0.073489  -0.100128  0  3.937049  0
C  C142  1  0.52277118  0.81667131  0.21233143  1  -0.009919  0  -0.023847  -0.058388  0  4.012279  0
C  C143  1  0.47722840  0.18332814  0.78766997  1  -0.009903  0  -0.023881  -0.058458  0  4.012259  0
C  C144  1  0.58620884  0.87695443  0.23284346  1  1.539816  0  0.226139  0.602954  0  4.169792  0
C  C145  1  0.41379074  0.12304501  0.76715686  1  1.539754  0  0.226155  0.602964  0  4.169861  0
C  C146  1  0.46753238  0.74096360  0.27432352  1  -0.057194  0  -0.072566  -0.0976  0  3.932694  0
C  C147  1  0.53246829  0.25903522  0.72567649  1  -0.057158  0  -0.072572  -0.097553  0  3.932572  0
C  C148  1  0.39503905  0.68817203  0.25532595  1  -0.069815  0  -0.019185  -0.049067  0  3.993353  0
C  C149  1  0.60496161  0.31182679  0.74467406  1  -0.069673  0  -0.01918  -0.049071  0  3.993325  0
C  C150  1  0.37322885  0.71333024  0.17347238  1  -0.041737  0  -0.070325  -0.101344  0  3.922429  0
C  C151  1  0.62676966  0.28666920  0.82652745  1  -0.041427  0  -0.070311  -0.10132  0  3.922446  0
C  C152  1  0.33711449  0.60743575  0.32506713  1  1.593606  0  0.204331  0.581775  0  4.232283  0
C  C153  1  0.66288617  0.39256307  0.67493342  1  1.593595  0  0.204349  0.581795  0  4.23243  0
C  C154  1  0.64147975  0.60275972  0.81291966  1  1.598468  0  0.205725  0.570656  0  4.246982  0
C  C155  1  0.35851979  0.39724097  0.18708063  1  1.59848  0  0.205737  0.570715  0  4.246856  0
C  C156  1  0.61703813  0.71176412  0.66484127  1  0.025362  0  -0.069043  -0.096286  0  3.925798  0
C  C157  1  0.38295925  0.28823720  0.33515939  1  0.02536  0  -0.069032  -0.096289  0  3.925745  0
C  C158  1  0.60176118  0.68957228  0.74825557  1  -0.005135  0  -0.019337  -0.049265  0  3.987107  0
C  C159  1  0.39823838  0.31042780  0.25174501  1  -0.00513  0  -0.019298  -0.049233  0  3.987134  0
C  C160  1  0.55729517  0.75062163  0.77219513  1  -0.06691  0  -0.070832  -0.094458  0  3.921902  0
C  C161  1  0.44270437  0.24937907  0.22780516  1  -0.066742  0  -0.070865  -0.094512  0  3.922056  0
C  C162  1  0.52231319  0.83195417  0.71402036  1  -0.010306  0  -0.025711  -0.05976  0  4.013788  0
C  C163  1  0.47768847  0.16804715  0.28598007  1  -0.010447  0  -0.02569  -0.059761  0  4.013819  0
C  C164  1  0.53331202  0.85279361  0.63087882  1  -0.141863  0  -0.071605  -0.098403  0  3.914557  0
C  C165  1  0.46668645  0.14720709  0.36912207  1  -0.14187  0  -0.071586  -0.098369  0  3.914426  0
C  C166  1  0.58440393  0.79338886  0.60604073  1  0.008553  0  -0.019695  -0.036173  0  3.979759  0
C  C167  1  0.41559563  0.20661121  0.39396038  1  0.008528  0  -0.019693  -0.036125  0  3.979658  0
C  C168  1  0.61423271  0.81842188  0.51664024  1  1.546417  0  0.191571  0.549989  0  4.25157  0
C  C169  1  0.38576791  0.18157819  0.48336027  1  1.54646  0  0.191529  0.549907  0  4.251553  0
C  C170  1  0.47219173  0.89693946  0.73917622  1  1.567199  0  0.219355  0.587338  0  4.201111  0
C  C171  1  0.52780463  0.10306061  0.26082453  1  1.567194  0  0.219333  0.587277  0  4.201182  0
C  C172  1  0.48089912  0.60754193  0.53216196  1  -0.142493  0  -0.234856  -0.491707  0  3.887938  0
C  C173  1  0.51909937  0.39245815  0.46783705  1  -0.142481  0  -0.234855  -0.491738  0  3.887938  0
C  C174  1  0.37097629  0.61763001  0.59012027  1  0.974464  0  0.242776  0.391464  0  3.918113  0
C  C175  1  0.62902114  0.38237007  0.40987933  1  0.97462  0  0.242786  0.391491  0  3.918019  0
C  C176  1  0.25173834  0.60879178  0.70234120  1  0.317951  0  0.082502  0.143204  0  4.08356  0
C  C177  1  0.74826015  0.39120829  0.29765782  1  0.317981  0  0.082494  0.143191  0  4.083511  0
C  C178  1  0.20165438  0.59038252  0.78250450  1  0.034038  0  -0.093726  -0.157661  0  3.982601  0
C  C179  1  0.79834623  0.40961818  0.21749411  1  0.036048  0  -0.09372  -0.157671  0  3.982636  0
C  C180  1  0.06703478  0.62188327  0.79403633  1  -0.009648  0  -0.09611  -0.08905  0  4.02459  0
C  C181  1  0.93296484  0.37811493  0.20596348  1  -0.011665  0  -0.096126  -0.089126  0  4.024602  0
C  C182  1  0.98484706  0.67086875  0.72779263  1  -0.08101  0  -0.097079  -0.081107  0  4.021588  0
C  C183  1  0.01515355  0.32913195  0.27220760  1  -0.081015  0  -0.097073  -0.081039  0  4.021526  0
C  C184  1  0.03368620  0.69010771  0.64759226  1  0.026119  0  -0.094748  -0.167528  0  4.01418  0
C  C185  1  0.96631229  0.30989237  0.35240783  1  0.02614  0  -0.094712  -0.167498  0  4.0142  0
C  C186  1  0.16854405  0.65856893  0.63630858  1  0.322609  0  0.091695  0.088573  0  4.031726  0
C  C187  1  0.83145336  0.34143177  0.36369074  1  0.322595  0  0.091687  0.088558  0  4.031731  0
C  C188  1  0.20760276  0.71427777  0.48307252  1  0.270479  0  -0.056864  -0.069221  0  3.869663  0
C  C189  1  0.79239573  0.28572231  0.51692704  1  0.270324  0  -0.056873  -0.069294  0  3.869736  0
C  C190  1  0.23849580  0.85551675  0.35536428  1  0.320928  0  -0.049148  -0.04629  0  3.883651  0
C  C191  1  0.76150378  0.14448270  0.64463497  1  0.320993  0  -0.049142  -0.046227  0  3.883588  0
C  C192  1  0.28539512  0.79765930  0.44096925  1  -0.044951  0  -0.163036  -0.201685  0  3.915238  0
C  C193  1  0.71460336  0.20234078  0.55902977  1  -0.044955  0  -0.162972  -0.201629  0  3.915201  0
C  C194  1  0.94308224  0.80564841  0.32979613  1  -0.040747  0  -0.227485  -0.485809  0  3.922871  0
C  C195  1  0.05691733  0.19435104  0.67020366  1  -0.040837  0  -0.227479  -0.485781  0  3.922923  0
C  C196  1  0.97009757  0.87571351  0.34646993  1  1.002668  0  0.24162  0.386571  0  3.936194  0
C  C197  1  0.02990202  0.12428531  0.65353067  1  1.00268  0  0.24162  0.386562  0  3.936224  0
C  C198  1  0.93396925  0.98506516  0.36853258  1  0.39974  0  0.083589  0.151496  0  4.066615  0
C  C199  1  0.06603032  0.01493429  0.63146720  1  0.399871  0  0.083546  0.151468  0  4.066569  0
C  C200  1  0.87677715  0.05108686  0.38212848  1  -0.003827  0  -0.094672  -0.158351  0  3.969505  0
C  C201  1  0.12322135  0.94891322  0.61787161  1  -0.003899  0  -0.094686  -0.158363  0  3.969495  0
C  C202  1  0.97152627  0.09653684  0.39787779  1  -0.06248  0  -0.098845  -0.088809  0  4.03811  0
C  C203  1  0.02847224  0.90346261  0.60212366  1  -0.062538  0  -0.098818  -0.088783  0  4.038226  0
C  C204  1  0.11855427  0.07702132  0.40038009  1  -0.002434  0  -0.096823  -0.081097  0  4.020226  0
C  C205  1  0.88144422  0.92297875  0.59962000  1  -0.00244  0  -0.096829  -0.081122  0  4.020351  0
C  C206  1  0.17681982  0.01090744  0.38748769  1  0.011394  0  -0.097161  -0.170736  0  3.997614  0
C  C207  1  0.82317869  0.98909201  0.61251215  1  0.011394  0  -0.097149  -0.170694  0  3.997553  0
C  C208  1  0.08143475  0.96545915  0.37159908  1  0.282468  0  0.087716  0.082031  0  4.029446  0
C  C209  1  0.91856376  0.03454030  0.62840076  1  0.282435  0  0.087745  0.082042  0  4.029268  0
N  N210  1  0.60995135  0.58783524  0.16626474  1  -1.22583  0  -0.359717  -0.438888  0  3.521132  0
N  N211  1  0.39005248  0.41216483  0.83373561  1  -1.225852  0  -0.35973  -0.438933  0  3.521161  0
N  N212  1  0.69184842  0.69370481  0.04866020  1  -1.256426  0  -0.240136  -0.076227  0  3.678495  0
N  N213  1  0.30815434  0.30629526  0.95134021  1  -1.256387  0  -0.240127  -0.076253  0  3.678421  0
N  N214  1  0.96088455  0.86265527  0.84045630  1  -1.219902  0  -0.239329  -0.079843  0  3.668375  0
N  N215  1  0.03911716  0.13734417  0.15954391  1  -1.219881  0  -0.239348  -0.079847  0  3.668337  0
N  N216  1  0.15541105  0.91223656  0.85989974  1  -1.225178  0  -0.360043  -0.422681  0  3.529226  0
N  N217  1  0.84459066  0.08776289  0.14010101  1  -1.225226  0  -0.360122  -0.422822  0  3.52943  0
N  N218  1  0.86848680  0.92821624  0.35251869  1  -1.235489  0  -0.363452  -0.42403  0  3.522222  0
N  N219  1  0.13151277  0.07178321  0.64748055  1  -1.235387  0  -0.363436  -0.423978  0  3.522182  0
N  N220  1  0.10041575  0.89644786  0.35708458  1  -1.215442  0  -0.237966  -0.078457  0  3.675903  0
N  N221  1  0.89958381  0.10355222  0.64291438  1  -1.215443  0  -0.237945  -0.078465  0  3.675916  0
N  N222  1  0.24706724  0.66321237  0.56676588  1  -1.188451  0  -0.23491  -0.06224  0  3.655712  0
N  N223  1  0.75293019  0.33678770  0.43323373  1  -1.188342  0  -0.234921  -0.062267  0  3.655698  0
N  N224  1  0.37656788  0.58411415  0.67146852  1  -1.246256  0  -0.357713  -0.434897  0  3.514533  0
N  N225  1  0.62343061  0.41588592  0.32853103  1  -1.246282  0  -0.357716  -0.434847  0  3.514483  0
O  O226  1  0.35053732  0.53992225  0.31704769  1  -1.178454  0  -0.342987  -0.569704  0  2.353923  0
O  O227  1  0.64945905  0.46007720  0.68295388  1  -1.178447  0  -0.342968  -0.569704  0  2.353953  0
O  O228  1  0.27905292  0.60942269  0.38767654  1  -1.177072  0  -0.330826  -0.550516  0  2.12421  0
O  O229  1  0.72094559  0.39057676  0.61232438  1  -1.177051  0  -0.33084  -0.550518  0  2.124341  0
O  O230  1  0.32815951  0.77593408  0.00409652  1  -1.18187  0  -0.325704  -0.556165  0  2.144228  0
O  O231  1  0.67184327  0.22406536  0.99590364  1  -1.181877  0  -0.325679  -0.556152  0  2.14422  0
O  O232  1  0.43086428  0.89737892  0.97397304  1  -1.165092  0  -0.340217  -0.55735  0  2.282592  0
O  O233  1  0.56913530  0.10262053  0.02602836  1  -1.165217  0  -0.340247  -0.557403  0  2.282456  0
O  O234  1  0.63826153  0.94390305  0.17463705  1  -1.206529  0  -0.318477  -0.563316  0  2.402718  0
O  O235  1  0.36173910  0.05609702  0.82536347  1  -1.206541  0  -0.318473  -0.563286  0  2.402725  0
O  O236  1  0.57978015  0.85757378  0.30897150  1  -1.166205  0  -0.313238  -0.550496  0  2.41533  0
O  O237  1  0.42021729  0.14242567  0.69102947  1  -1.166126  0  -0.313238  -0.55051  0  2.415431  0
O  O238  1  0.64190505  0.54188205  0.79486040  1  -1.187051  0  -0.345629  -0.573313  0  2.381173  0
O  O239  1  0.35809340  0.45811928  0.20513912  1  -1.187082  0  -0.345587  -0.57327  0  2.381147  0
O  O240  1  0.67612471  0.59428527  0.87950890  1  -1.168484  0  -0.320987  -0.538322  0  2.136488  0
O  O241  1  0.32387376  0.40571543  0.12049090  1  -1.16849  0  -0.321054  -0.538432  0  2.136385  0
O  O242  1  0.56671529  0.89227346  0.46647824  1  -1.168807  0  -0.342284  -0.565281  0  2.284035  0
O  O243  1  0.43328215  0.10772599  0.53352165  1  -1.168847  0  -0.342279  -0.565239  0  2.284038  0
O  O244  1  0.68491487  0.77070509  0.49410926  1  -1.176133  0  -0.328033  -0.558255  0  2.119587  0
O  O245  1  0.31508574  0.22929561  0.50589205  1  -1.176169  0  -0.328012  -0.558235  0  2.119535  0
O  O246  1  0.40706365  0.96033320  0.68796014  1  -1.215977  0  -0.31336  -0.559026  0  2.45301  0
O  O247  1  0.59293587  0.03966812  0.31203986  1  -1.215962  0  -0.313327  -0.55897  0  2.45301  0
O  O248  1  0.49493817  0.88409286  0.81121593  1  -1.183135  0  -0.317592  -0.563175  0  2.376847  0
O  O249  1  0.50506242  0.11590846  0.18878455  1  -1.183091  0  -0.317588  -0.563126  0  2.37687  0
