# generated using pymatgen
data_AgH7C5(N3O)2
_symmetry_space_group_name_H-M   'P 1'
_cell_length_a   7.06397059
_cell_length_b   10.07889602
_cell_length_c   11.62196190
_cell_angle_alpha   109.33371827
_cell_angle_beta   90.00021947
_cell_angle_gamma   90.00014201
_symmetry_Int_Tables_number   1
_chemical_formula_structural   AgH7C5(N3O)2
_chemical_formula_sum   'Ag4 H28 C20 N24 O8'
_cell_volume   780.78618196
_cell_formula_units_Z   4
loop_
 _symmetry_equiv_pos_site_id
 _symmetry_equiv_pos_as_xyz
  1  'x, y, z'
loop_
 _atom_site_type_symbol
 _atom_site_label
 _atom_site_symmetry_multiplicity
 _atom_site_fract_x
 _atom_site_fract_y
 _atom_site_fract_z
 _atom_site_occupancy
 _atom_site_hle17_bader_spin_density
 _atom_site_hle17_ddec_charge
 _atom_site_hle17_ddec_spin_density
 _atom_site_hle17_ddec_sum_bond_order
 _atom_site_hle17_magmom
 _atom_site_hse06_10hf_bader_spin_density
 _atom_site_hse06_10hf_ddec_charge
 _atom_site_hse06_10hf_ddec_spin_density
 _atom_site_hse06_10hf_ddec_sum_bond_order
 _atom_site_hse06_10hf_magmom
 _atom_site_hse06_bader_spin_density
 _atom_site_hse06_ddec_charge
 _atom_site_hse06_ddec_spin_density
 _atom_site_hse06_ddec_sum_bond_order
 _atom_site_hse06_magmom
 _atom_site_pbe_bader_spin_density
 _atom_site_pbe_cm5_charge
 _atom_site_pbe_ddec_charge
 _atom_site_pbe_ddec_spin_density
 _atom_site_pbe_ddec_sum_bond_order
 _atom_site_pbe_magmom
Ag  Ag0  1  0.80448032  0.10800742  0.62670007  1  0  0.581442  0  1.327256  0  0  0.448946  0  1.752169  0  0  0.482734  0  1.705718  0  0  0.463121  0.424204  0  1.785629  0
Ag  Ag1  1  0.30447810  0.39199077  0.87329926  1  0  0.581451  0  1.327277  0  0  0.448986  0  1.75217  0  0  0.482774  0  1.705719  0  0  0.463147  0.424241  0  1.785629  0
Ag  Ag2  1  0.19551603  0.89198922  0.37329903  1  0  0.581449  0  1.327275  0  0  0.448983  0  1.752178  0  0  0.482773  0  1.705722  0  0  0.463132  0.424224  0  1.785624  0
Ag  Ag3  1  0.69551683  0.60801009  0.12670021  1  0  0.581445  0  1.327259  0  0  0.448977  0  1.75216  0  0  0.482765  0  1.705709  0  0  0.463134  0.424216  0  1.785603  0
H  H4  1  0.11016945  0.41700686  0.38450517  1  0  0.116866  0  0.949089  0  0  0.127806  0  1.007567  0  0  0.131434  0  1.005934  0  0  0.107221  0.125216  0  1.008779  0
H  H5  1  0.61017293  0.08299493  0.11549652  1  0  0.116885  0  0.949075  0  0  0.127823  0  1.007546  0  0  0.131444  0  1.005918  0  0  0.10721  0.125231  0  1.008761  0
H  H6  1  0.88982689  0.58300135  0.61549734  1  0  0.116818  0  0.949156  0  0  0.12779  0  1.007598  0  0  0.131407  0  1.005976  0  0  0.10719  0.125199  0  1.008819  0
H  H7  1  0.38983191  0.91700385  0.88450063  1  0  0.116876  0  0.949069  0  0  0.127806  0  1.007557  0  0  0.131425  0  1.005934  0  0  0.107199  0.125214  0  1.008782  0
H  H8  1  0.60634547  0.78934918  0.74969699  1  0  0.34988  0  0.893869  0  0  0.329687  0  0.955578  0  0  0.338326  0  0.948269  0  0  0.305256  0.323643  0  0.960503  0
H  H9  1  0.10634467  0.71065199  0.75030172  1  0  0.349871  0  0.89385  0  0  0.329694  0  0.955538  0  0  0.338333  0  0.948227  0  0  0.305252  0.32365  0  0.96046  0
H  H10  1  0.39365654  0.21065061  0.25030304  1  0  0.349879  0  0.893857  0  0  0.329697  0  0.955551  0  0  0.338336  0  0.948239  0  0  0.305235  0.323648  0  0.960475  0
H  H11  1  0.89365734  0.28935098  0.24969752  1  0  0.349866  0  0.893876  0  0  0.329719  0  0.955531  0  0  0.338359  0  0.948219  0  0  0.305239  0.32367  0  0.960456  0
H  H12  1  0.66891822  0.95637615  0.74819707  1  0  0.315188  0  0.922117  0  0  0.296692  0  0.992721  0  0  0.303754  0  0.986619  0  0  0.300288  0.291497  0  0.997515  0
H  H13  1  0.16891825  0.54362311  0.75180122  1  0  0.315195  0  0.922104  0  0  0.296697  0  0.992714  0  0  0.303758  0  0.986612  0  0  0.300282  0.291499  0  0.997509  0
H  H14  1  0.33108379  0.04362154  0.25180320  1  0  0.315152  0  0.922183  0  0  0.296656  0  0.992778  0  0  0.303717  0  0.986675  0  0  0.300243  0.291456  0  0.997564  0
H  H15  1  0.83108801  0.45637881  0.24819771  1  0  0.315141  0  0.922187  0  0  0.296658  0  0.992756  0  0  0.303719  0  0.986653  0  0  0.300259  0.291459  0  0.997541  0
H  H16  1  0.50988340  0.46145983  0.25095741  1  0  0.325588  0  0.931479  0  0  0.304969  0  1.001827  0  0  0.313009  0  0.994203  0  0  0.297661  0.298962  0  1.007892  0
H  H17  1  0.00988340  0.03853642  0.24904155  1  0  0.325606  0  0.931465  0  0  0.304977  0  1.001832  0  0  0.313018  0  0.994209  0  0  0.297661  0.29897  0  1.007903  0
H  H18  1  0.49012144  0.53853997  0.74904262  1  0  0.325613  0  0.93145  0  0  0.304988  0  1.001812  0  0  0.31303  0  0.994186  0  0  0.297662  0.298985  0  1.007881  0
H  H19  1  0.99011861  0.96146021  0.75095840  1  0  0.325618  0  0.931457  0  0  0.305  0  1.001798  0  0  0.313042  0  0.994171  0  0  0.297671  0.298995  0  1.007871  0
H  H20  1  0.48920706  0.43779834  0.39440418  1  0  0.33166  0  0.935462  0  0  0.305687  0  1.005649  0  0  0.315154  0  0.997923  0  0  0.293834  0.298961  0  1.01108  0
H  H21  1  0.98920615  0.06220038  0.10559575  1  0  0.331664  0  0.935473  0  0  0.305695  0  1.005643  0  0  0.315163  0  0.997911  0  0  0.29385  0.298975  0  1.011067  0
H  H22  1  0.51079354  0.56220040  0.60559553  1  0  0.331647  0  0.935499  0  0  0.305681  0  1.00567  0  0  0.315149  0  0.997939  0  0  0.293838  0.298962  0  1.011095  0
H  H23  1  0.01079303  0.93780047  0.89440459  1  0  0.331655  0  0.935506  0  0  0.305685  0  1.005681  0  0  0.315153  0  0.997951  0  0  0.293843  0.298966  0  1.011105  0
H  H24  1  0.69312529  0.90317334  0.24288838  1  0  0.351533  0  0.909427  0  0  0.33037  0  0.974078  0  0  0.338891  0  0.967102  0  0  0.301192  0.324369  0  0.978944  0
H  H25  1  0.19312413  0.59682494  0.25710883  1  0  0.351549  0  0.90941  0  0  0.330394  0  0.974042  0  0  0.338913  0  0.967072  0  0  0.301211  0.324393  0  0.978912  0
H  H26  1  0.30687813  0.09682751  0.75711196  1  0  0.351508  0  0.909454  0  0  0.33035  0  0.974098  0  0  0.338871  0  0.967125  0  0  0.301202  0.324347  0  0.978967  0
H  H27  1  0.80687929  0.40317172  0.74288855  1  0  0.351543  0  0.909406  0  0  0.330381  0  0.974061  0  0  0.338901  0  0.967089  0  0  0.301211  0.32438  0  0.978935  0
H  H28  1  0.76244922  0.03865602  0.37674787  1  0  0.331354  0  0.929595  0  0  0.304711  0  1.009456  0  0  0.314809  0  0.998842  0  0  0.289207  0.297503  0  1.017027  0
H  H29  1  0.26244992  0.46134309  0.12325166  1  0  0.331338  0  0.929589  0  0  0.304693  0  1.009444  0  0  0.31479  0  0.998836  0  0  0.289202  0.297486  0  1.017011  0
H  H30  1  0.23754712  0.96134693  0.62325309  1  0  0.331332  0  0.929579  0  0  0.304715  0  1.009402  0  0  0.314811  0  0.998798  0  0  0.28923  0.297511  0  1.016968  0
H  H31  1  0.73754926  0.53865353  0.87674915  1  0  0.331301  0  0.929625  0  0  0.304688  0  1.009449  0  0  0.314788  0  0.998837  0  0  0.289197  0.297484  0  1.017014  0
C  C32  1  0.62663102  0.81242190  0.57962801  1  0  0.692586  0  3.863904  0  0  0.63502  0  4.143938  0  0  0.665725  0  4.148287  0  0  0.346327  0.614413  0  4.140194  0
C  C33  1  0.12663262  0.68757932  0.92037162  1  0  0.692632  0  3.863893  0  0  0.635052  0  4.143945  0  0  0.665755  0  4.148294  0  0  0.346336  0.614437  0  4.140208  0
C  C34  1  0.37336816  0.18758203  0.42037926  1  0  0.692623  0  3.863887  0  0  0.635021  0  4.143959  0  0  0.665728  0  4.148302  0  0  0.346339  0.614413  0  4.140205  0
C  C35  1  0.87336797  0.31241842  0.07962349  1  0  0.692597  0  3.863939  0  0  0.63502  0  4.143999  0  0  0.665724  0  4.148345  0  0  0.346351  0.614405  0  4.140252  0
C  C36  1  0.57169078  0.63575797  0.39979122  1  0  0.688133  0  3.879435  0  0  0.629733  0  4.161853  0  0  0.660146  0  4.166272  0  0  0.34405  0.609318  0  4.158083  0
C  C37  1  0.07169382  0.86424203  0.10020794  1  0  0.688128  0  3.87944  0  0  0.629697  0  4.161867  0  0  0.660108  0  4.166289  0  0  0.344024  0.609276  0  4.158106  0
C  C38  1  0.42830698  0.36424076  0.60020936  1  0  0.688173  0  3.879415  0  0  0.629778  0  4.161794  0  0  0.66019  0  4.166212  0  0  0.344043  0.60935  0  4.158056  0
C  C39  1  0.92830394  0.13575885  0.89978982  1  0  0.688219  0  3.879354  0  0  0.629799  0  4.161763  0  0  0.660211  0  4.166181  0  0  0.34403  0.609379  0  4.158016  0
C  C40  1  0.67594272  0.85135035  0.39712149  1  0  0.683989  0  3.862801  0  0  0.626073  0  4.145668  0  0  0.657733  0  4.149438  0  0  0.339629  0.604165  0  4.143118  0
C  C41  1  0.17594501  0.64864680  0.10287707  1  0  0.684065  0  3.862702  0  0  0.626144  0  4.145569  0  0  0.657803  0  4.14934  0  0  0.339682  0.604242  0  4.143007  0
C  C42  1  0.32405363  0.14865049  0.60287884  1  0  0.683993  0  3.86273  0  0  0.626112  0  4.145559  0  0  0.657771  0  4.149326  0  0  0.339644  0.604209  0  4.143009  0
C  C43  1  0.82405275  0.35134982  0.89712374  1  0  0.683979  0  3.862721  0  0  0.626068  0  4.145587  0  0  0.657728  0  4.149358  0  0  0.339661  0.604163  0  4.143036  0
C  C44  1  0.92964211  0.30668012  0.47855649  1  0  0.691124  0  3.907926  0  0  0.637841  0  4.207302  0  0  0.672338  0  4.19962  0  0  0.198378  0.614031  0  4.212027  0
C  C45  1  0.42964546  0.19331946  0.02144528  1  0  0.691016  0  3.908011  0  0  0.637728  0  4.207402  0  0  0.672221  0  4.199724  0  0  0.198352  0.613914  0  4.212131  0
C  C46  1  0.07035707  0.69332276  0.52145047  1  0  0.691123  0  3.907858  0  0  0.63785  0  4.207242  0  0  0.672346  0  4.199564  0  0  0.1984  0.614037  0  4.211968  0
C  C47  1  0.57036221  0.80667937  0.97854757  1  0  0.691106  0  3.907881  0  0  0.637761  0  4.207348  0  0  0.672261  0  4.199665  0  0  0.198314  0.613941  0  4.212082  0
C  C48  1  0.01806573  0.43442122  0.46341790  1  0  -0.17318  0  3.666392  0  0  -0.189621  0  3.92067  0  0  -0.194514  0  3.934902  0  0  -0.095576  -0.186227  0  3.911061  0
C  C49  1  0.51807006  0.06557819  0.03658373  1  0  -0.173248  0  3.666619  0  0  -0.189695  0  3.920888  0  0  -0.194584  0  3.935126  0  0  -0.095609  -0.186296  0  3.911277  0
C  C50  1  0.98193204  0.56558062  0.53658789  1  0  -0.173279  0  3.666503  0  0  -0.189778  0  3.920803  0  0  -0.194667  0  3.935042  0  0  -0.095628  -0.186381  0  3.911201  0
C  C51  1  0.48193479  0.93442270  0.96341318  1  0  -0.173228  0  3.666602  0  0  -0.189659  0  3.920888  0  0  -0.194549  0  3.935126  0  0  -0.09554  -0.186259  0  3.911285  0
N  N52  1  0.68449222  0.90264566  0.52139293  1  0  -0.645008  0  3.164091  0  0  -0.559312  0  3.463766  0  0  -0.592179  0  3.47014  0  0  -0.383917  -0.536412  0  3.459251  0
N  N53  1  0.18449387  0.59735364  0.97860541  1  0  -0.645032  0  3.163995  0  0  -0.559389  0  3.46376  0  0  -0.592259  0  3.47014  0  0  -0.383964  -0.536487  0  3.459241  0
N  N54  1  0.31550554  0.09735308  0.47860764  1  0  -0.645065  0  3.164233  0  0  -0.559435  0  3.464012  0  0  -0.592303  0  3.470384  0  0  -0.383954  -0.536529  0  3.459486  0
N  N55  1  0.81550389  0.40264618  0.02139205  1  0  -0.645005  0  3.164153  0  0  -0.559369  0  3.46392  0  0  -0.592236  0  3.470297  0  0  -0.383938  -0.536451  0  3.45938  0
N  N56  1  0.56811535  0.68052490  0.52259407  1  0  -0.615927  0  3.003079  0  0  -0.552286  0  3.255364  0  0  -0.578638  0  3.261857  0  0  -0.35001  -0.53419  0  3.250468  0
N  N57  1  0.06811920  0.81947509  0.97740592  1  0  -0.615968  0  3.003183  0  0  -0.552283  0  3.255449  0  0  -0.578634  0  3.261941  0  0  -0.350019  -0.53418  0  3.250551  0
N  N58  1  0.43188099  0.31947385  0.47740479  1  0  -0.615962  0  3.003229  0  0  -0.55226  0  3.25547  0  0  -0.578611  0  3.261963  0  0  -0.350013  -0.534156  0  3.250573  0
N  N59  1  0.93187998  0.18052677  0.02259815  1  0  -0.615929  0  3.003111  0  0  -0.552245  0  3.25536  0  0  -0.578593  0  3.261848  0  0  -0.349983  -0.534145  0  3.250466  0
N  N60  1  0.62493414  0.71705673  0.33258291  1  0  -0.649736  0  3.094168  0  0  -0.572388  0  3.390038  0  0  -0.602356  0  3.392707  0  0  -0.378088  -0.55141  0  3.387859  0
N  N61  1  0.12493448  0.78294238  0.16741611  1  0  -0.649785  0  3.094024  0  0  -0.572393  0  3.389858  0  0  -0.60236  0  3.392527  0  0  -0.378081  -0.551416  0  3.387682  0
N  N62  1  0.37506646  0.28294518  0.66741687  1  0  -0.649784  0  3.094229  0  0  -0.572442  0  3.390081  0  0  -0.602407  0  3.392745  0  0  -0.378086  -0.551466  0  3.387924  0
N  N63  1  0.87506328  0.21705320  0.83258354  1  0  -0.649807  0  3.094147  0  0  -0.572424  0  3.389991  0  0  -0.60239  0  3.392658  0  0  -0.3781  -0.551455  0  3.387837  0
N  N64  1  0.62545509  0.85725838  0.70153927  1  0  -0.683948  0  3.120101  0  0  -0.644612  0  3.360879  0  0  -0.666095  0  3.355209  0  0  -0.574264  -0.629635  0  3.364348  0
N  N65  1  0.12545718  0.64274283  0.79846122  1  0  -0.683952  0  3.120102  0  0  -0.644619  0  3.360857  0  0  -0.666101  0  3.355186  0  0  -0.574243  -0.629641  0  3.364322  0
N  N66  1  0.37454267  0.14273933  0.29845842  1  0  -0.683977  0  3.119899  0  0  -0.644633  0  3.36066  0  0  -0.666115  0  3.354988  0  0  -0.574248  -0.629649  0  3.364108  0
N  N67  1  0.87454483  0.35726219  0.20154293  1  0  -0.683965  0  3.119997  0  0  -0.644668  0  3.360719  0  0  -0.666149  0  3.355047  0  0  -0.574299  -0.629686  0  3.364169  0
N  N68  1  0.52136456  0.50248938  0.34329928  1  0  -0.689244  0  3.122363  0  0  -0.643645  0  3.36484  0  0  -0.665965  0  3.358508  0  0  -0.574272  -0.628293  0  3.3692  0
N  N69  1  0.02136701  0.99750941  0.15670027  1  0  -0.689232  0  3.122356  0  0  -0.643624  0  3.364851  0  0  -0.665944  0  3.358518  0  0  -0.574263  -0.628277  0  3.369213  0
N  N70  1  0.47863603  0.49750937  0.65669958  1  0  -0.689238  0  3.122333  0  0  -0.643645  0  3.36481  0  0  -0.665966  0  3.358477  0  0  -0.574246  -0.628296  0  3.369179  0
N  N71  1  0.97863358  0.00248933  0.84330030  1  0  -0.689284  0  3.122317  0  0  -0.643685  0  3.364803  0  0  -0.666007  0  3.358471  0  0  -0.574273  -0.628336  0  3.369173  0
N  N72  1  0.72178658  0.93601575  0.33450381  1  0  -0.701479  0  3.131505  0  0  -0.659532  0  3.382578  0  0  -0.681798  0  3.373715  0  0  -0.575845  -0.643951  0  3.388525  0
N  N73  1  0.22178755  0.56398259  0.16549521  1  0  -0.701481  0  3.131463  0  0  -0.659554  0  3.382599  0  0  -0.681812  0  3.373725  0  0  -0.575875  -0.643977  0  3.38854  0
N  N74  1  0.27820977  0.06398615  0.66549684  1  0  -0.701398  0  3.131472  0  0  -0.659495  0  3.382541  0  0  -0.681759  0  3.373676  0  0  -0.575866  -0.643908  0  3.388488  0
N  N75  1  0.77820880  0.43601299  0.83450443  1  0  -0.701366  0  3.131484  0  0  -0.659467  0  3.382546  0  0  -0.68173  0  3.373677  0  0  -0.575827  -0.643883  0  3.388494  0
O  O76  1  0.89325073  0.30758070  0.58644221  1  0  -0.642593  0  2.05565  0  0  -0.56474  0  2.315621  0  0  -0.595119  0  2.30532  0  0  -0.332778  -0.543176  0  2.322122  0
O  O77  1  0.39325231  0.19241878  0.91355943  1  0  -0.642513  0  2.05564  0  0  -0.564643  0  2.315615  0  0  -0.595021  0  2.305319  0  0  -0.332736  -0.543077  0  2.322114  0
O  O78  1  0.10674561  0.69241909  0.41355868  1  0  -0.642553  0  2.055446  0  0  -0.564704  0  2.315441  0  0  -0.595086  0  2.305145  0  0  -0.332756  -0.543132  0  2.321933  0
O  O79  1  0.60675394  0.80758104  0.08643888  1  0  -0.642609  0  2.055434  0  0  -0.564732  0  2.315469  0  0  -0.595112  0  2.305169  0  0  -0.332794  -0.543156  0  2.32196  0
O  O80  1  0.89674652  0.20494655  0.38110409  1  0  -0.658172  0  1.958837  0  0  -0.59134  0  2.183133  0  0  -0.617338  0  2.17303  0  0  -0.321382  -0.572926  0  2.189884  0
O  O81  1  0.39675085  0.29505294  0.11889672  1  0  -0.65815  0  1.958902  0  0  -0.591328  0  2.183204  0  0  -0.61732  0  2.173098  0  0  -0.321408  -0.572913  0  2.189955  0
O  O82  1  0.10324983  0.79505428  0.61889797  1  0  -0.658159  0  1.959016  0  0  -0.591352  0  2.183326  0  0  -0.617334  0  2.173193  0  0  -0.321411  -0.572946  0  2.190084  0
O  O83  1  0.60325541  0.70495007  0.88109909  1  0  -0.658139  0  1.95901  0  0  -0.591301  0  2.183358  0  0  -0.617288  0  2.173214  0  0  -0.321351  -0.572892  0  2.19012  0
