# generated using pymatgen
data_RbH7C14(NO3)4
_symmetry_space_group_name_H-M   'P 1'
_cell_length_a   9.40910836
_cell_length_b   9.80387638
_cell_length_c   11.51754556
_cell_angle_alpha   68.00567378
_cell_angle_beta   83.61866343
_cell_angle_gamma   68.18463907
_symmetry_Int_Tables_number   1
_chemical_formula_structural   RbH7C14(NO3)4
_chemical_formula_sum   'Rb2 H14 C28 N8 O24'
_cell_volume   914.08753624
_cell_formula_units_Z   2
loop_
 _symmetry_equiv_pos_site_id
 _symmetry_equiv_pos_as_xyz
  1  'x, y, z'
loop_
 _atom_site_type_symbol
 _atom_site_label
 _atom_site_symmetry_multiplicity
 _atom_site_fract_x
 _atom_site_fract_y
 _atom_site_fract_z
 _atom_site_occupancy
 _atom_site_hle17_bader_spin_density
 _atom_site_hle17_ddec_charge
 _atom_site_hle17_ddec_spin_density
 _atom_site_hle17_ddec_sum_bond_order
 _atom_site_hle17_magmom
 _atom_site_hse06_10hf_bader_spin_density
 _atom_site_hse06_10hf_ddec_charge
 _atom_site_hse06_10hf_ddec_spin_density
 _atom_site_hse06_10hf_ddec_sum_bond_order
 _atom_site_hse06_10hf_magmom
 _atom_site_hse06_bader_spin_density
 _atom_site_hse06_ddec_charge
 _atom_site_hse06_ddec_spin_density
 _atom_site_hse06_ddec_sum_bond_order
 _atom_site_hse06_magmom
 _atom_site_pbe_bader_spin_density
 _atom_site_pbe_cm5_charge
 _atom_site_pbe_ddec_charge
 _atom_site_pbe_ddec_spin_density
 _atom_site_pbe_ddec_sum_bond_order
 _atom_site_pbe_magmom
Rb  Rb0  1  0.60295712  0.23241438  0.63098800  1  0  0.918948  0  0.516491  0  0  0.85735  0  0.743652  0  0  0.87421  0  0.717497  0  0  0.827766  0.845027  0  0.762132  0
Rb  Rb1  1  0.39704188  0.76758698  0.36901149  1  0  0.918972  0  0.516423  0  0  0.85735  0  0.743658  0  0  0.874206  0  0.71753  0  0  0.827773  0.845027  0  0.762137  0
H  H2  1  0.71359174  0.46908568  0.65549787  1  0  0.391901  0  0.916319  0  0  0.358637  0  0.997958  0  0  0.373287  0  0.981546  0  0  0.287674  0.348445  0  1.007824  0
H  H3  1  0.28640916  0.53091334  0.34450219  1  0  0.391903  0  0.916321  0  0  0.358637  0  0.997949  0  0  0.373288  0  0.981543  0  0  0.287674  0.348446  0  1.007815  0
H  H4  1  0.18665492  0.79180486  0.67236450  1  0  0.127914  0  0.933753  0  0  0.132276  0  1.000823  0  0  0.136443  0  0.996911  0  0  0.123793  0.129309  0  1.003575  0
H  H5  1  0.81334366  0.20819768  0.32763465  1  0  0.127946  0  0.933664  0  0  0.132307  0  1.000761  0  0  0.136474  0  0.996843  0  0  0.12379  0.129343  0  1.00351  0
H  H6  1  0.18103482  0.98769544  0.95344621  1  0  0.148684  0  0.960622  0  0  0.14572  0  1.038331  0  0  0.150642  0  1.033267  0  0  0.124661  0.142167  0  1.042099  0
H  H7  1  0.81896566  0.01230475  0.04655352  1  0  0.1487  0  0.960603  0  0  0.145741  0  1.038291  0  0  0.150645  0  1.033205  0  0  0.124677  0.142188  0  1.042058  0
H  H8  1  0.58222507  0.60872886  0.91555124  1  0  0.1261  0  0.951392  0  0  0.128237  0  1.025251  0  0  0.132676  0  1.020647  0  0  0.118941  0.124958  0  1.028624  0
H  H9  1  0.41777434  0.39127133  0.08444771  1  0  0.126124  0  0.951393  0  0  0.128253  0  1.025251  0  0  0.132673  0  1.020639  0  0  0.118933  0.124957  0  1.028639  0
H  H10  1  0.80955128  0.70184655  0.23177139  1  0  0.132907  0  0.930729  0  0  0.134162  0  1.001356  0  0  0.139307  0  0.995796  0  0  0.126955  0.130343  0  1.005438  0
H  H11  1  0.19044920  0.29815364  0.76822920  1  0  0.132871  0  0.930763  0  0  0.134121  0  1.001387  0  0  0.139263  0  0.995798  0  0  0.126943  0.130301  0  1.005468  0
H  H12  1  0.20692584  0.34957765  0.15486548  1  0  0.141794  0  0.943797  0  0  0.141245  0  1.017746  0  0  0.146201  0  1.011769  0  0  0.127926  0.137651  0  1.02216  0
H  H13  1  0.79307399  0.65042135  0.84513468  1  0  0.141741  0  0.943776  0  0  0.141214  0  1.017742  0  0  0.14617  0  1.011777  0  0  0.127911  0.137619  0  1.022156  0
H  H14  1  0.01699504  0.24870715  0.52196424  1  0  0.134112  0  0.935446  0  0  0.135759  0  1.004942  0  0  0.140233  0  1.000837  0  0  0.124605  0.132682  0  1.007604  0
H  H15  1  0.98300651  0.75129305  0.47803538  1  0  0.134106  0  0.935415  0  0  0.135825  0  1.004863  0  0  0.140299  0  1.000757  0  0  0.124637  0.132752  0  1.007516  0
C  C16  1  0.39462318  0.69000692  0.78526238  1  0  -0.032724  0  3.679271  0  0  -0.007209  0  3.913125  0  0  -0.017083  0  3.934093  0  0  0.001796  -0.001111  0  3.899042  0
C  C17  1  0.60537688  0.30999445  0.21473702  1  0  -0.032718  0  3.679313  0  0  -0.007173  0  3.913091  0  0  -0.017047  0  3.933984  0  0  0.001816  -0.001072  0  3.899006  0
C  C18  1  0.24428656  0.79302871  0.74849232  1  0  -0.027933  0  3.612468  0  0  -0.06965  0  3.865392  0  0  -0.063024  0  3.87884  0  0  -0.041852  -0.073886  0  3.856589  0
C  C19  1  0.75571244  0.20697266  0.25150717  1  0  -0.027991  0  3.612408  0  0  -0.069705  0  3.865376  0  0  -0.063078  0  3.87874  0  0  -0.041861  -0.073942  0  3.85658  0
C  C20  1  0.17040658  0.89830886  0.80960448  1  0  0.072729  0  3.679041  0  0  0.067849  0  3.937544  0  0  0.062273  0  3.958899  0  0  0.0843  0.071137  0  3.923538  0
C  C21  1  0.82959242  0.10169250  0.19039501  1  0  0.072754  0  3.679058  0  0  0.067848  0  3.937568  0  0  0.062268  0  3.958821  0  0  0.084315  0.071137  0  3.923568  0
C  C22  1  0.23998843  0.90468630  0.90696498  1  0  -0.089192  0  3.629536  0  0  -0.129683  0  3.889589  0  0  -0.124676  0  3.903186  0  0  -0.051731  -0.132566  0  3.87998  0
C  C23  1  0.76001122  0.09531625  0.09303407  1  0  -0.089197  0  3.629524  0  0  -0.129662  0  3.889571  0  0  -0.124904  0  3.904204  0  0  -0.05176  -0.132542  0  3.879959  0
C  C24  1  0.38843652  0.79794154  0.94306829  1  0  0.09076  0  3.673003  0  0  0.078412  0  3.922512  0  0  0.077841  0  3.947962  0  0  0.087932  0.081646  0  3.907337  0
C  C25  1  0.61156289  0.20205864  0.05693153  1  0  0.090788  0  3.672925  0  0  0.078413  0  3.92247  0  0  0.072704  0  3.944923  0  0  0.087977  0.08165  0  3.907294  0
C  C26  1  0.46634086  0.69076803  0.88475766  1  0  -0.047641  0  3.63261  0  0  -0.092109  0  3.893344  0  0  -0.086684  0  3.908335  0  0  -0.049187  -0.094482  0  3.8819  0
C  C27  1  0.53365707  0.30923332  0.11524193  1  0  -0.047633  0  3.632629  0  0  -0.09213  0  3.893336  0  0  -0.086954  0  3.909398  0  0  -0.049192  -0.094486  0  3.881901  0
C  C28  1  0.48217542  0.58331408  0.71440629  1  0  0.650881  0  3.922325  0  0  0.600773  0  4.222721  0  0  0.634945  0  4.215657  0  0  0.205535  0.57777  0  4.226589  0
C  C29  1  0.51782251  0.41668728  0.28559155  1  0  0.650851  0  3.922333  0  0  0.600776  0  4.222662  0  0  0.634948  0  4.21562  0  0  0.20554  0.577773  0  4.226533  0
C  C30  1  0.90072024  0.48069713  0.38641640  1  0  -0.04518  0  3.701584  0  0  -0.020251  0  3.93797  0  0  -0.031187  0  3.961264  0  0  0.002325  -0.013759  0  3.92248  0
C  C31  1  0.09928024  0.51930306  0.61358333  1  0  -0.045171  0  3.701539  0  0  -0.020239  0  3.938045  0  0  -0.031176  0  3.961338  0  0  0.002348  -0.013747  0  3.922548  0
C  C32  1  0.89710294  0.58461410  0.26308153  1  0  -0.029026  0  3.598641  0  0  -0.074311  0  3.856423  0  0  -0.067818  0  3.869262  0  0  -0.038675  -0.076984  0  3.846134  0
C  C33  1  0.10289861  0.41538609  0.73691897  1  0  -0.028995  0  3.598498  0  0  -0.074245  0  3.856363  0  0  -0.06775  0  3.869168  0  0  -0.038666  -0.076918  0  3.84607  0
C  C34  1  0.00698830  0.53486529  0.18186457  1  0  0.094439  0  3.671417  0  0  0.08295  0  3.923111  0  0  0.082511  0  3.946828  0  0  0.088323  0.085884  0  3.908799  0
C  C35  1  0.99301366  0.46513372  0.81813626  1  0  0.094386  0  3.671326  0  0  0.082883  0  3.923141  0  0  0.082452  0  3.946843  0  0  0.088257  0.085816  0  3.908828  0
C  C36  1  0.12190937  0.38669517  0.21920458  1  0  -0.073904  0  3.647388  0  0  -0.122002  0  3.920123  0  0  -0.1147  0  3.930607  0  0  -0.049747  -0.12702  0  3.912969  0
C  C37  1  0.87809152  0.61330384  0.78079548  1  0  -0.07443  0  3.649638  0  0  -0.121953  0  3.920058  0  0  -0.114653  0  3.930548  0  0  -0.049708  -0.126971  0  3.912901  0
C  C38  1  0.12279575  0.28707329  0.34233481  1  0  0.091127  0  3.686347  0  0  0.080282  0  3.936167  0  0  0.074614  0  3.957703  0  0  0.090198  0.083718  0  3.92237  0
C  C39  1  0.87720515  0.71292572  0.65766525  1  0  0.081686  0  3.681377  0  0  0.080311  0  3.936204  0  0  0.074643  0  3.957741  0  0  0.090217  0.083746  0  3.922403  0
C  C40  1  0.01301757  0.32996680  0.42632807  1  0  -0.048252  0  3.618651  0  0  -0.090831  0  3.876335  0  0  -0.08518  0  3.89105  0  0  -0.048928  -0.094254  0  3.866256  0
C  C41  1  0.98698332  0.67003222  0.57367199  1  0  -0.048836  0  3.620853  0  0  -0.090972  0  3.87643  0  0  -0.085321  0  3.891145  0  0  -0.048998  -0.094395  0  3.866353  0
C  C42  1  0.78768382  0.53678416  0.47636506  1  0  0.663777  0  3.858711  0  0  0.615672  0  4.155059  0  0  0.648946  0  4.148429  0  0  0.221962  0.593211  0  4.158536  0
C  C43  1  0.21231773  0.46321604  0.52363370  1  0  0.663847  0  3.858619  0  0  0.615732  0  4.154976  0  0  0.649006  0  4.148344  0  0  0.221985  0.593271  0  4.158454  0
N  N44  1  0.01201369  0.00635141  0.77176750  1  0  0.512489  0  3.894982  0  0  0.540283  0  4.194236  0  0  0.562224  0  4.201533  0  0  0.060024  0.525571  0  4.18937  0
N  N45  1  0.98798531  0.99364995  0.22823286  1  0  0.512436  0  3.895004  0  0  0.540226  0  4.19426  0  0  0.562169  0  4.201537  0  0  0.060018  0.525515  0  4.189397  0
N  N46  1  0.46626547  0.79914008  0.04617345  1  0  0.473805  0  3.951467  0  0  0.537144  0  4.199118  0  0  0.540265  0  4.237375  0  0  0.054834  0.522854  0  4.193015  0
N  N47  1  0.53373223  0.20085891  0.95382778  1  0  0.47378  0  3.951567  0  0  0.537119  0  4.199238  0  0  0.558663  0  4.208016  0  0  0.054839  0.522828  0  4.193135  0
N  N48  1  0.00544729  0.64136522  0.05184764  1  0  0.476457  0  3.939724  0  0  0.533056  0  4.192138  0  0  0.536915  0  4.229363  0  0  0.061855  0.518879  0  4.185591  0
N  N49  1  0.99455254  0.35863379  0.94815339  1  0  0.476493  0  3.93969  0  0  0.533085  0  4.19214  0  0  0.536933  0  4.229367  0  0  0.061887  0.51891  0  4.185594  0
N  N50  1  0.24651773  0.13309519  0.38484703  1  0  0.478749  0  3.954932  0  0  0.540091  0  4.197424  0  0  0.562236  0  4.20507  0  0  0.041942  0.525153  0  4.192653  0
N  N51  1  0.75348382  0.86690501  0.61515260  1  0  0.513253  0  3.90094  0  0  0.540145  0  4.197351  0  0  0.562291  0  4.204995  0  0  0.04194  0.525207  0  4.19258  0
O  O52  1  0.62566921  0.50788391  0.74649046  1  0  -0.623126  0  2.008015  0  0  -0.572231  0  2.237198  0  0  -0.599695  0  2.228902  0  0  -0.33517  -0.552875  0  2.241714  0
O  O53  1  0.37433127  0.49211628  0.25350926  1  0  -0.623063  0  2.008153  0  0  -0.572188  0  2.237316  0  0  -0.599648  0  2.228993  0  0  -0.335129  -0.55283  0  2.241831  0
O  O54  1  0.41429648  0.57690984  0.63003439  1  0  -0.66743  0  1.953141  0  0  -0.62708  0  2.1934  0  0  -0.651147  0  2.186145  0  0  -0.411212  -0.610171  0  2.197797  0
O  O55  1  0.58570293  0.42309034  0.36996631  1  0  -0.667463  0  1.952975  0  0  -0.627129  0  2.193232  0  0  -0.651198  0  2.185998  0  0  -0.411254  -0.610217  0  2.19763  0
O  O56  1  0.94824844  0.99610562  0.68783879  1  0  -0.389869  0  1.773517  0  0  -0.379015  0  1.996243  0  0  -0.393421  0  1.993179  0  0  -0.151092  -0.369436  0  1.99848  0
O  O57  1  0.05175056  0.00389575  0.31216070  1  0  -0.389669  0  1.77299  0  0  -0.378982  0  1.996276  0  0  -0.393389  0  1.993215  0  0  -0.151077  -0.369392  0  1.998493  0
O  O58  1  0.94996217  0.10217871  0.82455288  1  0  -0.344974  0  1.749258  0  0  -0.328025  0  1.956774  0  0  -0.340074  0  1.953476  0  0  -0.116089  -0.32016  0  1.959274  0
O  O59  1  0.05003576  0.89782264  0.17544758  1  0  -0.344968  0  1.749211  0  0  -0.328022  0  1.956725  0  0  -0.340075  0  1.953437  0  0  -0.116105  -0.320158  0  1.959227  0
O  O60  1  0.39917265  0.90326221  0.09089045  1  0  -0.371154  0  1.778149  0  0  -0.372801  0  1.978916  0  0  -0.379347  0  1.983415  0  0  -0.171727  -0.363879  0  1.981969  0
O  O61  1  0.60082268  0.09673440  0.90911261  1  0  -0.371192  0  1.778244  0  0  -0.372836  0  1.979021  0  0  -0.385775  0  1.974337  0  0  -0.171749  -0.363914  0  1.982073  0
O  O62  1  0.59395831  0.69622623  0.08335514  1  0  -0.332291  0  1.770884  0  0  -0.327034  0  1.963647  0  0  -0.33367  0  1.970336  0  0  -0.111898  -0.31832  0  1.965393  0
O  O63  1  0.40604175  0.30377514  0.91664338  1  0  -0.332255  0  1.770936  0  0  -0.326992  0  1.963693  0  0  -0.339993  0  1.961151  0  0  -0.11189  -0.318279  0  1.965441  0
O  O64  1  0.79509387  0.42671387  0.58704789  1  0  -0.605133  0  2.130995  0  0  -0.554691  0  2.366531  0  0  -0.580683  0  2.354569  0  0  -0.373102  -0.536517  0  2.373124  0
O  O65  1  0.20490661  0.57328632  0.41295357  1  0  -0.605161  0  2.131003  0  0  -0.554721  0  2.366523  0  0  -0.580713  0  2.354564  0  0  -0.37312  -0.536549  0  2.373116  0
O  O66  1  0.70112437  0.67642610  0.44566962  1  0  -0.607017  0  1.925003  0  0  -0.569047  0  2.147338  0  0  -0.590784  0  2.139474  0  0  -0.383106  -0.553628  0  2.15217  0
O  O67  1  0.29887653  0.32357292  0.55432958  1  0  -0.607007  0  1.924829  0  0  -0.569064  0  2.147276  0  0  -0.590802  0  2.139407  0  0  -0.383106  -0.553646  0  2.152106  0
O  O68  1  0.90068413  0.77180718  0.01581009  1  0  -0.33078  0  1.777738  0  0  -0.327597  0  1.976471  0  0  -0.333993  0  1.981386  0  0  -0.115329  -0.319129  0  1.979101  0
O  O69  1  0.09931529  0.22819301  0.98418973  1  0  -0.330786  0  1.777746  0  0  -0.327591  0  1.976469  0  0  -0.333979  0  1.981377  0  0  -0.11533  -0.319123  0  1.9791  0
O  O70  1  0.10985394  0.59364794  0.98454660  1  0  -0.352697  0  1.78755  0  0  -0.345286  0  1.987237  0  0  -0.35471  0  1.996861  0  0  -0.124607  -0.334722  0  1.986278  0
O  O71  1  0.89014589  0.40635106  0.01545356  1  0  -0.352682  0  1.787568  0  0  -0.345267  0  1.987245  0  0  -0.354688  0  1.996876  0  0  -0.124592  -0.334705  0  1.986289  0
O  O72  1  0.34940108  0.10411150  0.31026318  1  0  -0.365539  0  1.764647  0  0  -0.359609  0  1.95453  0  0  -0.373741  0  1.951204  0  0  -0.163712  -0.350405  0  1.957149  0
O  O73  1  0.65060153  0.89588870  0.68973809  1  0  -0.377386  0  1.747858  0  0  -0.359637  0  1.954489  0  0  -0.373769  0  1.951159  0  0  -0.163708  -0.350432  0  1.957106  0
O  O74  1  0.24220429  0.03931330  0.49194401  1  0  -0.343964  0  1.77272  0  0  -0.341445  0  1.966252  0  0  -0.354154  0  1.962364  0  0  -0.126198  -0.33312  0  1.969218  0
O  O75  1  0.75779513  0.96068688  0.50805581  1  0  -0.355782  0  1.755898  0  0  -0.34147  0  1.966221  0  0  -0.354178  0  1.962332  0  0  -0.126216  -0.333149  0  1.969199  0
