# generated using pymatgen
data_HgH33C41N3(ClO3)2
_symmetry_space_group_name_H-M   'P 1'
_cell_length_a   8.82109435
_cell_length_b   12.65862233
_cell_length_c   20.56082584
_cell_angle_alpha   73.40487364
_cell_angle_beta   87.26626106
_cell_angle_gamma   73.49917945
_symmetry_Int_Tables_number   1
_chemical_formula_structural   HgH33C41N3(ClO3)2
_chemical_formula_sum   'Hg2 H66 C82 N6 Cl4 O12'
_cell_volume   2108.23868589
_cell_formula_units_Z   2
loop_
 _symmetry_equiv_pos_site_id
 _symmetry_equiv_pos_as_xyz
  1  'x, y, z'
loop_
 _atom_site_type_symbol
 _atom_site_label
 _atom_site_symmetry_multiplicity
 _atom_site_fract_x
 _atom_site_fract_y
 _atom_site_fract_z
 _atom_site_occupancy
 _atom_site_pbe_bader_charge
 _atom_site_pbe_bader_spin_density
 _atom_site_pbe_cm5_charge
 _atom_site_pbe_ddec_charge
 _atom_site_pbe_ddec_spin_density
 _atom_site_pbe_ddec_sum_bond_order
 _atom_site_pbe_magmom
Hg  Hg0  1  0.87874650  0.26640350  0.71265848  1  0.84501  0  0.508709  0.507033  0  2.63343  0
Hg  Hg1  1  0.12125371  0.73359925  0.28734202  1  0.844985  0  0.508686  0.506982  0  2.633503  0
H  H2  1  0.78616562  0.22096210  0.56485229  1  0.119052  0  0.107564  0.084509  0  1.02753  0
H  H3  1  0.21383801  0.77903465  0.43514973  1  0.11903  0  0.107563  0.084511  0  1.02755  0
H  H4  1  0.61398060  0.13202245  0.51605999  1  0.13462  0  0.109435  0.116186  0  1.050445  0
H  H5  1  0.38602312  0.86797425  0.48394008  1  0.134637  0  0.109429  0.116157  0  1.050512  0
H  H6  1  0.37173939  0.08857857  0.70501653  1  0.136448  0  0.10828  0.111489  0  1.032941  0
H  H7  1  0.62826279  0.91141638  0.29498193  1  0.136416  0  0.10826  0.111481  0  1.032904  0
H  H8  1  0.55144933  0.18275919  0.74510958  1  0.129785  0  0.10734  0.083258  0  1.010348  0
H  H9  1  0.44855082  0.81723495  0.25489100  1  0.129688  0  0.107339  0.08321  0  1.010434  0
H  H10  1  0.02313306  0.04206854  0.59681641  1  0.122901  0  0.095823  0.112504  0  1.042938  0
H  H11  1  0.97686840  0.95792816  0.40318321  1  0.122807  0  0.095783  0.112457  0  1.042959  0
H  H12  1  0.86800120  0.92216532  0.56763655  1  0.048458  0  0.097839  0.102119  0  1.034679  0
H  H13  1  0.13199905  0.07783143  0.43236503  1  0.048455  0  0.097836  0.102066  0  1.034722  0
H  H14  1  0.29517672  0.64454362  0.58994278  1  0.061456  0  0.100099  0.107973  0  1.000192  0
H  H15  1  0.70482071  0.35545145  0.41006059  1  0.06159  0  0.100101  0.108013  0  1.000145  0
H  H16  1  0.85174796  0.74395484  0.55626307  1  0.030717  0  0.089194  0.136032  0  1.015071  0
H  H17  1  0.14824829  0.25604025  0.44374129  1  0.030696  0  0.089226  0.136076  0  1.015119  0
H  H18  1  0.99054964  0.62033559  0.60835086  1  0.047743  0  0.083916  0.123862  0  1.020043  0
H  H19  1  0.00945118  0.37965948  0.39165296  1  0.047856  0  0.083859  0.123743  0  1.02017  0
H  H20  1  0.01955748  0.66987807  0.52013917  1  0.065804  0  0.082052  0.131373  0  1.026191  0
H  H21  1  0.98043547  0.33011697  0.47986281  1  0.065761  0  0.08208  0.131394  0  1.026172  0
H  H22  1  0.55751713  0.80739088  0.57690308  1  0.085733  0  0.09953  0.110214  0  1.02176  0
H  H23  1  0.44248163  0.19260409  0.42309592  1  0.085692  0  0.099521  0.110183  0  1.021779  0
H  H24  1  0.53902884  0.66679373  0.60887538  1  0.03266  0  0.102441  0.114338  0  0.962678  0
H  H25  1  0.46096983  0.33320128  0.39112556  1  0.032734  0  0.102432  0.114366  0  0.96261  0
H  H26  1  0.84044651  0.50123336  0.76575708  1  0.117239  0  0.106564  0.080304  0  1.035438  0
H  H27  1  0.15954554  0.49877620  0.23423841  1  0.11746  0  0.106585  0.080363  0  1.035385  0
H  H28  1  0.98241602  0.64182859  0.77786551  1  0.12484  0  0.110794  0.116465  0  1.044044  0
H  H29  1  0.01757808  0.35817843  0.22213236  1  0.124927  0  0.110804  0.116512  0  1.044067  0
H  H30  1  0.40401304  0.43325429  0.71165418  1  0.132297  0  0.104943  0.11964  0  1.031347  0
H  H31  1  0.59598945  0.56674176  0.28835575  1  0.132267  0  0.104993  0.119679  0  1.031168  0
H  H32  1  0.23888108  0.30914885  0.69478416  1  0.1087  0  0.101875  0.074475  0  1.045749  0
H  H33  1  0.76112233  0.69084801  0.30522319  1  0.109134  0  0.101874  0.074493  0  1.045763  0
H  H34  1  0.69148171  0.87313633  0.64481361  1  0.060756  0  0.09703  0.102314  0  1.038918  0
H  H35  1  0.30851544  0.12686291  0.35518367  1  0.060752  0  0.097027  0.102289  0  1.038877  0
H  H36  1  0.73211176  0.72688038  0.86141480  1  0.079151  0  0.098048  0.104382  0  1.037322  0
H  H37  1  0.26788764  0.27312751  0.13858381  1  0.079152  0  0.09805  0.104423  0  1.037311  0
H  H38  1  0.83164875  0.94570058  0.71020297  1  0.04772  0  0.085966  0.125956  0  1.020966  0
H  H39  1  0.16834572  0.05430556  0.28979407  1  0.047834  0  0.085945  0.125913  0  1.020927  0
H  H40  1  0.94477307  0.83336368  0.77721961  1  0.063997  0  0.089231  0.133666  0  1.029501  0
H  H41  1  0.05522237  0.16664588  0.22277632  1  0.064456  0  0.089256  0.133727  0  1.029452  0
H  H42  1  0.77565975  0.93427779  0.79567050  1  0.04005  0  0.088834  0.128026  0  0.993671  0
H  H43  1  0.22433590  0.06572833  0.20432556  1  0.040085  0  0.088835  0.128057  0  0.993676  0
H  H44  1  0.42431867  0.59517749  0.87366258  1  0.083691  0  0.097629  0.103251  0  1.021715  0
H  H45  1  0.57568824  0.40482265  0.12633732  1  0.083586  0  0.097649  0.103278  0  1.021711  0
H  H46  1  0.59172719  0.48928986  0.86097455  1  0.092387  0  0.094171  0.116573  0  1.003553  0
H  H47  1  0.40828027  0.51071196  0.13902358  1  0.091826  0  0.094191  0.116598  0  1.003577  0
H  H48  1  0.91902511  0.15177850  0.87789142  1  0.130582  0  0.108468  0.090359  0  1.023283  0
H  H49  1  0.08097790  0.84821994  0.12210933  1  0.130547  0  0.108437  0.090322  0  1.023304  0
H  H50  1  0.09721760  0.99361823  0.97068520  1  0.091479  0  0.11001  0.115733  0  1.022302  0
H  H51  1  0.90278700  0.00638193  0.02931569  1  0.091196  0  0.11001  0.115663  0  1.022326  0
H  H52  1  0.33610266  0.84890522  0.81458642  1  0.140725  0  0.113349  0.124281  0  1.03302  0
H  H53  1  0.66390046  0.15109582  0.18541483  1  0.140735  0  0.113375  0.124302  0  1.033007  0
H  H54  1  0.15406148  0.01257619  0.72908715  1  0.097854  0  0.11276  0.086041  0  1.02379  0
H  H55  1  0.84593967  0.98742400  0.27091476  1  0.097808  0  0.112746  0.086  0  1.023795  0
H  H56  1  0.58563297  0.71912340  0.05323612  1  0.103494  0  0.108246  0.127919  0  0.997222  0
H  H57  1  0.41436000  0.28087164  0.94676538  1  0.103807  0  0.108206  0.127854  0  0.997244  0
H  H58  1  0.80570084  0.54958543  0.10988109  1  0.08157  0  0.095573  0.099696  0  1.018199  0
H  H59  1  0.19429492  0.45041130  0.89011909  1  0.081683  0  0.095608  0.099724  0  1.018178  0
H  H60  1  0.78889013  0.40130211  0.94708550  1  0.082312  0  0.101569  0.115338  0  1.0073  0
H  H61  1  0.21111885  0.59869882  0.05291131  1  0.082358  0  0.101579  0.115341  0  1.007292  0
H  H62  1  0.97885957  0.29788587  0.03743343  1  0.034297  0  0.087524  0.125459  0  0.999154  0
H  H63  1  0.02114117  0.70211258  0.96256735  1  0.034122  0  0.087536  0.12546  0  0.999134  0
H  H64  1  0.90611502  0.31315765  0.11758468  1  0.079543  0  0.087803  0.13093  0  1.034005  0
H  H65  1  0.09388475  0.68684337  0.88241516  1  0.079517  0  0.087789  0.130886  0  1.034053  0
H  H66  1  0.04828735  0.38287647  0.07771561  1  0.0401  0  0.086765  0.122638  0  1.041358  0
H  H67  1  0.95171050  0.61712368  0.92228392  1  0.04009  0  0.086746  0.122606  0  1.04135  0
C  C68  1  0.69088528  0.19208475  0.59360187  1  0.481631  0  0.045544  0.090501  0  3.946237  0
C  C69  1  0.30911222  0.80791627  0.40639800  1  0.481591  0  0.045508  0.090415  0  3.946123  0
C  C70  1  0.59505633  0.14333665  0.56659332  1  -0.008395  0  -0.071783  -0.129194  0  3.904261  0
C  C71  1  0.40493828  0.85666608  0.43340531  1  -0.008186  0  -0.071769  -0.1291  0  3.904265  0
C  C72  1  0.47781708  0.10547634  0.60664042  1  -0.03312  0  0.006894  0.006077  0  3.972446  0
C  C73  1  0.52217592  0.89453067  0.39335649  1  -0.033024  0  0.006929  0.006018  0  3.972424  0
C  C74  1  0.46104491  0.11776210  0.67232161  1  -0.048308  0  -0.074359  -0.131196  0  3.935061  0
C  C75  1  0.53895006  0.88223974  0.32767620  1  -0.047982  0  -0.074311  -0.13112  0  3.934918  0
C  C76  1  0.56039053  0.16925605  0.69470363  1  0.468333  0  0.044439  0.084814  0  3.954079  0
C  C77  1  0.43960657  0.83074322  0.30529462  1  0.468267  0  0.044403  0.08481  0  3.954077  0
C  C78  1  0.37707884  0.05165055  0.57804441  1  1.497822  0  0.247715  0.531453  0  4.069657  0
C  C79  1  0.62292246  0.94835292  0.42194913  1  1.497268  0  0.247829  0.531732  0  4.069417  0
C  C80  1  0.24140347  0.90851335  0.60917907  1  0.256682  0  0.070045  0.183288  0  3.997665  0
C  C81  1  0.75859681  0.09148671  0.39081655  1  0.257316  0  0.070037  0.18324  0  3.997428  0
C  C82  1  0.07953985  0.95394218  0.59579368  1  0.042735  0  -0.097993  -0.170767  0  4.018088  0
C  C83  1  0.92046085  0.04605365  0.40420514  1  0.042579  0  -0.097973  -0.17078  0  4.017865  0
C  C84  1  0.99430797  0.88615590  0.58041127  1  -0.03187  0  -0.091526  -0.127676  0  3.960778  0
C  C85  1  0.00569198  0.11384169  0.41958919  1  -0.031839  0  -0.091455  -0.127445  0  3.960606  0
C  C86  1  0.06962307  0.77320548  0.57941505  1  0.004209  0  -0.010158  0.17516  0  3.977209  0
C  C87  1  0.93037373  0.22679130  0.42058754  1  0.004333  0  -0.01025  0.174959  0  3.977433  0
C  C88  1  0.23405811  0.73168717  0.59189638  1  -0.055052  0  -0.099239  -0.208616  0  3.96291  0
C  C89  1  0.76594283  0.26830784  0.40810453  1  -0.049706  0  -0.099222  -0.208689  0  3.963045  0
C  C90  1  0.32391673  0.79767186  0.60660447  1  0.026488  0  -0.020069  0.026104  0  3.987602  0
C  C91  1  0.67608323  0.20232572  0.39339598  1  0.020564  0  -0.020038  0.026217  0  3.987496  0
C  C92  1  0.97788356  0.69800096  0.56537163  1  -0.078386  0  -0.245087  -0.41457  0  3.943187  0
C  C93  1  0.02211354  0.30199496  0.43463160  1  -0.07846  0  -0.245053  -0.414444  0  3.943322  0
C  C94  1  0.50231362  0.75285173  0.61661515  1  0.013641  0  -0.154066  -0.229332  0  3.96786  0
C  C95  1  0.49768592  0.24714411  0.38338416  1  0.01363  0  -0.154091  -0.229387  0  3.967876  0
C  C96  1  0.96451239  0.49088792  0.75330430  1  0.490857  0  0.046578  0.091911  0  3.946227  0
C  C97  1  0.03548589  0.50911397  0.24669589  1  0.490712  0  0.046427  0.091681  0  3.946197  0
C  C98  1  0.04359932  0.56773197  0.76066305  1  0.005109  0  -0.070693  -0.130274  0  3.923254  0
C  C99  1  0.95639680  0.43227252  0.23933767  1  0.005022  0  -0.070673  -0.130308  0  3.923407  0
C  C100  1  0.20345387  0.54815509  0.74526193  1  -0.072735  0  0.002859  -0.004234  0  3.993384  0
C  C101  1  0.79654481  0.45184521  0.25474487  1  -0.072714  0  0.002811  -0.004214  0  3.993184  0
C  C102  1  0.27860634  0.45276217  0.72236406  1  -0.023636  0  -0.074443  -0.133616  0  3.922905  0
C  C103  1  0.72139838  0.54723724  0.27764183  1  -0.024179  0  -0.074496  -0.133652  0  3.922792  0
C  C104  1  0.18870280  0.38230008  0.71480425  1  0.506857  0  0.042938  0.091019  0  3.951972  0
C  C105  1  0.81130087  0.61769595  0.28520470  1  0.506826  0  0.042904  0.09093  0  3.952017  0
C  C106  1  0.28626522  0.63076178  0.75405462  1  1.508181  0  0.247606  0.516876  0  4.090966  0
C  C107  1  0.71373793  0.36923325  0.24594771  1  1.50824  0  0.24766  0.516997  0  4.091124  0
C  C108  1  0.53281231  0.67226439  0.74438663  1  0.372117  0  0.068539  0.11788  0  3.979721  0
C  C109  1  0.46718600  0.32773749  0.25561307  1  0.372429  0  0.068584  0.117941  0  3.979687  0
C  C110  1  0.56687727  0.74661165  0.68484700  1  0.011709  0  -0.01471  0.051319  0  3.989424  0
C  C111  1  0.43312256  0.25338934  0.31515139  1  0.011307  0  -0.014674  0.051323  0  3.989501  0
C  C112  1  0.66305954  0.81462014  0.69079356  1  0.017061  0  -0.098356  -0.20004  0  3.958542  0
C  C113  1  0.33693920  0.18538083  0.30920387  1  0.017179  0  -0.098319  -0.199922  0  3.95829  0
C  C114  1  0.72169398  0.81009251  0.75377254  1  -0.076741  0  -0.015419  0.170289  0  4.009142  0
C  C115  1  0.27830507  0.18991360  0.24622348  1  -0.076755  0  -0.015555  0.170211  0  4.00903  0
C  C116  1  0.68569426  0.73238423  0.81196838  1  -0.061207  0  -0.101598  -0.208468  0  3.956521  0
C  C117  1  0.31430714  0.26761849  0.18803064  1  -0.061258  0  -0.101567  -0.208506  0  3.956391  0
C  C118  1  0.59215386  0.66141932  0.80866692  1  -0.00728  0  -0.012503  0.04554  0  3.988438  0
C  C119  1  0.40784657  0.33858596  0.19133117  1  -0.007289  0  -0.012463  0.045586  0  3.988243  0
C  C120  1  0.82329864  0.88487414  0.75941984  1  -0.078419  0  -0.244283  -0.415103  0  3.952391  0
C  C121  1  0.17669619  0.11513113  0.24057639  1  -0.078942  0  -0.244257  -0.415163  0  3.95227  0
C  C122  1  0.55377378  0.57447728  0.86999676  1  -0.039677  0  -0.158656  -0.23153  0  3.967348  0
C  C123  1  0.44623173  0.42552369  0.13000155  1  -0.039108  0  -0.158724  -0.231646  0  3.967564  0
C  C124  1  0.01422428  0.08320177  0.86655733  1  0.482587  0  0.045537  0.08542  0  3.946015  0
C  C125  1  0.98577710  0.91679497  0.13344423  1  0.482727  0  0.045568  0.085463  0  3.945944  0
C  C126  1  0.11094799  0.99572479  0.91748506  1  -0.014526  0  -0.076011  -0.138422  0  3.944192  0
C  C127  1  0.88905353  0.00427452  0.08251604  1  -0.014404  0  -0.075989  -0.13833  0  3.944062  0
C  C128  1  0.22951557  0.90969917  0.89972014  1  -0.06601  0  0.002508  -0.00302  0  3.982556  0
C  C129  1  0.77048517  0.09029928  0.10028064  1  -0.06619  0  0.002523  -0.002951  0  3.982564  0
C  C130  1  0.24740357  0.91458807  0.83099742  1  -0.013533  0  -0.069042  -0.118381  0  3.896916  0
C  C131  1  0.75259802  0.08541121  0.16900222  1  -0.013498  0  -0.069054  -0.118422  0  3.89708  0
C  C132  1  0.14530647  0.00519163  0.78328020  1  0.519766  0  0.048647  0.092688  0  3.929544  0
C  C133  1  0.85469311  0.99480683  0.21672107  1  0.519754  0  0.048654  0.092691  0  3.92952  0
C  C134  1  0.32926931  0.81528735  0.95564051  1  1.524468  0  0.244966  0.518668  0  4.084358  0
C  C135  1  0.67072837  0.18471023  0.04435998  1  1.524324  0  0.244935  0.51861  0  4.084307  0
C  C136  1  0.56823959  0.65500473  0.96796741  1  0.33948  0  0.077342  0.188251  0  3.99716  0
C  C137  1  0.43176394  0.34499541  0.03203205  1  0.339582  0  0.077306  0.188193  0  3.997245  0
C  C138  1  0.63203230  0.64994874  0.02990372  1  0.00892  0  -0.099095  -0.18301  0  4.02092  0
C  C139  1  0.36796850  0.35004968  0.97009560  1  0.008726  0  -0.099056  -0.18291  0  4.020827  0
C  C140  1  0.75484557  0.55372733  0.06157750  1  -0.036014  0  -0.095467  -0.131228  0  3.971553  0
C  C141  1  0.24515488  0.44627196  0.93842216  1  -0.035852  0  -0.09552  -0.13134  0  3.971556  0
C  C142  1  0.81324042  0.46255598  0.03283292  1  -0.004332  0  -0.011444  0.172158  0  3.986745  0
C  C143  1  0.18676510  0.53744499  0.96716538  1  -0.004834  0  -0.011471  0.172155  0  3.986628  0
C  C144  1  0.74654701  0.47137590  0.97037952  1  -0.092639  0  -0.092968  -0.198883  0  3.937766  0
C  C145  1  0.25345883  0.52862421  0.02961894  1  -0.092455  0  -0.093003  -0.198876  0  3.937688  0
C  C146  1  0.62451552  0.56699880  0.93674575  1  0.012455  0  -0.012933  0.043522  0  3.98313  0
C  C147  1  0.37549392  0.43300386  0.06325122  1  0.012175  0  -0.012892  0.043532  0  3.983275  0
C  C148  1  0.94338131  0.35831155  0.06816669  1  -0.095169  0  -0.245444  -0.42213  0  3.956063  0
C  C149  1  0.05661915  0.64168774  0.93183297  1  -0.094911  0  -0.245401  -0.42202  0  3.955937  0
N  N150  1  0.67323050  0.20534982  0.65623310  1  -1.19555  0  -0.308299  -0.217405  0  3.47389  0
N  N151  1  0.32676734  0.79465033  0.34376643  1  -1.195549  0  -0.308281  -0.217365  0  3.473698  0
N  N152  1  0.03576787  0.40041705  0.73041654  1  -1.209207  0  -0.307063  -0.21399  0  3.478666  0
N  N153  1  0.96423261  0.59958487  0.26958555  1  -1.209192  0  -0.306923  -0.213796  0  3.478239  0
N  N154  1  0.03186113  0.08768869  0.80059040  1  -1.190436  0  -0.304677  -0.20224  0  3.476285  0
N  N155  1  0.96814070  0.91230977  0.19941133  1  -1.190524  0  -0.304683  -0.20224  0  3.476309  0
Cl  Cl156  1  0.05174499  0.23973321  0.61863804  1  -0.547958  0  -0.283107  -0.43109  0  1.23816  0
Cl  Cl157  1  0.94825620  0.76026696  0.38136291  1  -0.547952  0  -0.283127  -0.431113  0  1.238186  0
Cl  Cl158  1  0.68273683  0.32385022  0.79307671  1  -0.540953  0  -0.287726  -0.422584  0  1.202365  0
Cl  Cl159  1  0.31726552  0.67614994  0.20692374  1  -0.540953  0  -0.287726  -0.422579  0  1.202349  0
O  O160  1  0.34829899  0.07086045  0.51766155  1  -1.131521  0  -0.255088  -0.445259  0  2.197289  0
O  O161  1  0.65170801  0.92914299  0.48233143  1  -1.131103  0  -0.255131  -0.445445  0  2.197272  0
O  O162  1  0.32675371  0.97429831  0.62844720  1  -1.08532  0  -0.13556  -0.244844  0  2.586708  0
O  O163  1  0.67324583  0.02570685  0.37154508  1  -1.085586  0  -0.135678  -0.244913  0  2.586501  0
O  O164  1  0.22367700  0.71472708  0.77384743  1  -1.1443  0  -0.256079  -0.44933  0  2.205793  0
O  O165  1  0.77631271  0.28528182  0.22615746  1  -1.144229  0  -0.25605  -0.449268  0  2.206212  0
O  O166  1  0.44109114  0.60054803  0.73806834  1  -1.084023  0  -0.132922  -0.230874  0  2.599124  0
O  O167  1  0.55890590  0.39945391  0.26193429  1  -1.08406  0  -0.132992  -0.231052  0  2.59911  0
O  O168  1  0.30157688  0.79951020  0.01581157  1  -1.11557  0  -0.265415  -0.449437  0  2.138806  0
O  O169  1  0.69842445  0.20048391  0.98418803  1  -1.11556  0  -0.265428  -0.449458  0  2.138713  0
O  O170  1  0.45305142  0.75073500  0.92908832  1  -1.102232  0  -0.128211  -0.230495  0  2.62508  0
O  O171  1  0.54694787  0.24926430  0.07091183  1  -1.102106  0  -0.128179  -0.230411  0  2.625169  0
