# generated using pymatgen
data_CuH9C9BrN5
_symmetry_space_group_name_H-M   'P 1'
_cell_length_a   10.45896002
_cell_length_b   10.45568346
_cell_length_c   12.03239709
_cell_angle_alpha   106.93590318
_cell_angle_beta   106.47727593
_cell_angle_gamma   109.77382787
_symmetry_Int_Tables_number   1
_chemical_formula_structural   CuH9C9BrN5
_chemical_formula_sum   'Cu4 H36 C36 Br4 N20'
_cell_volume   1072.47596104
_cell_formula_units_Z   4
loop_
 _symmetry_equiv_pos_site_id
 _symmetry_equiv_pos_as_xyz
  1  'x, y, z'
loop_
 _atom_site_type_symbol
 _atom_site_label
 _atom_site_symmetry_multiplicity
 _atom_site_fract_x
 _atom_site_fract_y
 _atom_site_fract_z
 _atom_site_occupancy
 _atom_site_hle17_bader_spin_density
 _atom_site_hle17_ddec_charge
 _atom_site_hle17_ddec_spin_density
 _atom_site_hle17_ddec_sum_bond_order
 _atom_site_hle17_magmom
 _atom_site_hse06_10hf_bader_spin_density
 _atom_site_hse06_10hf_ddec_charge
 _atom_site_hse06_10hf_ddec_spin_density
 _atom_site_hse06_10hf_ddec_sum_bond_order
 _atom_site_hse06_10hf_magmom
 _atom_site_hse06_bader_spin_density
 _atom_site_hse06_ddec_charge
 _atom_site_hse06_ddec_spin_density
 _atom_site_hse06_ddec_sum_bond_order
 _atom_site_hse06_magmom
 _atom_site_pbe_bader_spin_density
 _atom_site_pbe_cm5_charge
 _atom_site_pbe_ddec_charge
 _atom_site_pbe_ddec_spin_density
 _atom_site_pbe_ddec_sum_bond_order
 _atom_site_pbe_magmom
Cu  Cu0  1  0.38449193  0.19128207  0.58942660  1  0  0.474061  0  2.052737  0  0  0.425518  0  2.496918  0  0  0.426675  0  2.461836  0  0  0.451434  0.426125  0  2.519821  0
Cu  Cu1  1  0.60191912  0.29507664  0.91059736  1  0  0.473782  0  2.051554  0  0  0.425233  0  2.495649  0  0  0.426491  0  2.460595  0  0  0.451652  0.425881  0  2.518303  0
Cu  Cu2  1  0.61550927  0.80871787  0.41057497  1  0  0.474106  0  2.052695  0  0  0.425569  0  2.496885  0  0  0.42674  0  2.461783  0  0  0.451462  0.426184  0  2.519772  0
Cu  Cu3  1  0.39808203  0.70492103  0.08940280  1  0  0.47383  0  2.051516  0  0  0.4253  0  2.495587  0  0  0.426517  0  2.460524  0  0  0.451688  0.425948  0  2.518241  0
H  H4  1  0.35814795  0.13052216  0.35990419  1  0  0.136456  0  0.98953  0  0  0.142773  0  1.061458  0  0  0.14553  0  1.059872  0  0  0.085302  0.140696  0  1.062627  0
H  H5  1  0.77057658  0.49828416  0.14015781  1  0  0.135524  0  0.989291  0  0  0.142063  0  1.06135  0  0  0.144822  0  1.059762  0  0  0.085052  0.139989  0  1.06259  0
H  H6  1  0.64185278  0.86947891  0.64009672  1  0  0.136447  0  0.989477  0  0  0.142784  0  1.061394  0  0  0.145544  0  1.059805  0  0  0.085309  0.140708  0  1.062559  0
H  H7  1  0.22942216  0.50171692  0.85984178  1  0  0.135535  0  0.989313  0  0  0.142047  0  1.061392  0  0  0.144804  0  1.059805  0  0  0.08505  0.139969  0  1.06263  0
H  H8  1  0.28038703  0.26176855  0.40998958  1  0  0.132863  0  0.988492  0  0  0.137459  0  1.065322  0  0  0.140364  0  1.062509  0  0  0.090671  0.135511  0  1.066939  0
H  H9  1  0.85173695  0.37041576  0.09008597  1  0  0.132518  0  0.989734  0  0  0.137255  0  1.06639  0  0  0.140183  0  1.063534  0  0  0.090527  0.135337  0  1.067999  0
H  H10  1  0.71961172  0.73823253  0.59001001  1  0  0.132845  0  0.988529  0  0  0.137443  0  1.065357  0  0  0.140346  0  1.062543  0  0  0.090654  0.135497  0  1.066974  0
H  H11  1  0.14826378  0.62958531  0.90991493  1  0  0.132509  0  0.989763  0  0  0.137215  0  1.066435  0  0  0.140143  0  1.063579  0  0  0.09051  0.135294  0  1.068045  0
H  H12  1  0.53112440  0.44745722  0.59035639  1  0  0.096611  0  0.942561  0  0  0.109787  0  0.99858  0  0  0.11127  0  0.998803  0  0  0.09586  0.109167  0  0.997909  0
H  H13  1  0.85706254  0.44077387  0.90969982  1  0  0.096669  0  0.941496  0  0  0.109404  0  0.998148  0  0  0.110899  0  0.998358  0  0  0.095727  0.108739  0  0.997536  0
H  H14  1  0.46887534  0.55254386  0.40964427  1  0  0.096608  0  0.94256  0  0  0.109785  0  0.998575  0  0  0.111268  0  0.998798  0  0  0.095857  0.109164  0  0.997906  0
H  H15  1  0.14293719  0.55922721  0.09030001  1  0  0.096713  0  0.941507  0  0  0.109448  0  0.998145  0  0  0.110942  0  0.998356  0  0  0.095741  0.108787  0  0.997533  0
H  H16  1  0.72698241  0.35160170  0.63834619  1  0  0.096425  0  0.925497  0  0  0.110404  0  0.984304  0  0  0.111621  0  0.983418  0  0  0.111623  0.109439  0  0.984932  0
H  H17  1  0.71331226  0.58872631  0.86164923  1  0  0.096113  0  0.924375  0  0  0.110147  0  0.983207  0  0  0.11138  0  0.982306  0  0  0.111477  0.109239  0  0.983778  0
H  H18  1  0.27301930  0.64839935  0.36165412  1  0  0.09649  0  0.925505  0  0  0.110451  0  0.984325  0  0  0.111664  0  0.983443  0  0  0.11166  0.109488  0  0.984964  0
H  H19  1  0.28668696  0.41127365  0.13835186  1  0  0.096108  0  0.924372  0  0  0.110144  0  0.983203  0  0  0.111377  0  0.9823  0  0  0.111484  0.109239  0  0.98378  0
H  H20  1  0.61902642  0.19734747  0.48285507  1  0  0.107583  0  0.94039  0  0  0.117016  0  1.007197  0  0  0.118886  0  1.006681  0  0  0.110284  0.115456  0  1.008002  0
H  H21  1  0.71465001  0.63636667  0.01717940  1  0  0.106127  0  0.942523  0  0  0.116254  0  1.008557  0  0  0.118166  0  1.007991  0  0  0.110131  0.114766  0  1.009297  0
H  H22  1  0.38097326  0.80265135  0.51714419  1  0  0.107568  0  0.940416  0  0  0.117017  0  1.007193  0  0  0.118888  0  1.006676  0  0  0.110279  0.11546  0  1.007996  0
H  H23  1  0.28534769  0.36363217  0.98282021  1  0  0.10613  0  0.942504  0  0  0.116256  0  1.008545  0  0  0.118167  0  1.007978  0  0  0.110125  0.11477  0  1.009286  0
H  H24  1  0.00223023  0.65150612  0.30858801  1  0  0.112954  0  0.951012  0  0  0.128647  0  1.00545  0  0  0.131096  0  1.005207  0  0  0.110436  0.12664  0  1.006309  0
H  H25  1  0.34300398  0.19336702  0.19136228  1  0  0.11372  0  0.950209  0  0  0.129376  0  1.004592  0  0  0.131769  0  1.004418  0  0  0.110888  0.127628  0  1.005034  0
H  H26  1  0.99777250  0.34849494  0.69141504  1  0  0.112947  0  0.950965  0  0  0.128649  0  1.005397  0  0  0.131097  0  1.005155  0  0  0.110435  0.12664  0  1.006254  0
H  H27  1  0.65699522  0.80663292  0.80863548  1  0  0.113747  0  0.950185  0  0  0.129406  0  1.004561  0  0  0.131798  0  1.004387  0  0  0.110895  0.127657  0  1.005005  0
H  H28  1  0.17537214  0.09423779  0.70650416  1  0  0.076421  0  0.981338  0  0  0.075793  0  1.062033  0  0  0.078912  0  1.059003  0  0  0.100823  0.073573  0  1.064254  0
H  H29  1  0.38814127  0.96881769  0.79359640  1  0  0.0771  0  0.980525  0  0  0.076371  0  1.061495  0  0  0.079451  0  1.058515  0  0  0.101039  0.07415  0  1.06374  0
H  H30  1  0.82463063  0.90576552  0.29349697  1  0  0.076476  0  0.981311  0  0  0.075834  0  1.062014  0  0  0.078951  0  1.058987  0  0  0.100826  0.073619  0  1.06422  0
H  H31  1  0.61185528  0.03117437  0.20640121  1  0  0.077099  0  0.980534  0  0  0.076367  0  1.061535  0  0  0.079442  0  1.058561  0  0  0.101057  0.074161  0  1.063762  0
H  H32  1  0.19916833  0.90392892  0.36312557  1  0  0.077723  0  0.97966  0  0  0.083388  0  1.049749  0  0  0.085835  0  1.047892  0  0  0.102532  0.081526  0  1.051248  0
H  H33  1  0.54094515  0.33587720  0.13696430  1  0  0.077459  0  0.979336  0  0  0.083003  0  1.049751  0  0  0.085449  0  1.047872  0  0  0.102147  0.081107  0  1.051339  0
H  H34  1  0.80083485  0.09607099  0.63687565  1  0  0.077756  0  0.979661  0  0  0.083425  0  1.049739  0  0  0.085872  0  1.04788  0  0  0.102546  0.081566  0  1.051231  0
H  H35  1  0.45905594  0.66411821  0.86303361  1  0  0.077522  0  0.979275  0  0  0.083059  0  1.049714  0  0  0.085506  0  1.047833  0  0  0.102179  0.081166  0  1.051294  0
H  H36  1  0.97957491  0.84933599  0.66759253  1  0  0.118237  0  0.942407  0  0  0.129786  0  1.001368  0  0  0.132782  0  1.000202  0  0  0.11464  0.127665  0  1.002272  0
H  H37  1  0.18219494  0.81177025  0.83242652  1  0  0.118457  0  0.941202  0  0  0.129266  0  1.001223  0  0  0.132294  0  1.000013  0  0  0.114059  0.127156  0  1.002115  0
H  H38  1  0.02042488  0.15066735  0.33240872  1  0  0.118233  0  0.942416  0  0  0.129787  0  1.001369  0  0  0.132781  0  1.000203  0  0  0.114639  0.127662  0  1.002268  0
H  H39  1  0.81780073  0.18822636  0.16757453  1  0  0.118442  0  0.941234  0  0  0.129274  0  1.0012  0  0  0.132304  0  0.999989  0  0  0.114061  0.127161  0  1.002088  0
C  C40  1  0.37181773  0.23196200  0.43231714  1  0  -0.309134  0  3.673394  0  0  -0.365202  0  3.972935  0  0  -0.361524  0  3.97442  0  0  -0.245452  -0.366771  0  3.971022  0
C  C41  1  0.79960681  0.43953748  0.06775024  1  0  -0.307563  0  3.674073  0  0  -0.363919  0  3.973484  0  0  -0.360277  0  3.975022  0  0  -0.244432  -0.365639  0  3.971747  0
C  C42  1  0.62818498  0.76803905  0.56768341  1  0  -0.309156  0  3.673322  0  0  -0.36524  0  3.972856  0  0  -0.361567  0  3.974345  0  0  -0.245458  -0.366808  0  3.97094  0
C  C43  1  0.20039141  0.56046247  0.93224894  1  0  -0.307529  0  3.674097  0  0  -0.363821  0  3.973517  0  0  -0.360164  0  3.975042  0  0  -0.244402  -0.365534  0  3.971773  0
C  C44  1  0.51142568  0.33478394  0.53207221  1  0  -0.082225  0  3.749944  0  0  -0.101525  0  4.041891  0  0  -0.098662  0  4.05178  0  0  -0.159921  -0.103615  0  4.034925  0
C  C45  1  0.80267816  0.47938129  0.96796829  1  0  -0.082896  0  3.749432  0  0  -0.102008  0  4.041801  0  0  -0.099179  0  4.05176  0  0  -0.160535  -0.103892  0  4.034766  0
C  C46  1  0.48857405  0.66521713  0.46792679  1  0  -0.082188  0  3.749889  0  0  -0.10148  0  4.041837  0  0  -0.09862  0  4.051729  0  0  -0.159888  -0.103568  0  4.034876  0
C  C47  1  0.19732153  0.52061753  0.03203263  1  0  -0.083031  0  3.749561  0  0  -0.102139  0  4.041919  0  0  -0.099301  0  4.051863  0  0  -0.160564  -0.10403  0  4.034894  0
C  C48  1  0.64937741  0.31504190  0.53933541  1  0  -0.068075  0  3.669414  0  0  -0.126704  0  3.92508  0  0  -0.124306  0  3.935443  0  0  -0.057565  -0.128382  0  3.918705  0
C  C49  1  0.77578187  0.61014635  0.96066318  1  0  -0.065451  0  3.668201  0  0  -0.124333  0  3.923675  0  0  -0.121973  0  3.934059  0  0  -0.056883  -0.126171  0  3.917458  0
C  C50  1  0.35062279  0.68495803  0.46066342  1  0  -0.068114  0  3.669537  0  0  -0.126752  0  3.925228  0  0  -0.124346  0  3.935575  0  0  -0.0576  -0.128432  0  3.918865  0
C  C51  1  0.22421583  0.38985249  0.03933559  1  0  -0.065421  0  3.668218  0  0  -0.124324  0  3.923737  0  0  -0.12196  0  3.934114  0  0  -0.056872  -0.126167  0  3.917532  0
C  C52  1  0.03756145  0.74677397  0.39784090  1  0  -0.13411  0  3.686488  0  0  -0.158923  0  3.934693  0  0  -0.166244  0  3.956235  0  0  -0.08012  -0.15433  0  3.921098  0
C  C53  1  0.34916965  0.13948156  0.10218079  1  0  -0.134851  0  3.687239  0  0  -0.159496  0  3.935632  0  0  -0.166784  0  3.957226  0  0  -0.079981  -0.155035  0  3.921751  0
C  C54  1  0.96244074  0.25322595  0.60215925  1  0  -0.134003  0  3.686611  0  0  -0.158813  0  3.934821  0  0  -0.166133  0  3.956365  0  0  -0.080101  -0.154225  0  3.921227  0
C  C55  1  0.65082851  0.86051614  0.89781698  1  0  -0.134864  0  3.687255  0  0  -0.159517  0  3.935652  0  0  -0.166805  0  3.957245  0  0  -0.080014  -0.155055  0  3.921773  0
C  C56  1  0.97656022  0.72813916  0.48517383  1  0  0.060135  0  3.780215  0  0  0.072348  0  4.018242  0  0  0.076673  0  4.038522  0  0  0.015114  0.069365  0  4.004819  0
C  C57  1  0.24322277  0.99113136  0.01479376  1  0  0.060783  0  3.778628  0  0  0.072394  0  4.01738  0  0  0.076718  0  4.037714  0  0  0.014822  0.06948  0  4.003953  0
C  C58  1  0.02344156  0.27186417  0.51482873  1  0  0.06  0  3.780267  0  0  0.072169  0  4.018354  0  0  0.07649  0  4.03863  0  0  0.015088  0.069203  0  4.004931  0
C  C59  1  0.75677540  0.00886634  0.98520567  1  0  0.060745  0  3.778631  0  0  0.07237  0  4.017325  0  0  0.076692  0  4.03766  0  0  0.014861  0.069453  0  4.003899  0
C  C60  1  0.13421136  0.99301615  0.61971993  1  0  0.131025  0  3.682116  0  0  0.102795  0  3.935416  0  0  0.109184  0  3.953051  0  0  0.042423  0.098199  0  3.924054  0
C  C61  1  0.37369239  0.01434177  0.88037843  1  0  0.128671  0  3.682856  0  0  0.100271  0  3.936432  0  0  0.106772  0  3.95404  0  0  0.040953  0.095657  0  3.92501  0
C  C62  1  0.86578889  0.00698605  0.38028032  1  0  0.130957  0  3.682129  0  0  0.10275  0  3.935431  0  0  0.109136  0  3.953069  0  0  0.042414  0.098146  0  3.924069  0
C  C63  1  0.62630676  0.98565592  0.11962041  1  0  0.128648  0  3.682755  0  0  0.100238  0  3.936356  0  0  0.106739  0  3.953963  0  0  0.040902  0.095619  0  3.924909  0
C  C64  1  0.14678048  0.88744355  0.42756385  1  0  0.122265  0  3.692059  0  0  0.093881  0  3.946877  0  0  0.100241  0  3.9636  0  0  0.03893  0.089294  0  3.936437  0
C  C65  1  0.46011115  0.21902747  0.07253297  1  0  0.122939  0  3.694225  0  0  0.094708  0  3.948979  0  0  0.101131  0  3.965743  0  0  0.039305  0.090186  0  3.938342  0
C  C66  1  0.85322276  0.11255863  0.57243878  1  0  0.122153  0  3.692096  0  0  0.093782  0  3.946911  0  0  0.10014  0  3.963637  0  0  0.03887  0.089194  0  3.936477  0
C  C67  1  0.53988748  0.78096908  0.92746379  1  0  0.122767  0  3.694209  0  0  0.094539  0  3.948987  0  0  0.100962  0  3.965745  0  0  0.039222  0.09001  0  3.938354  0
C  C68  1  0.02453531  0.85598712  0.59703660  1  0  -0.132539  0  3.674443  0  0  -0.155327  0  3.922034  0  0  -0.162939  0  3.943606  0  0  -0.076357  -0.15012  0  3.907249  0
C  C69  1  0.25935691  0.92729255  0.90301667  1  0  -0.132166  0  3.671406  0  0  -0.153937  0  3.919036  0  0  -0.161483  0  3.940453  0  0  -0.075203  -0.148768  0  3.904253  0
C  C70  1  0.97546494  0.14401508  0.40296281  1  0  -0.132483  0  3.674412  0  0  -0.155266  0  3.92201  0  0  -0.162873  0  3.943579  0  0  -0.076352  -0.150054  0  3.90721  0
C  C71  1  0.74064021  0.07270291  0.09698277  1  0  -0.132091  0  3.67145  0  0  -0.153858  0  3.91906  0  0  -0.161409  0  3.940484  0  0  -0.075169  -0.148698  0  3.90428  0
C  C72  1  0.87140466  0.57924299  0.46186844  1  0  0.245818  0  3.789814  0  0  0.222724  0  4.071659  0  0  0.229822  0  4.086833  0  0  0.219364  0.217587  0  4.062441  0
C  C73  1  0.11758942  0.90939077  0.03807353  1  0  0.245574  0  3.789923  0  0  0.222677  0  4.07187  0  0  0.229706  0  4.087126  0  0  0.219617  0.217484  0  4.062702  0
C  C74  1  0.12859660  0.42075920  0.53813288  1  0  0.245881  0  3.789644  0  0  0.222834  0  4.07144  0  0  0.229932  0  4.086605  0  0  0.219388  0.217656  0  4.062262  0
C  C75  1  0.88240828  0.09060806  0.96192608  1  0  0.245537  0  3.78987  0  0  0.222672  0  4.071759  0  0  0.22971  0  4.087003  0  0  0.219594  0.217484  0  4.062573  0
Br  Br76  1  0.40875446  0.37062288  0.79667646  1  0  -0.552835  0  1.186773  0  0  -0.496059  0  1.53364  0  0  -0.510566  0  1.505847  0  0  -0.26107  -0.48517  0  1.552555  0
Br  Br77  1  0.57392211  0.11208322  0.70322034  1  0  -0.553039  0  1.187819  0  0  -0.496228  0  1.53486  0  0  -0.510696  0  1.507013  0  0  -0.260892  -0.485177  0  1.553733  0
Br  Br78  1  0.59124367  0.62937258  0.20332406  1  0  -0.55287  0  1.186741  0  0  -0.496099  0  1.533607  0  0  -0.510607  0  1.505811  0  0  -0.261089  -0.485212  0  1.552516  0
Br  Br79  1  0.42607866  0.88792010  0.29677865  1  0  -0.553064  0  1.187814  0  0  -0.496253  0  1.53485  0  0  -0.510714  0  1.507  0  0  -0.260895  -0.485201  0  1.553726  0
N  N80  1  0.81482080  0.55102010  0.54432022  1  0  -0.290137  0  2.812809  0  0  -0.274296  0  3.073223  0  0  -0.279729  0  3.084714  0  0  -0.190031  -0.271585  0  3.066615  0
N  N81  1  0.00681770  0.77040208  0.95563345  1  0  -0.288833  0  2.810669  0  0  -0.272967  0  3.070969  0  0  -0.278381  0  3.082457  0  0  -0.189373  -0.269947  0  3.064195  0
N  N82  1  0.18518046  0.44898210  0.45568109  1  0  -0.290124  0  2.812809  0  0  -0.274288  0  3.073205  0  0  -0.279723  0  3.084693  0  0  -0.19002  -0.271567  0  3.066604  0
N  N83  1  0.99317953  0.22959790  0.04436715  1  0  -0.288859  0  2.810636  0  0  -0.273013  0  3.07093  0  0  -0.278428  0  3.082416  0  0  -0.189419  -0.26999  0  3.064146  0
N  N84  1  0.82411986  0.45000243  0.35694342  1  0  -0.255586  0  2.923105  0  0  -0.239664  0  3.214707  0  0  -0.247138  0  3.226239  0  0  -0.191159  -0.234023  0  3.207132  0
N  N85  1  0.09327922  0.96718892  0.14295693  1  0  -0.256183  0  2.926945  0  0  -0.240366  0  3.218686  0  0  -0.247795  0  3.230179  0  0  -0.190932  -0.234823  0  3.211204  0
N  N86  1  0.17588191  0.55000089  0.64305831  1  0  -0.255629  0  2.922982  0  0  -0.239713  0  3.214574  0  0  -0.247184  0  3.226095  0  0  -0.191167  -0.234059  0  3.207008  0
N  N87  1  0.90671848  0.03280992  0.85704351  1  0  -0.256172  0  2.926753  0  0  -0.240372  0  3.21849  0  0  -0.247802  0  3.229977  0  0  -0.190941  -0.234831  0  3.211006  0
N  N88  1  0.73641877  0.33900853  0.37283919  1  0  -0.095321  0  2.838295  0  0  -0.089061  0  3.117618  0  0  -0.085445  0  3.128711  0  0  -0.065029  -0.091194  0  3.110347  0
N  N89  1  0.96633460  0.86375586  0.12707201  1  0  -0.095143  0  2.840983  0  0  -0.089068  0  3.120543  0  0  -0.085474  0  3.131685  0  0  -0.065567  -0.09111  0  3.113271  0
N  N90  1  0.26358148  0.66099367  0.62716105  1  0  -0.095281  0  2.838211  0  0  -0.089029  0  3.117546  0  0  -0.085417  0  3.128644  0  0  -0.065025  -0.09116  0  3.11027  0
N  N91  1  0.03366462  0.13624410  0.87292825  1  0  -0.095146  0  2.840794  0  0  -0.089068  0  3.120351  0  0  -0.085479  0  3.131494  0  0  -0.065568  -0.091117  0  3.113088  0
N  N92  1  0.73307426  0.40258598  0.48537725  1  0  0.224642  0  3.505567  0  0  0.279317  0  3.775633  0  0  0.274644  0  3.798073  0  0  -0.000713  0.281898  0  3.761359  0
N  N93  1  0.91730853  0.74776236  0.01454414  1  0  0.223115  0  3.505395  0  0  0.277664  0  3.775901  0  0  0.272993  0  3.798315  0  0  -0.001322  0.280222  0  3.761639  0
N  N94  1  0.26692646  0.59741508  0.51462282  1  0  0.224575  0  3.505617  0  0  0.279253  0  3.775684  0  0  0.274578  0  3.798123  0  0  -0.000753  0.281834  0  3.761404  0
N  N95  1  0.08268969  0.25223760  0.98545588  1  0  0.223153  0  3.505395  0  0  0.277703  0  3.775898  0  0  0.273032  0  3.798313  0  0  -0.001288  0.280263  0  3.761632  0
N  N96  1  0.19801376  0.00900216  0.53831536  1  0  -0.293187  0  3.363151  0  0  -0.224572  0  3.646929  0  0  -0.236732  0  3.657407  0  0  -0.362388  -0.217062  0  3.640711  0
N  N97  1  0.47098325  0.15958860  0.96178994  1  0  -0.29249  0  3.364571  0  0  -0.224061  0  3.648302  0  0  -0.236421  0  3.659023  0  0  -0.361906  -0.216337  0  3.641631  0
N  N98  1  0.80198843  0.99099776  0.46168478  1  0  -0.293121  0  3.363056  0  0  -0.224536  0  3.646842  0  0  -0.236698  0  3.657328  0  0  -0.362346  -0.21703  0  3.640633  0
N  N99  1  0.52901480  0.84040457  0.03820666  1  0  -0.292387  0  3.364503  0  0  -0.223995  0  3.648286  0  0  -0.236345  0  3.658988  0  0  -0.361864  -0.216276  0  3.641623  0
