# generated using pymatgen
data_Tb2H14C18S3O16
_symmetry_space_group_name_H-M   'P 1'
_cell_length_a   5.79976272
_cell_length_b   12.87395434
_cell_length_c   15.75324762
_cell_angle_alpha   81.61454553
_cell_angle_beta   79.43471258
_cell_angle_gamma   76.98211834
_symmetry_Int_Tables_number   1
_chemical_formula_structural   Tb2H14C18S3O16
_chemical_formula_sum   'Tb4 H28 C36 S6 O32'
_cell_volume   1119.84276864
_cell_formula_units_Z   2
loop_
 _symmetry_equiv_pos_site_id
 _symmetry_equiv_pos_as_xyz
  1  'x, y, z'
loop_
 _atom_site_type_symbol
 _atom_site_label
 _atom_site_symmetry_multiplicity
 _atom_site_fract_x
 _atom_site_fract_y
 _atom_site_fract_z
 _atom_site_occupancy
 _atom_site_hle17_bader_spin_density
 _atom_site_hle17_ddec_charge
 _atom_site_hle17_ddec_spin_density
 _atom_site_hle17_ddec_sum_bond_order
 _atom_site_hle17_magmom
 _atom_site_hse06_10hf_bader_spin_density
 _atom_site_hse06_10hf_ddec_charge
 _atom_site_hse06_10hf_ddec_spin_density
 _atom_site_hse06_10hf_ddec_sum_bond_order
 _atom_site_hse06_10hf_magmom
 _atom_site_hse06_bader_spin_density
 _atom_site_hse06_ddec_charge
 _atom_site_hse06_ddec_spin_density
 _atom_site_hse06_ddec_sum_bond_order
 _atom_site_hse06_magmom
 _atom_site_pbe_bader_spin_density
 _atom_site_pbe_cm5_charge
 _atom_site_pbe_ddec_charge
 _atom_site_pbe_ddec_spin_density
 _atom_site_pbe_ddec_sum_bond_order
 _atom_site_pbe_magmom
Tb  Tb0  1  0.70913745  0.15209473  0.11073348  1  0  2.29747  0  1.616972  0  0  2.225032  0  1.948825  0  0  2.270607  0  1.90595  0  0  1.505881  2.122236  0  2.109013  0
Tb  Tb1  1  0.97285065  0.34799787  0.38928292  1  0  2.297864  0  1.615789  0  0  2.225534  0  1.94747  0  0  2.271075  0  1.904643  0  0  1.505669  2.123096  0  2.106978  0
Tb  Tb2  1  0.29085828  0.84790682  0.88926725  1  0  2.29745  0  1.61692  0  0  2.225003  0  1.948765  0  0  2.270577  0  1.905888  0  0  1.505854  2.122219  0  2.108953  0
Tb  Tb3  1  0.02715424  0.65200205  0.61071653  1  0  2.2979  0  1.615706  0  0  2.225581  0  1.947377  0  0  2.271119  0  1.904554  0  0  1.505707  2.123131  0  2.106932  0
H  H4  1  0.19220357  0.48992006  0.18702661  1  0  0.13513  0  0.962288  0  0  0.144169  0  1.022347  0  0  0.147728  0  1.019915  0  0  0.110229  0.141485  0  1.024211  0
H  H5  1  0.86888596  0.00935619  0.31307342  1  0  0.135116  0  0.962484  0  0  0.144482  0  1.022031  0  0  0.148162  0  1.019498  0  0  0.110626  0.141698  0  1.024009  0
H  H6  1  0.80780278  0.51008306  0.81297138  1  0  0.135147  0  0.962324  0  0  0.144206  0  1.022367  0  0  0.147764  0  1.019937  0  0  0.110251  0.141522  0  1.024237  0
H  H7  1  0.13111566  0.99064373  0.68692580  1  0  0.135138  0  0.962477  0  0  0.144476  0  1.022061  0  0  0.148156  0  1.019527  0  0  0.110611  0.141693  0  1.024046  0
H  H8  1  0.18291168  0.67599798  0.08697361  1  0  0.108892  0  0.955124  0  0  0.114261  0  1.027386  0  0  0.117904  0  1.023926  0  0  0.107596  0.112244  0  1.028551  0
H  H9  1  0.94484225  0.82317347  0.41318707  1  0  0.108558  0  0.956654  0  0  0.11421  0  1.028547  0  0  0.117856  0  1.025085  0  0  0.107555  0.112196  0  1.029667  0
H  H10  1  0.81708967  0.32400755  0.91302455  1  0  0.108873  0  0.955239  0  0  0.114258  0  1.027485  0  0  0.117896  0  1.024031  0  0  0.107598  0.112242  0  1.028643  0
H  H11  1  0.05516435  0.17682322  0.58681067  1  0  0.108594  0  0.956579  0  0  0.114212  0  1.028543  0  0  0.117858  0  1.02508  0  0  0.107579  0.112203  0  1.02966  0
H  H12  1  0.18736169  0.84682545  0.20557083  1  0  0.12177  0  0.966211  0  0  0.128347  0  1.031938  0  0  0.132143  0  1.028912  0  0  0.106507  0.125313  0  1.034774  0
H  H13  1  0.24001999  0.65342009  0.29436393  1  0  0.121824  0  0.964554  0  0  0.128393  0  1.030434  0  0  0.13219  0  1.027398  0  0  0.106668  0.125348  0  1.033316  0
H  H14  1  0.81263204  0.15317132  0.79443279  1  0  0.121793  0  0.966275  0  0  0.128392  0  1.031954  0  0  0.132187  0  1.028933  0  0  0.106504  0.125355  0  1.034788  0
H  H15  1  0.75996320  0.34657827  0.70563883  1  0  0.121827  0  0.964708  0  0  0.128428  0  1.030541  0  0  0.132229  0  1.027496  0  0  0.106683  0.125382  0  1.033423  0
H  H16  1  0.00160646  0.18522626  0.23364239  1  0  0.442055  0  0.845633  0  0  0.410271  0  0.916692  0  0  0.420967  0  0.900902  0  0  0.311727  0.402669  0  0.927516  0
H  H17  1  0.42118467  0.31463313  0.26650516  1  0  0.443198  0  0.84474  0  0  0.411319  0  0.915305  0  0  0.422026  0  0.899519  0  0  0.312598  0.403716  0  0.926116  0
H  H18  1  0.99839388  0.81477286  0.76635679  1  0  0.44205  0  0.84562  0  0  0.410271  0  0.916684  0  0  0.420967  0  0.900893  0  0  0.311738  0.402671  0  0.927508  0
H  H19  1  0.57881723  0.68536841  0.73349465  1  0  0.443169  0  0.844739  0  0  0.41129  0  0.915339  0  0  0.421997  0  0.899552  0  0  0.312581  0.403692  0  0.926144  0
H  H20  1  0.16624355  0.08873484  0.18259241  1  0  0.440795  0  0.853211  0  0  0.408741  0  0.91954  0  0  0.41913  0  0.90414  0  0  0.308761  0.401554  0  0.929725  0
H  H21  1  0.43816028  0.41125705  0.31749090  1  0  0.44138  0  0.852618  0  0  0.409255  0  0.918998  0  0  0.419645  0  0.903592  0  0  0.308839  0.402058  0  0.929199  0
H  H22  1  0.83375970  0.91126427  0.81740561  1  0  0.440813  0  0.853186  0  0  0.408753  0  0.919524  0  0  0.41914  0  0.904129  0  0  0.308776  0.401568  0  0.929707  0
H  H23  1  0.56184298  0.58874369  0.68250974  1  0  0.441418  0  0.852564  0  0  0.409293  0  0.918944  0  0  0.419683  0  0.903538  0  0  0.308882  0.402102  0  0.929137  0
H  H24  1  0.92547193  0.08182903  0.93610430  1  0  0.445258  0  0.847717  0  0  0.415417  0  0.91072  0  0  0.425465  0  0.895739  0  0  0.309763  0.408356  0  0.920812  0
H  H25  1  0.94346807  0.41821933  0.56410821  1  0  0.444779  0  0.848564  0  0  0.415044  0  0.911407  0  0  0.425088  0  0.896424  0  0  0.3097  0.408004  0  0.921481  0
H  H26  1  0.07451735  0.91817174  0.06389806  1  0  0.445283  0  0.847674  0  0  0.415432  0  0.910672  0  0  0.425494  0  0.895677  0  0  0.309756  0.408364  0  0.920767  0
H  H27  1  0.05653166  0.58178144  0.43589421  1  0  0.444787  0  0.848558  0  0  0.415051  0  0.911401  0  0  0.425093  0  0.896424  0  0  0.309697  0.408013  0  0.921471  0
H  H28  1  0.68214455  0.04390322  0.94602020  1  0  0.453191  0  0.830053  0  0  0.427807  0  0.88237  0  0  0.437295  0  0.868694  0  0  0.312893  0.420451  0  0.892873  0
H  H29  1  0.67227015  0.45584903  0.55388096  1  0  0.453874  0  0.828798  0  0  0.427824  0  0.882219  0  0  0.437355  0  0.868485  0  0  0.312967  0.420434  0  0.892767  0
H  H30  1  0.31784865  0.95609836  0.05398307  1  0  0.453139  0  0.83014  0  0  0.427763  0  0.882439  0  0  0.437251  0  0.868764  0  0  0.312872  0.420408  0  0.892939  0
H  H31  1  0.32773511  0.54415010  0.44611857  1  0  0.453895  0  0.828759  0  0  0.427828  0  0.882209  0  0  0.43736  0  0.868475  0  0  0.312951  0.420438  0  0.892755  0
C  C32  1  0.82960815  0.37227031  0.17716572  1  0  0.735323  0  3.861753  0  0  0.690543  0  4.14982  0  0  0.726785  0  4.137134  0  0  0.232471  0.664799  0  4.155467  0
C  C33  1  0.37927595  0.12756535  0.32298167  1  0  0.735054  0  3.862452  0  0  0.690575  0  4.149656  0  0  0.72684  0  4.136931  0  0  0.232225  0.6648  0  4.155384  0
C  C34  1  0.17040065  0.62773043  0.82283464  1  0  0.735166  0  3.862045  0  0  0.690505  0  4.149962  0  0  0.72674  0  4.137284  0  0  0.23243  0.664776  0  4.155625  0
C  C35  1  0.62072185  0.87243298  0.67701874  1  0  0.735175  0  3.862629  0  0  0.69068  0  4.149854  0  0  0.726947  0  4.137132  0  0  0.232313  0.664916  0  4.155584  0
C  C36  1  0.87479985  0.47815513  0.13693601  1  0  -0.16492  0  3.698003  0  0  -0.149861  0  3.968436  0  0  -0.157454  0  3.988918  0  0  -0.023671  -0.145151  0  3.956036  0
C  C37  1  0.48980464  0.02161313  0.36323211  1  0  -0.165652  0  3.696989  0  0  -0.149759  0  3.96603  0  0  -0.157363  0  3.986549  0  0  -0.023504  -0.14505  0  3.953647  0
C  C38  1  0.12520976  0.52184717  0.86306090  1  0  -0.164696  0  3.697928  0  0  -0.149727  0  3.968405  0  0  -0.15732  0  3.98889  0  0  -0.023606  -0.145048  0  3.956054  0
C  C39  1  0.51020334  0.97838359  0.63676777  1  0  -0.165717  0  3.697108  0  0  -0.149824  0  3.966158  0  0  -0.157431  0  3.98668  0  0  -0.023532  -0.145136  0  3.953805  0
C  C40  1  0.06001331  0.52655667  0.14486111  1  0  -0.081689  0  3.738216  0  0  -0.11676  0  4.009753  0  0  -0.116426  0  4.027776  0  0  -0.098369  -0.116831  0  3.997842  0
C  C41  1  0.73110111  0.97290599  0.35526364  1  0  -0.080943  0  3.735539  0  0  -0.117121  0  4.008313  0  0  -0.116833  0  4.026152  0  0  -0.098769  -0.117119  0  3.996443  0
C  C42  1  0.93999286  0.47344406  0.85513838  1  0  -0.08178  0  3.738292  0  0  -0.116834  0  4.009808  0  0  -0.116498  0  4.027832  0  0  -0.098392  -0.116897  0  3.997915  0
C  C43  1  0.26890850  0.02709073  0.64473635  1  0  -0.081009  0  3.73552  0  0  -0.117163  0  4.008288  0  0  -0.116876  0  4.026127  0  0  -0.09877  -0.117156  0  3.99643  0
C  C44  1  0.05445328  0.62467669  0.09188532  1  0  -0.095997  0  3.815851  0  0  -0.132115  0  4.094438  0  0  -0.130822  0  4.112025  0  0  -0.099103  -0.132514  0  4.081629  0
C  C45  1  0.77021290  0.87475873  0.40830343  1  0  -0.095652  0  3.816145  0  0  -0.132149  0  4.094786  0  0  -0.13081  0  4.112309  0  0  -0.099154  -0.132524  0  4.082036  0
C  C46  1  0.94554724  0.37532482  0.90811236  1  0  -0.096056  0  3.816065  0  0  -0.132186  0  4.094725  0  0  -0.130877  0  4.112266  0  0  -0.099162  -0.132583  0  4.0819  0
C  C47  1  0.22979462  0.12523957  0.59169427  1  0  -0.095558  0  3.81608  0  0  -0.132016  0  4.094678  0  0  -0.130677  0  4.112202  0  0  -0.099122  -0.132399  0  4.081929  0
C  C48  1  0.86471338  0.65050190  0.04496082  1  0  -0.175294  0  3.727952  0  0  -0.157088  0  3.992484  0  0  -0.165119  0  4.01341  0  0  -0.02421  -0.15213  0  3.979806  0
C  C49  1  0.55929023  0.84930628  0.45526940  1  0  -0.176843  0  3.729799  0  0  -0.158511  0  3.994071  0  0  -0.166547  0  4.014987  0  0  -0.024198  -0.153672  0  3.981573  0
C  C50  1  0.13529257  0.34949956  0.95503316  1  0  -0.17518  0  3.727835  0  0  -0.157036  0  3.992484  0  0  -0.165064  0  4.013416  0  0  -0.024147  -0.152056  0  3.979773  0
C  C51  1  0.44071766  0.15069204  0.54472969  1  0  -0.176868  0  3.729691  0  0  -0.158555  0  3.994047  0  0  -0.16659  0  4.01496  0  0  -0.024184  -0.153694  0  3.981521  0
C  C52  1  0.80263304  0.74718703  0.98416009  1  0  0.748818  0  3.867743  0  0  0.700899  0  4.162697  0  0  0.737454  0  4.149572  0  0  0.230879  0.675332  0  4.167432  0
C  C53  1  0.53288617  0.75257417  0.51594952  1  0  0.752072  0  3.866258  0  0  0.704207  0  4.160835  0  0  0.740788  0  4.147689  0  0  0.232344  0.678666  0  4.165592  0
C  C54  1  0.19736567  0.25281209  0.01583897  1  0  0.748883  0  3.867312  0  0  0.700926  0  4.16237  0  0  0.73748  0  4.149252  0  0  0.230929  0.675353  0  4.167096  0
C  C55  1  0.46711446  0.24742738  0.48405156  1  0  0.752167  0  3.865942  0  0  0.704224  0  4.160686  0  0  0.740801  0  4.147542  0  0  0.23232  0.678677  0  4.165437  0
C  C56  1  0.61521268  0.94034322  0.16053661  1  0  0.663009  0  3.939214  0  0  0.609574  0  4.241433  0  0  0.644257  0  4.232301  0  0  0.202006  0.587155  0  4.239944  0
C  C57  1  0.71646454  0.55982455  0.33920151  1  0  0.662671  0  3.940967  0  0  0.609713  0  4.242984  0  0  0.644387  0  4.233832  0  0  0.202269  0.587273  0  4.241539  0
C  C58  1  0.38477686  0.05965752  0.83946373  1  0  0.663042  0  3.939113  0  0  0.609655  0  4.241299  0  0  0.644336  0  4.232168  0  0  0.202032  0.587236  0  4.239803  0
C  C59  1  0.28353218  0.44017619  0.66079867  1  0  0.662637  0  3.94098  0  0  0.609691  0  4.243004  0  0  0.644365  0  4.23385  0  0  0.202283  0.587254  0  4.241558  0
C  C60  1  0.56635112  0.83888830  0.20752598  1  0  -0.144735  0  3.70629  0  0  -0.129046  0  3.973304  0  0  -0.136407  0  3.994217  0  0  -0.019453  -0.124995  0  3.960714  0
C  C61  1  0.61321645  0.66125300  0.29207593  1  0  -0.14344  0  3.706125  0  0  -0.128718  0  3.974397  0  0  -0.136033  0  3.995276  0  0  -0.020253  -0.124678  0  3.961798  0
C  C62  1  0.43362606  0.16111164  0.79247489  1  0  -0.144869  0  3.706494  0  0  -0.129254  0  3.973586  0  0  -0.13661  0  3.994488  0  0  -0.01949  -0.1252  0  3.96099  0
C  C63  1  0.38677772  0.33874613  0.70792417  1  0  -0.143493  0  3.706033  0  0  -0.128818  0  3.97437  0  0  -0.136132  0  3.995247  0  0  -0.020297  -0.124781  0  3.961781  0
C  C64  1  0.35354060  0.80103359  0.22596284  1  0  -0.069569  0  3.704487  0  0  -0.10366  0  3.975551  0  0  -0.102824  0  3.993136  0  0  -0.092726  -0.104221  0  3.964558  0
C  C65  1  0.38079067  0.69914983  0.27378309  1  0  -0.069331  0  3.703236  0  0  -0.103305  0  3.974648  0  0  -0.102533  0  3.992301  0  0  -0.092579  -0.103845  0  3.9636  0
C  C66  1  0.64645515  0.19896319  0.77404227  1  0  -0.069597  0  3.704256  0  0  -0.103671  0  3.975281  0  0  -0.102839  0  3.992864  0  0  -0.09269  -0.104225  0  3.964283  0
C  C67  1  0.61919825  0.30085174  0.72621919  1  0  -0.069279  0  3.703174  0  0  -0.103263  0  3.97455  0  0  -0.102491  0  3.992201  0  0  -0.092577  -0.103795  0  3.963504  0
S  S68  1  0.69756558  0.55260943  0.06412128  1  0  0.219232  0  2.653765  0  0  0.223548  0  2.976994  0  0  0.22217  0  2.988909  0  0  0.133731  0.223405  0  2.970022  0
S  S69  1  0.31386803  0.94746057  0.43609370  1  0  0.219241  0  2.653966  0  0  0.223353  0  2.976688  0  0  0.221928  0  2.988625  0  0  0.133211  0.223252  0  2.969769  0
S  S70  1  0.30244004  0.44738889  0.93587833  1  0  0.21917  0  2.653749  0  0  0.223534  0  2.977042  0  0  0.222155  0  2.988959  0  0  0.133737  0.223414  0  2.970069  0
S  S71  1  0.68613732  0.05253696  0.56390661  1  0  0.219209  0  2.653995  0  0  0.223341  0  2.976729  0  0  0.221916  0  2.988666  0  0  0.133195  0.223252  0  2.969808  0
S  S72  1  0.79398314  0.75005105  0.24974900  1  0  0.239734  0  2.787801  0  0  0.251792  0  3.118336  0  0  0.250127  0  3.131782  0  0  0.154935  0.251887  0  3.111108  0
S  S73  1  0.20601366  0.24994727  0.75025066  1  0  0.239908  0  2.787857  0  0  0.251987  0  3.118428  0  0  0.250319  0  3.131869  0  0  0.155018  0.252083  0  3.111201  0
O  O74  1  0.72127964  0.32430543  0.13662917  1  0  -0.73359  0  2.037893  0  0  -0.691933  0  2.289959  0  0  -0.716001  0  2.277045  0  0  -0.398997  -0.665306  0  2.301473  0
O  O75  1  0.18292011  0.17573842  0.36357659  1  0  -0.733203  0  2.036249  0  0  -0.69158  0  2.288058  0  0  -0.715655  0  2.275084  0  0  -0.398946  -0.664958  0  2.299499  0
O  O76  1  0.27871837  0.67569693  0.86337235  1  0  -0.733526  0  2.038086  0  0  -0.691908  0  2.290099  0  0  -0.715971  0  2.277186  0  0  -0.398955  -0.665261  0  2.301613  0
O  O77  1  0.81708423  0.82425910  0.63642298  1  0  -0.73333  0  2.036223  0  0  -0.6917  0  2.288034  0  0  -0.715773  0  2.275053  0  0  -0.399014  -0.665064  0  2.299476  0
O  O78  1  0.90130527  0.33273407  0.24968761  1  0  -0.750171  0  2.037914  0  0  -0.700819  0  2.284684  0  0  -0.726034  0  2.271418  0  0  -0.389244  -0.672932  0  2.295672  0
O  O79  1  0.48362147  0.16695318  0.25039516  1  0  -0.749697  0  2.039178  0  0  -0.700701  0  2.285878  0  0  -0.725941  0  2.272722  0  0  -0.389244  -0.672811  0  2.296998  0
O  O80  1  0.09870408  0.66726826  0.75031133  1  0  -0.750174  0  2.037814  0  0  -0.700854  0  2.284499  0  0  -0.726085  0  2.271277  0  0  -0.38923  -0.672956  0  2.295498  0
O  O81  1  0.51638832  0.83304593  0.74960333  1  0  -0.749689  0  2.039359  0  0  -0.700687  0  2.28605  0  0  -0.725916  0  2.272869  0  0  -0.389248  -0.672799  0  2.297176  0
O  O82  1  0.62313954  0.75471117  0.94580007  1  0  -0.744523  0  2.006279  0  0  -0.705371  0  2.265841  0  0  -0.728529  0  2.249959  0  0  -0.415983  -0.677756  0  2.279891  0
O  O83  1  0.32271766  0.74517252  0.55436542  1  0  -0.74447  0  2.005477  0  0  -0.705615  0  2.265362  0  0  -0.728722  0  2.249373  0  0  -0.416254  -0.678057  0  2.279333  0
O  O84  1  0.37686209  0.24528957  0.05420045  1  0  -0.744606  0  2.006171  0  0  -0.705431  0  2.265773  0  0  -0.728591  0  2.249895  0  0  -0.416019  -0.677803  0  2.279809  0
O  O85  1  0.67728933  0.25482583  0.44563632  1  0  -0.744572  0  2.005385  0  0  -0.70568  0  2.265303  0  0  -0.72879  0  2.24932  0  0  -0.416261  -0.678117  0  2.27926  0
O  O86  1  0.93342715  0.81710866  0.97347280  1  0  -0.739974  0  2.011423  0  0  -0.690999  0  2.264119  0  0  -0.716702  0  2.251832  0  0  -0.406589  -0.663455  0  2.27424  0
O  O87  1  0.72284454  0.68241406  0.52649602  1  0  -0.742561  0  2.011225  0  0  -0.693531  0  2.263625  0  0  -0.719176  0  2.251121  0  0  -0.407721  -0.666062  0  2.273831  0
O  O88  1  0.06656466  0.18289207  0.02652702  1  0  -0.739943  0  2.011163  0  0  -0.690955  0  2.263915  0  0  -0.71666  0  2.251626  0  0  -0.406614  -0.66341  0  2.274035  0
O  O89  1  0.27716744  0.31758188  0.47350555  1  0  -0.742522  0  2.011114  0  0  -0.693461  0  2.263551  0  0  -0.719103  0  2.25105  0  0  -0.407681  -0.666  0  2.273754  0
O  O90  1  0.44717497  0.01211590  0.13096873  1  0  -0.704298  0  2.033109  0  0  -0.64589  0  2.25935  0  0  -0.670047  0  2.24822  0  0  -0.340377  -0.62275  0  2.265763  0
O  O91  1  0.59057235  0.48815791  0.36885771  1  0  -0.705033  0  2.031505  0  0  -0.645953  0  2.25707  0  0  -0.670145  0  2.245971  0  0  -0.339778  -0.622885  0  2.263598  0
O  O92  1  0.55281848  0.98788483  0.86903121  1  0  -0.704324  0  2.033156  0  0  -0.645911  0  2.259366  0  0  -0.670068  0  2.248237  0  0  -0.340389  -0.622764  0  2.265769  0
O  O93  1  0.40942792  0.51184444  0.63114329  1  0  -0.705051  0  2.031552  0  0  -0.645964  0  2.257097  0  0  -0.670154  0  2.245998  0  0  -0.3398  -0.622891  0  2.263628  0
O  O94  1  0.82728312  0.95889702  0.15097800  1  0  -0.703401  0  2.028586  0  0  -0.650894  0  2.270292  0  0  -0.675114  0  2.259094  0  0  -0.365736  -0.626719  0  2.276974  0
O  O95  1  0.93758409  0.54121405  0.34877652  1  0  -0.702903  0  2.029163  0  0  -0.651363  0  2.271752  0  0  -0.675605  0  2.260568  0  0  -0.365842  -0.627207  0  2.278444  0
O  O96  1  0.17270288  0.04110293  0.84902282  1  0  -0.703465  0  2.028453  0  0  -0.650932  0  2.270041  0  0  -0.675149  0  2.258835  0  0  -0.365788  -0.626754  0  2.276722  0
O  O97  1  0.06241734  0.45878906  0.65122112  1  0  -0.702908  0  2.029221  0  0  -0.651376  0  2.271803  0  0  -0.675617  0  2.260617  0  0  -0.365836  -0.627211  0  2.278497  0
O  O98  1  0.00095130  0.11939480  0.20845287  1  0  -0.897039  0  1.917675  0  0  -0.857501  0  2.113822  0  0  -0.875589  0  2.082159  0  0  -0.63029  -0.836117  0  2.139902  0
O  O99  1  0.32945740  0.38043337  0.29166840  1  0  -0.898874  0  1.918414  0  0  -0.859118  0  2.114725  0  0  -0.877216  0  2.082967  0  0  -0.631388  -0.837849  0  2.140981  0
O  O100  1  0.99904804  0.88060432  0.79154555  1  0  -0.897033  0  1.917638  0  0  -0.857495  0  2.113796  0  0  -0.875582  0  2.082133  0  0  -0.630308  -0.836111  0  2.139876  0
O  O101  1  0.67054449  0.61956735  0.70833011  1  0  -0.898833  0  1.91827  0  0  -0.85909  0  2.114621  0  0  -0.877187  0  2.082865  0  0  -0.631376  -0.837799  0  2.140867  0
O  O102  1  0.76773994  0.08530248  0.97305654  1  0  -0.926239  0  1.885568  0  0  -0.892754  0  2.082944  0  0  -0.910115  0  2.05141  0  0  -0.644953  -0.870265  0  2.109078  0
O  O103  1  0.82655321  0.41467456  0.52694221  1  0  -0.92628  0  1.885679  0  0  -0.892224  0  2.083194  0  0  -0.90964  0  2.051608  0  0  -0.644811  -0.869693  0  2.10919  0
O  O104  1  0.23225552  0.91469828  0.02694491  1  0  -0.926223  0  1.885593  0  0  -0.892709  0  2.083026  0  0  -0.910092  0  2.051445  0  0  -0.644915  -0.870208  0  2.109175  0
O  O105  1  0.17344560  0.58532378  0.47305895  1  0  -0.926316  0  1.88566  0  0  -0.892254  0  2.083207  0  0  -0.909663  0  2.051609  0  0  -0.644799  -0.869719  0  2.109196  0
