# generated using pymatgen
data_CoH24C26(SN7)2
_symmetry_space_group_name_H-M   'P 1'
_cell_length_a   8.45753558
_cell_length_b   8.78848073
_cell_length_c   9.58785979
_cell_angle_alpha   96.44109499
_cell_angle_beta   98.58886775
_cell_angle_gamma   96.94865030
_symmetry_Int_Tables_number   1
_chemical_formula_structural   CoH24C26(SN7)2
_chemical_formula_sum   'Co1 H24 C26 S2 N14'
_cell_volume   693.30087026
_cell_formula_units_Z   1
loop_
 _symmetry_equiv_pos_site_id
 _symmetry_equiv_pos_as_xyz
  1  'x, y, z'
loop_
 _atom_site_type_symbol
 _atom_site_label
 _atom_site_symmetry_multiplicity
 _atom_site_fract_x
 _atom_site_fract_y
 _atom_site_fract_z
 _atom_site_occupancy
 _atom_site_hle17_ddec_charge
 _atom_site_hle17_ddec_spin_density
 _atom_site_hle17_ddec_sum_bond_order
 _atom_site_hle17_magmom
 _atom_site_hse06_10hf_ddec_charge
 _atom_site_hse06_10hf_ddec_spin_density
 _atom_site_hse06_10hf_ddec_sum_bond_order
 _atom_site_hse06_10hf_magmom
 _atom_site_hse06_ddec_charge
 _atom_site_hse06_ddec_spin_density
 _atom_site_hse06_ddec_sum_bond_order
 _atom_site_hse06_magmom
 _atom_site_pbe_cm5_charge
 _atom_site_pbe_ddec_charge
 _atom_site_pbe_ddec_spin_density
 _atom_site_pbe_ddec_sum_bond_order
 _atom_site_pbe_magmom
Co  Co0  1  0.99999926  0.49999815  0.99999950  1  0.664594  1.105928  2.799113  0.997  0.652344  1.009807  3.238664  0.935  0.713099  1.013792  3.169609  0.948  0.7081  0.615295  0.999251  3.282801  0.916
H  H1  1  0.64207775  0.06225935  0.23791680  1  0.077235  -0.000274  1.008914  0.0  0.081165  -0.000119  1.085751  0.0  0.083876  -9e-05  1.084778  0.0  0.083428  0.081001  -0.000149  1.083261  0.0
H  H2  1  0.35792718  0.93774248  0.76208820  1  0.077254  -0.000274  1.008878  0.0  0.081201  -0.00012  1.085701  0.0  0.083914  -9e-05  1.084728  0.0  0.083403  0.081038  -0.000149  1.083207  0.0
H  H3  1  0.83859562  0.25813702  0.40688559  1  0.085399  -1.6e-05  0.966679  0.0  0.093288  -2.6e-05  1.033445  0.0  0.095869  -1.4e-05  1.032835  0.0  0.094503  0.091031  -3e-05  1.034515  0.0
H  H4  1  0.16140879  0.74186136  0.59311585  1  0.085414  -1.6e-05  0.966672  0.0  0.093312  -2.6e-05  1.033429  0.0  0.095878  -1.4e-05  1.032834  0.0  0.094505  0.091053  -3e-05  1.034496  0.0
H  H5  1  0.94592174  0.19284354  0.64732290  1  0.081607  -3.4e-05  0.970594  0.0  0.091255  -2.5e-05  1.036439  0.0  0.093322  -2.3e-05  1.035891  0.0  0.096392  0.090068  -2.2e-05  1.036138  0.0
H  H6  1  0.05408639  0.80715604  0.35267807  1  0.081582  -3.4e-05  0.97064  0.0  0.091233  -2.5e-05  1.036472  0.0  0.0933  -2.4e-05  1.035924  0.0  0.096376  0.090041  -2.2e-05  1.036177  0.0
H  H7  1  0.84780501  0.94372338  0.71993705  1  0.087656  -0.000152  0.982561  0.0  0.094836  -7.3e-05  1.050599  0.0  0.097067  -5e-05  1.050293  0.0  0.093031  0.094632  -8e-05  1.047814  0.0
H  H8  1  0.15220318  0.05627618  0.28006704  1  0.087579  -0.000152  0.982669  0.0  0.094743  -7.3e-05  1.050718  0.0  0.096962  -5e-05  1.050424  0.0  0.093029  0.094541  -8e-05  1.047933  0.0
H  H9  1  0.53995251  0.73623067  0.64705259  1  0.096126  -7e-06  0.923855  0.0  0.111302  -1e-05  0.989002  0.0  0.111682  -6e-06  0.989223  0.0  0.1194  0.110782  -3e-06  0.989274  0.0
H  H10  1  0.46004786  0.26377344  0.35294796  1  0.09613  -7e-06  0.923847  0.0  0.111315  -1e-05  0.988997  0.0  0.111689  -6e-06  0.989211  0.0  0.119419  0.110793  -3e-06  0.989275  0.0
H  H11  1  0.55919068  0.62677793  0.48555688  1  0.091578  -6e-06  0.935415  0.0  0.10157  3e-06  1.007125  0.0  0.103294  1e-06  1.004955  0.0  0.117266  0.099886  4e-06  1.009119  0.0
H  H12  1  0.44080731  0.37322615  0.51444443  1  0.091551  -6e-06  0.935409  0.0  0.101559  3e-06  1.00711  0.0  0.103275  1e-06  1.004949  0.0  0.117267  0.099896  4e-06  1.009081  0.0
H  H13  1  0.42254736  0.71351458  0.31633288  1  0.102521  5.1e-05  0.912524  0.0  0.116921  6.7e-05  0.972369  0.0  0.118329  4.5e-05  0.971811  0.0  0.120391  0.115962  9.7e-05  0.972633  0.0
H  H14  1  0.57745287  0.28648837  0.68366857  1  0.102534  5.1e-05  0.912531  0.0  0.116953  6.7e-05  0.972348  0.0  0.118362  4.5e-05  0.971787  0.0  0.120381  0.115994  9.7e-05  0.972611  0.0
H  H15  1  0.46280080  0.83804110  0.18941939  1  0.084921  -0.0001  0.978206  0.0  0.095543  -8.5e-05  1.051046  0.0  0.096062  -6.6e-05  1.051152  0.0  0.100908  0.094891  -8.6e-05  1.051092  0.0
H  H16  1  0.53720202  0.16196302  0.81058458  1  0.085004  -0.000101  0.978147  0.0  0.09563  -8.5e-05  1.050947  0.0  0.096148  -6.6e-05  1.051054  0.0  0.100979  0.094961  -8.6e-05  1.051009  0.0
H  H17  1  0.03525574  0.43938700  0.65982140  1  0.091659  -5.2e-05  0.965012  0.0  0.093487  -7.2e-05  1.038931  0.0  0.095779  -6.1e-05  1.035844  0.0  0.132901  0.091512  -8.6e-05  1.041259  0.0
H  H18  1  0.96474264  0.56061133  0.34017724  1  0.091708  -5.2e-05  0.965034  0.0  0.093511  -7.2e-05  1.038983  0.0  0.095803  -6e-05  1.035895  0.0  0.132929  0.091537  -8.6e-05  1.041312  0.0
H  H19  1  0.72404349  0.68956235  0.86805417  1  0.103585  -0.000231  0.962686  0.0  0.107667  -0.000187  1.036883  0.0  0.109933  -0.000143  1.033092  0.0  0.136349  0.106243  -0.000189  1.039034  0.0
H  H20  1  0.27595597  0.31043481  0.13194655  1  0.103642  -0.000231  0.962632  0.0  0.107674  -0.000186  1.036882  0.0  0.109942  -0.000143  1.03309  0.0  0.136352  0.106252  -0.000189  1.039033  0.0
H  H21  1  0.66039510  0.31864910  0.11042004  1  0.091406  -9.6e-05  0.943989  0.0  0.101426  -1e-05  1.004969  0.0  0.102825  -2.4e-05  1.003672  0.0  0.128775  0.100001  9e-06  1.006994  0.0
H  H22  1  0.33959791  0.68135378  0.88957847  1  0.091421  -9.5e-05  0.943978  0.0  0.101439  -1e-05  1.004958  0.0  0.10284  -2.5e-05  1.003656  0.0  0.128767  0.10001  9e-06  1.006987  0.0
H  H23  1  0.80133498  0.79818830  0.13730449  1  0.108131  -0.000102  0.956139  0.0  0.11447  -6e-05  1.025657  0.0  0.116786  -5.6e-05  1.023353  0.0  0.131907  0.112876  -3.7e-05  1.026975  0.0
H  H24  1  0.19866384  0.20181350  0.86269354  1  0.108114  -0.000102  0.95616  0.0  0.114457  -6e-05  1.025673  0.0  0.116772  -5.5e-05  1.023371  0.0  0.131908  0.112863  -3.6e-05  1.026991  0.0
C  C25  1  0.68884267  0.86074175  0.52134430  1  0.027915  0.000137  3.71322  0.0  0.040658  3.8e-05  3.958808  0.0  0.039619  4.5e-05  3.982885  0.0  -0.013323  0.040585  8.2e-05  3.942739  0.0
C  C26  1  0.31115946  0.13925777  0.47865491  1  0.027941  0.000137  3.713262  0.0  0.040684  3.9e-05  3.958897  0.0  0.039642  4.4e-05  3.98296  0.0  -0.013339  0.040615  8.2e-05  3.942826  0.0
C  C27  1  0.63183981  0.89425517  0.38430945  1  0.019605  -0.000356  3.72879  0.0  0.036754  -0.000144  3.963953  0.0  0.034681  -0.000153  3.989715  0.0  -0.017  0.038157  -0.000158  3.946996  0.0
C  C28  1  0.36816292  0.10574898  0.61568930  1  0.019546  -0.000355  3.72876  0.0  0.036649  -0.000147  3.963965  0.0  0.034576  -0.000149  3.989727  0.0  -0.017049  0.038052  -0.000158  3.947002  0.0
C  C29  1  0.68582389  0.03810454  0.34512077  1  -0.123177  2.8e-05  3.773232  0.0  -0.139692  -1e-06  4.01812  0.0  -0.143024  1.1e-05  4.041263  0.0  -0.098105  -0.13738  1e-06  3.999423  0.0
C  C30  1  0.31418109  0.96189848  0.65487916  1  -0.123218  2.7e-05  3.773067  0.0  -0.139731  -1e-06  4.017943  0.0  -0.143065  8e-06  4.041085  0.0  -0.098073  -0.13742  1e-06  3.999243  0.0
C  C31  1  0.79722228  0.14683656  0.43883421  1  -0.066794  -0.000339  3.772688  0.0  -0.080387  -9.4e-05  4.019406  0.0  -0.082324  -9e-05  4.041441  0.0  -0.096379  -0.079036  -8.5e-05  4.004777  0.0
C  C32  1  0.20278116  0.85316414  0.56116320  1  -0.066788  -0.000338  3.772583  0.0  -0.080386  -9.4e-05  4.019297  0.0  -0.082309  -8.5e-05  4.041341  0.0  -0.096382  -0.079032  -8.5e-05  4.004662  0.0
C  C33  1  0.85696303  0.11102851  0.57309415  1  -0.054868  0.000152  3.770302  0.0  -0.068295  5.7e-05  4.018908  0.0  -0.070217  4.4e-05  4.041759  0.0  -0.090975  -0.067126  9.1e-05  4.002344  0.0
C  C34  1  0.14304297  0.88897337  0.42690369  1  -0.054972  0.000152  3.770531  0.0  -0.068398  5.9e-05  4.019128  0.0  -0.070321  4.2e-05  4.041969  0.0  -0.091007  -0.067227  9.1e-05  4.00257  0.0
C  C35  1  0.80237951  0.96938794  0.61394879  1  -0.108052  -0.00044  3.752181  0.0  -0.128635  -0.000137  4.001325  0.0  -0.131646  -0.000129  4.024329  0.0  -0.094066  -0.12505  -0.000134  3.981462  0.0
C  C36  1  0.19762381  0.03061160  0.38605056  1  -0.107859  -0.00044  3.752226  0.0  -0.128416  -0.00014  4.001351  0.0  -0.13141  -0.000126  4.024356  0.0  -0.094016  -0.124832  -0.000134  3.981489  0.0
C  C37  1  0.62436340  0.71286385  0.57317136  1  -0.049512  -6.4e-05  3.655836  0.0  -0.132584  -2.7e-05  3.912973  0.0  -0.127899  -2.3e-05  3.921907  0.0  -0.040766  -0.135459  4e-05  3.907419  0.0
C  C38  1  0.37563851  0.28713332  0.42683278  1  -0.049448  -6.5e-05  3.655871  0.0  -0.132528  -2.7e-05  3.913061  0.0  -0.127852  -2.4e-05  3.922038  0.0  -0.040779  -0.135414  4e-05  3.907505  0.0
C  C39  1  0.51976609  0.77805853  0.27413978  1  -0.056968  0.000516  3.635542  0.001  -0.133654  0.000494  3.87954  0.001  -0.129347  0.000362  3.889103  0.001  -0.047324  -0.136056  0.000609  3.872672  0.001
C  C40  1  0.48023449  0.22194672  0.72586405  1  -0.057195  0.000516  3.635736  0.001  -0.133892  0.000494  3.879727  0.001  -0.129577  0.000363  3.889275  0.001  -0.047406  -0.136281  0.000609  3.872877  0.001
C  C41  1  0.94035531  0.50645184  0.68116196  1  0.190729  -0.005074  3.684705  -0.004  0.14145  -0.002328  3.97839  -0.002  0.154529  -0.001926  3.990587  -0.001  0.148147  0.133322  -0.002613  3.968907  -0.002
C  C42  1  0.05963965  0.49354759  0.31883744  1  0.190674  -0.005065  3.684682  -0.004  0.141434  -0.002333  3.978358  -0.002  0.154515  -0.001925  3.99055  -0.001  0.148108  0.133306  -0.002613  3.968875  -0.002
C  C43  1  0.78476770  0.63363598  0.78961213  1  0.178837  -0.007774  3.623639  -0.005  0.097509  -0.003476  3.901292  -0.002  0.114796  -0.002801  3.91092  -0.002  0.169767  0.086355  -0.004048  3.894529  -0.003
C  C44  1  0.21522933  0.36636117  0.21038622  1  0.178728  -0.007767  3.623552  -0.005  0.097481  -0.003476  3.901231  -0.002  0.114768  -0.002799  3.910859  -0.002  0.169697  0.086332  -0.004048  3.894467  -0.003
C  C45  1  0.66451194  0.44306560  0.13406317  1  0.186377  -0.004931  3.702268  -0.003  0.139063  -0.001495  3.992907  0.0  0.149651  -0.001861  4.006618  -0.001  0.13809  0.131838  -0.001333  3.984175  0.0
C  C46  1  0.33548453  0.55693615  0.86593666  1  0.186309  -0.004934  3.702283  -0.003  0.138997  -0.001496  3.992919  0.0  0.149583  -0.001861  4.006631  -0.001  0.138089  0.131773  -0.001333  3.984182  0.0
C  C47  1  0.73964177  0.68478099  0.14672664  1  0.145282  -0.006942  3.626727  -0.004  0.077225  -0.002055  3.890427  -0.001  0.090576  -0.002425  3.901711  -0.001  0.154044  0.068701  -0.001898  3.882425  0.0
C  C48  1  0.26035814  0.31521965  0.85327347  1  0.145284  -0.006944  3.626858  -0.004  0.077212  -0.002055  3.890544  -0.001  0.090561  -0.002426  3.901827  -0.001  0.15403  0.068686  -0.001898  3.882543  0.0
C  C49  1  0.83278947  0.17071741  0.95989020  1  0.280147  -0.026682  4.01747  -0.018  0.274638  -0.010435  4.322334  -0.007  0.299541  -0.009303  4.332798  -0.006  0.138148  0.256857  -0.010566  4.316975  -0.007
C  C50  1  0.16720010  0.82926808  0.04011016  1  0.280316  -0.026648  4.017913  -0.018  0.274812  -0.010425  4.322747  -0.007  0.299714  -0.009296  4.333199  -0.006  0.138277  0.257036  -0.010556  4.317391  -0.007
S  S51  1  0.71821033  0.01108612  0.96834838  1  -0.3829  -0.019591  2.064513  -0.009  -0.374371  -0.005682  2.368789  -0.002  -0.387319  -0.004747  2.360331  -0.002  -0.170771  -0.366078  -0.006434  2.37339  -0.002
S  S52  1  0.28178620  0.98890757  0.03164744  1  -0.383147  -0.019573  2.064107  -0.009  -0.37461  -0.005675  2.368372  -0.002  -0.387564  -0.004741  2.359911  -0.002  -0.170905  -0.366308  -0.006427  2.372974  -0.002
N  N53  1  0.74971708  0.63923279  0.64933961  1  0.044661  -0.000317  3.580892  0.0  0.165707  -0.000483  3.766768  0.0  0.154652  -0.0003  3.790463  0.0  -0.134347  0.170992  -0.000509  3.753297  0.0
N  N54  1  0.25028286  0.36076783  0.35066259  1  0.04473  -0.000318  3.580759  0.0  0.165726  -0.000482  3.76668  0.0  0.154666  -0.000301  3.790366  0.0  -0.134237  0.170989  -0.000509  3.753256  0.0
N  N55  1  0.84786983  0.55913588  0.57809899  1  -0.272942  -0.000721  2.84671  0.0  -0.274604  -0.000433  3.115706  0.0  -0.283269  -0.000184  3.129403  0.0  -0.22368  -0.26774  -0.000562  3.106109  0.0
N  N56  1  0.15212752  0.44086358  0.42190069  1  -0.272964  -0.000726  2.846671  0.0  -0.274607  -0.000431  3.115666  0.0  -0.283269  -0.000185  3.129365  0.0  -0.223704  -0.267733  -0.000563  3.106064  0.0
N  N57  1  0.90481002  0.54888798  0.81370109  1  -0.307222  -0.011207  3.325862  -0.006  -0.265649  -0.005572  3.631601  -0.004  -0.295762  -0.005613  3.647486  -0.004  -0.338221  -0.245868  -0.004547  3.620031  -0.003
N  N58  1  0.09518479  0.45111029  0.18629816  1  -0.307184  -0.011215  3.325892  -0.006  -0.265665  -0.005573  3.631657  -0.004  -0.295779  -0.005614  3.64754  -0.004  -0.338193  -0.245882  -0.004548  3.620085  -0.003
N  N59  1  0.60775958  0.66153820  0.20944450  1  0.047952  0.000561  3.547128  0.001  0.167529  0.000463  3.734857  0.001  0.156625  0.000375  3.759573  0.001  -0.131566  0.173811  0.00064  3.719485  0.001
N  N60  1  0.39223944  0.33846474  0.79055576  1  0.048114  0.000562  3.547421  0.001  0.167727  0.000464  3.735082  0.001  0.156823  0.000375  3.759796  0.001  -0.13154  0.173998  0.00064  3.719725  0.001
N  N61  1  0.55868085  0.50731804  0.20323715  1  -0.291814  0.002616  2.885666  0.004  -0.290862  0.001535  3.161027  0.002  -0.298701  0.001269  3.17528  0.002  -0.225527  -0.285066  0.001933  3.151378  0.003
N  N62  1  0.44131456  0.49268486  0.79676164  1  -0.291767  0.002617  2.885745  0.004  -0.290828  0.001535  3.16108  0.002  -0.298668  0.001268  3.175335  0.002  -0.225478  -0.285029  0.001933  3.151431  0.003
N  N63  1  0.77808506  0.54800718  0.09698239  1  -0.354892  0.030663  3.190941  0.054  -0.313217  0.027544  3.485734  0.046  -0.334536  0.022833  3.498608  0.039  -0.321367  -0.298123  0.032203  3.476276  0.052
N  N64  1  0.22191228  0.45199229  0.90301625  1  -0.354878  0.030665  3.190937  0.054  -0.313208  0.027544  3.485744  0.046  -0.334518  0.022833  3.498608  0.039  -0.32137  -0.298111  0.032204  3.476283  0.052
N  N65  1  0.90912610  0.29129343  0.95299296  1  -0.486507  -0.002204  3.173972  0.007  -0.467711  -0.002081  3.483363  0.001  -0.492016  -0.0018  3.485253  0.001  -0.4141  -0.454197  -0.001771  3.484085  0.001
N  N66  1  0.09087787  0.70871072  0.04700802  1  -0.48643  -0.002212  3.174723  0.007  -0.467628  -0.002084  3.484084  0.001  -0.491933  -0.001804  3.485974  0.001  -0.414068  -0.454116  -0.001773  3.484806  0.001
