# generated using pymatgen
data_CdH22C28(NO3)2
_symmetry_space_group_name_H-M   'P 1'
_cell_length_a   8.75570521
_cell_length_b   12.90466187
_cell_length_c   17.09720130
_cell_angle_alpha   67.82765796
_cell_angle_beta   85.94448527
_cell_angle_gamma   79.23555593
_symmetry_Int_Tables_number   1
_chemical_formula_structural   CdH22C28(NO3)2
_chemical_formula_sum   'Cd2 H44 C56 N4 O12'
_cell_volume   1757.47187976
_cell_formula_units_Z   2
loop_
 _symmetry_equiv_pos_site_id
 _symmetry_equiv_pos_as_xyz
  1  'x, y, z'
loop_
 _atom_site_type_symbol
 _atom_site_label
 _atom_site_symmetry_multiplicity
 _atom_site_fract_x
 _atom_site_fract_y
 _atom_site_fract_z
 _atom_site_occupancy
 _atom_site_pbe_bader_charge
 _atom_site_pbe_bader_spin_density
 _atom_site_pbe_cm5_charge
 _atom_site_pbe_ddec_charge
 _atom_site_pbe_ddec_spin_density
 _atom_site_pbe_ddec_sum_bond_order
 _atom_site_pbe_magmom
Cd  Cd0  1  0.45684357  0.15237528  0.00003495  1  1.279098  0  0.761112  0.866054  0  2.260196  0
Cd  Cd1  1  0.54315373  0.84762593  0.99996597  1  1.279089  0  0.761137  0.866061  0  2.260183  0
H  H2  1  0.11500498  0.89313558  0.00004957  1  0.158332  0  0.108476  0.140525  0  1.001187  0
H  H3  1  0.88499155  0.10686737  0.99994791  1  0.158282  0  0.108488  0.140522  0  1.001192  0
H  H4  1  0.67860066  0.46656829  0.00010312  1  0.122829  0  0.104687  0.127682  0  0.989338  0
H  H5  1  0.32140639  0.53343133  0.99989682  1  0.122566  0  0.104714  0.127688  0  0.989295  0
H  H6  1  0.21762223  0.27129324  0.85310656  1  0.126148  0  0.123946  0.105259  0  0.993607  0
H  H7  1  0.78237408  0.87560752  0.85294333  1  0.128774  0  0.124475  0.106265  0  0.992746  0
H  H8  1  0.78237221  0.72870802  0.14689178  1  0.126221  0  0.123937  0.105231  0  0.993721  0
H  H9  1  0.21762554  0.12438938  0.14705680  1  0.128797  0  0.124466  0.106244  0  0.992754  0
H  H10  1  0.69309483  0.17437321  0.84121947  1  0.132992  0  0.122577  0.096719  0  0.978235  0
H  H11  1  0.30688627  0.98426910  0.84120819  1  0.120603  0  0.122332  0.09639  0  0.977949  0
H  H12  1  0.30689979  0.82562815  0.15878301  1  0.133056  0  0.12257  0.096715  0  0.978202  0
H  H13  1  0.69311256  0.01573143  0.15879171  1  0.120616  0  0.122337  0.096377  0  0.977956  0
H  H14  1  0.69001458  0.25044554  0.68187882  1  0.095672  0  0.103567  0.110846  0  1.025355  0
H  H15  1  0.30994879  0.06753758  0.68186906  1  0.108107  0  0.103802  0.110978  0  1.025129  0
H  H16  1  0.30998577  0.74955561  0.31812386  1  0.095665  0  0.103598  0.110898  0  1.025302  0
H  H17  1  0.69005139  0.93246171  0.31813123  1  0.108108  0  0.10379  0.11094  0  1.025155  0
H  H18  1  0.43488564  0.34096065  0.60777058  1  0.078056  0  0.102783  0.098221  0  1.019763  0
H  H19  1  0.56507158  0.05109058  0.60767694  1  0.078092  0  0.10232  0.097726  0  1.019641  0
H  H20  1  0.56511873  0.65903970  0.39223033  1  0.078054  0  0.102787  0.098237  0  1.019768  0
H  H21  1  0.43492727  0.94890820  0.39232472  1  0.078146  0  0.102323  0.097686  0  1.019617  0
H  H22  1  0.05942869  0.36928468  0.73244589  1  0.070967  0  0.113219  0.087598  0  0.954267  0
H  H23  1  0.94050092  0.89814088  0.73223960  1  0.086231  0  0.112794  0.087065  0  0.95533  0
H  H24  1  0.94057092  0.63071397  0.26755249  1  0.070915  0  0.113214  0.08758  0  0.954243  0
H  H25  1  0.05950021  0.10185956  0.26776038  1  0.086225  0  0.11279  0.087069  0  0.955333  0
H  H26  1  0.15069814  0.45752083  0.64043421  1  0.090854  0  0.101012  0.071912  0  1.010081  0
H  H27  1  0.84932693  0.90214361  0.64014193  1  0.048444  0  0.100802  0.071646  0  1.010878  0
H  H28  1  0.84929859  0.54247976  0.35956480  1  0.090865  0  0.101019  0.071904  0  1.010098  0
H  H29  1  0.15067344  0.09785565  0.35985754  1  0.048312  0  0.100814  0.071675  0  1.010853  0
H  H30  1  0.78144956  0.26117347  0.46653372  1  0.046719  0  0.100569  0.104329  0  1.001585  0
H  H31  1  0.21835817  0.27253770  0.46643696  1  0.06091  0  0.100494  0.103669  0  1.001283  0
H  H32  1  0.21854565  0.73882722  0.53346689  1  0.046671  0  0.100569  0.104332  0  1.001593  0
H  H33  1  0.78164469  0.72746027  0.53356293  1  0.060862  0  0.100516  0.103682  0  1.001329  0
H  H34  1  0.59866951  0.43825400  0.45786078  1  0.06296  0  0.095685  0.09221  0  1.032322  0
H  H35  1  0.40128646  0.10421615  0.45767542  1  0.067284  0  0.095622  0.091689  0  1.033871  0
H  H36  1  0.40132684  0.56174606  0.54214045  1  0.062984  0  0.095684  0.092229  0  1.032311  0
H  H37  1  0.59871735  0.89578240  0.54232475  1  0.067312  0  0.095623  0.091695  0  1.033903  0
H  H38  1  0.65991458  0.55326191  0.53742722  1  0.040937  0  0.097285  0.088342  0  1.016925  0
H  H39  1  0.34034192  0.90958352  0.53734729  1  0.040498  0  0.097142  0.088227  0  1.016722  0
H  H40  1  0.34008540  0.44673916  0.46257214  1  0.040969  0  0.097316  0.088387  0  1.01691  0
H  H41  1  0.65965865  0.09041454  0.46265253  1  0.040478  0  0.097128  0.088163  0  1.016818  0
H  H42  1  0.89821566  0.49299974  0.62251077  1  0.071503  0  0.10543  0.11462  0  1.018673  0
H  H43  1  0.10205606  0.88457509  0.62249418  1  0.075109  0  0.105341  0.114174  0  1.019289  0
H  H44  1  0.10178813  0.50700232  0.37748589  1  0.071503  0  0.105412  0.114612  0  1.018598  0
H  H45  1  0.89794297  0.11542541  0.37750491  1  0.075113  0  0.105325  0.114131  0  1.01931  0
C  C46  1  0.19727003  0.04577314  0.00002068  1  1.540674  0  0.185459  0.589222  0  4.245694  0
C  C47  1  0.80272728  0.95422690  0.99998140  1  1.540534  0  0.185453  0.589127  0  4.246011  0
C  C48  1  0.07611682  0.97879366  0.00001507  1  -0.231659  0  -0.08986  -0.188776  0  3.909445  0
C  C49  1  0.92387857  0.02120875  0.99998296  1  0.016515  0  -0.089907  -0.188732  0  3.90949  0
C  C50  1  0.52582243  0.34806747  0.00002861  1  1.507853  0  0.169553  0.587879  0  4.249058  0
C  C51  1  0.47418156  0.65193235  0.99997453  1  1.507951  0  0.169587  0.587996  0  4.24906  0
C  C52  1  0.55720526  0.45737927  0.00003636  1  -0.118733  0  -0.091227  -0.174401  0  3.908729  0
C  C53  1  0.44280025  0.54262220  0.99996342  1  -0.021459  0  -0.091231  -0.174406  0  3.908725  0
C  C54  1  0.31889637  0.26940758  0.81202393  1  0.421399  0  0.055672  0.040899  0  3.909619  0
C  C55  1  0.68108923  0.91848617  0.81188941  1  0.496238  0  0.055697  0.039466  0  3.909026  0
C  C56  1  0.68110056  0.73059298  0.18797426  1  0.421353  0  0.055691  0.040946  0  3.909783  0
C  C57  1  0.31891115  0.08151250  0.18811064  1  0.496247  0  0.055763  0.039637  0  3.909023  0
C  C58  1  0.58549635  0.21490018  0.80549584  1  0.435109  0  0.056393  0.098642  0  3.931232  0
C  C59  1  0.41449110  0.97946238  0.80545460  1  0.433067  0  0.056955  0.099918  0  3.930572  0
C  C60  1  0.41450115  0.78509984  0.19450543  1  0.435035  0  0.05642  0.098686  0  3.931226  0
C  C61  1  0.58550908  0.02053691  0.19454569  1  0.433052  0  0.056947  0.09995  0  3.930526  0
C  C62  1  0.58295614  0.25750466  0.71746777  1  0.002044  0  -0.08439  -0.12673  0  3.993037  0
C  C63  1  0.41701770  0.02486904  0.71741802  1  -0.002763  0  -0.083728  -0.126383  0  3.990163  0
C  C64  1  0.41704440  0.74249704  0.28253350  1  0.001987  0  -0.084423  -0.126853  0  3.99303  0
C  C65  1  0.58298133  0.97513088  0.28258164  1  -0.00275  0  -0.083716  -0.126347  0  3.990147  0
C  C66  1  0.44075834  0.30791485  0.67653659  1  -0.05938  0  -0.069909  -0.080769  0  3.948699  0
C  C67  1  0.55920533  0.01537150  0.67643903  1  -0.068733  0  -0.069619  -0.080699  0  3.945335  0
C  C68  1  0.55924527  0.69208547  0.32346264  1  -0.059481  0  -0.069933  -0.080783  0  3.948767  0
C  C69  1  0.44079465  0.98462841  0.32356150  1  -0.068799  0  -0.06963  -0.08066  0  3.945257  0
C  C70  1  0.30518195  0.31478019  0.72421622  1  0.111243  0  -0.010756  0.036771  0  3.985535  0
C  C71  1  0.69477449  0.96086863  0.72407882  1  0.038112  0  -0.011348  0.036907  0  3.984996  0
C  C72  1  0.69481707  0.68522089  0.27578227  1  0.111424  0  -0.010752  0.03678  0  3.985516  0
C  C73  1  0.30522455  0.03913012  0.27592202  1  0.038125  0  -0.011296  0.036911  0  3.984972  0
C  C74  1  0.14917011  0.36913736  0.68385541  1  0.369097  0  -0.057364  -0.013349  0  3.906745  0
C  C75  1  0.85079713  0.94695016  0.68368013  1  0.382326  0  -0.055831  -0.011107  0  3.905111  0
C  C76  1  0.85083006  0.63086368  0.31614312  1  0.369127  0  -0.057315  -0.013274  0  3.906655  0
C  C77  1  0.14920076  0.05304862  0.31632067  1  0.382459  0  -0.055879  -0.01118  0  3.90523  0
C  C78  1  0.97762100  0.34354769  0.59154933  1  0.471526  0  0.086927  0.212393  0  4.035074  0
C  C79  1  0.02237502  0.06498637  0.59147922  1  0.473874  0  0.086211  0.212101  0  4.037068  0
C  C80  1  0.02237648  0.65645583  0.40844843  1  0.47156  0  0.086869  0.212311  0  4.035368  0
C  C81  1  0.97762668  0.93501281  0.40851947  1  0.473924  0  0.086258  0.212139  0  4.037008  0
C  C82  1  0.94445171  0.27768136  0.54701683  1  0.068557  0  -0.016522  -0.019201  0  3.991792  0
C  C83  1  0.05546831  0.17540967  0.54696202  1  -0.038928  0  -0.016744  -0.021343  0  3.994637  0
C  C84  1  0.05554980  0.72231902  0.45298151  1  0.068645  0  -0.016526  -0.0193  0  3.991953  0
C  C85  1  0.94452862  0.82458972  0.45303733  1  -0.038944  0  -0.016714  -0.021309  0  3.994724  0
C  C86  1  0.80665961  0.31266152  0.50047127  1  -0.098957  0  -0.092205  -0.118637  0  4.011636  0
C  C87  1  0.19322321  0.18708723  0.50035699  1  -0.006827  0  -0.091576  -0.116417  0  4.009695  0
C  C88  1  0.19333998  0.68733961  0.49952972  1  -0.098882  0  -0.092208  -0.118563  0  4.011616  0
C  C89  1  0.80677984  0.81291071  0.49964209  1  -0.006767  0  -0.091616  -0.116394  0  4.009765  0
C  C90  1  0.70366935  0.41144933  0.49608247  1  -0.031124  0  -0.11158  -0.127763  0  4.077022  0
C  C91  1  0.29630800  0.09274514  0.49594144  1  -0.058938  0  -0.11165  -0.127561  0  4.078487  0
C  C92  1  0.29633043  0.58855177  0.50391771  1  -0.031298  0  -0.111589  -0.127826  0  4.077173  0
C  C93  1  0.70369104  0.90725361  0.50405940  1  -0.058895  0  -0.111695  -0.127674  0  4.078491  0
C  C94  1  0.73835650  0.47564019  0.54017765  1  -0.044205  0  -0.095353  -0.065823  0  4.06387  0
C  C95  1  0.26177195  0.98441914  0.54007129  1  -0.067008  0  -0.095114  -0.065614  0  4.062396  0
C  C96  1  0.26164384  0.52436389  0.45982210  1  -0.044304  0  -0.095424  -0.065896  0  4.064041  0
C  C97  1  0.73822748  0.01557779  0.45992966  1  -0.067113  0  -0.095059  -0.065489  0  4.062396  0
C  C98  1  0.87383486  0.44206724  0.58820962  1  -0.058242  0  -0.110185  -0.222155  0  4.030106  0
C  C99  1  0.12629992  0.96985498  0.58814452  1  -0.019316  0  -0.110183  -0.221888  0  4.028703  0
C  C100  1  0.12616759  0.55793547  0.41178723  1  -0.058094  0  -0.110075  -0.222021  0  4.02994  0
C  C101  1  0.87369682  0.03014444  0.41185565  1  -0.019217  0  -0.110218  -0.221867  0  4.028649  0
N  N102  1  0.45576317  0.22058703  0.85138813  1  -1.231485  0  -0.317821  -0.208383  0  3.512042  0
N  N103  1  0.54422642  0.92794451  0.85130369  1  -1.212851  0  -0.319097  -0.20979  0  3.512237  0
N  N104  1  0.54423203  0.77941366  0.14861248  1  -1.231498  0  -0.317841  -0.208399  0  3.512141  0
N  N105  1  0.45577147  0.07205486  0.14869652  1  -1.212873  0  -0.319154  -0.209931  0  3.51238  0
O  O106  1  0.34061716  0.99748624  0.00001546  1  -1.175964  0  -0.344506  -0.590811  0  2.374506  0
O  O107  1  0.65938015  0.00251484  0.99998050  1  -1.176184  0  -0.344532  -0.590778  0  2.374592  0
O  O108  1  0.16180601  0.14515081  0.00002450  1  -1.162077  0  -0.328876  -0.547316  0  2.102602  0
O  O109  1  0.83819283  0.85484634  0.99998387  1  -1.161938  0  -0.328865  -0.547302  0  2.102755  0
O  O110  1  0.64195185  0.27130420  0.00005886  1  -1.162677  0  -0.361906  -0.587988  0  2.091308  0
O  O111  1  0.35805175  0.72869672  0.99993979  1  -1.162696  0  -0.361922  -0.588038  0  2.091301  0
O  O112  1  0.38445368  0.33454939  0.99999515  1  -1.139988  0  -0.357981  -0.573393  0  2.135929  0
O  O113  1  0.61554993  0.66544932  0.00001080  1  -1.140062  0  -0.357981  -0.573405  0  2.135981  0
O  O114  1  0.11319530  0.30474710  0.63645636  1  -1.065867  0  -0.176435  -0.19977  0  2.552073  0
O  O115  1  0.88677653  0.05878306  0.63640554  1  -1.05902  0  -0.17659  -0.200308  0  2.552111  0
O  O116  1  0.88680735  0.69525324  0.36354202  1  -1.06591  0  -0.176432  -0.199753  0  2.552236  0
O  O117  1  0.11322383  0.94121795  0.36359217  1  -1.059078  0  -0.176597  -0.200328  0  2.552214  0
