# generated using pymatgen
data_CoH4C8(N2O)2
_symmetry_space_group_name_H-M   'P 1'
_cell_length_a   4.94517138
_cell_length_b   10.27143737
_cell_length_c   16.96996571
_cell_angle_alpha   89.99994305
_cell_angle_beta   90.00002640
_cell_angle_gamma   98.97283177
_symmetry_Int_Tables_number   1
_chemical_formula_structural   CoH4C8(N2O)2
_chemical_formula_sum   'Co4 H16 C32 N16 O8'
_cell_volume   851.42427362
_cell_formula_units_Z   4
loop_
 _symmetry_equiv_pos_site_id
 _symmetry_equiv_pos_as_xyz
  1  'x, y, z'
loop_
 _atom_site_type_symbol
 _atom_site_label
 _atom_site_symmetry_multiplicity
 _atom_site_fract_x
 _atom_site_fract_y
 _atom_site_fract_z
 _atom_site_occupancy
 _atom_site_hle17_ddec_charge
 _atom_site_hle17_ddec_spin_density
 _atom_site_hle17_ddec_sum_bond_order
 _atom_site_hle17_magmom
 _atom_site_hse06_10hf_ddec_charge
 _atom_site_hse06_10hf_ddec_spin_density
 _atom_site_hse06_10hf_ddec_sum_bond_order
 _atom_site_hse06_10hf_magmom
 _atom_site_hse06_ddec_charge
 _atom_site_hse06_ddec_spin_density
 _atom_site_hse06_ddec_sum_bond_order
 _atom_site_hse06_magmom
 _atom_site_pbe_cm5_charge
 _atom_site_pbe_ddec_charge
 _atom_site_pbe_ddec_spin_density
 _atom_site_pbe_ddec_sum_bond_order
 _atom_site_pbe_magmom
Co  Co0  1  0.70819312  0.64638206  0.34376896  1  0.978424  2.812307  2.054457  2.533  0.922943  2.817057  2.512275  2.584  1.010428  2.863794  2.427395  2.674  0.719003  0.849993  2.771335  2.581402  2.499
Co  Co1  1  0.29180854  0.85361773  0.84376929  1  0.978429  2.812306  2.054438  2.533  0.922936  2.817058  2.512272  2.584  1.010426  2.863794  2.427391  2.674  0.718992  0.849992  2.771376  2.581384  2.499
Co  Co2  1  0.29180942  0.35361846  0.65623106  1  0.978417  2.812307  2.054439  2.533  0.922893  2.81706  2.512304  2.584  1.010399  2.863795  2.427409  2.674  0.718982  0.849955  2.771346  2.581424  2.499
Co  Co3  1  0.70819198  0.14638279  0.15623073  1  0.97845  2.812307  2.054405  2.533  0.922921  2.817058  2.512286  2.584  1.010419  2.863794  2.42739  2.674  0.718989  0.849968  2.771343  2.581413  2.499
H  H4  1  0.11510981  0.71159073  0.22221886  1  0.100501  0.000208  0.953622  0.0  0.104706  0.000431  1.028138  0.0  0.107812  0.00028  1.025741  0.0  0.104572  0.10248  0.000599  1.029892  0.0
H  H5  1  0.88488937  0.78840827  0.72221813  1  0.100504  0.000208  0.953666  0.0  0.104717  0.000431  1.028163  0.0  0.107822  0.00028  1.025768  0.0  0.10457  0.102492  0.000599  1.029918  0.0
H  H6  1  0.88489038  0.28840881  0.77778116  1  0.100506  0.000209  0.95362  0.0  0.104713  0.000431  1.028131  0.0  0.107819  0.00028  1.025734  0.0  0.104573  0.102489  0.000599  1.029887  0.0
H  H7  1  0.11511114  0.21159225  0.27778130  1  0.100484  0.000208  0.953674  0.0  0.104691  0.000431  1.028182  0.0  0.107797  0.00028  1.025786  0.0  0.10455  0.102466  0.000599  1.029935  0.0
H  H8  1  0.28598159  0.61266003  0.10405249  1  0.100967  -1.7e-05  0.969793  0.0  0.104259  2e-05  1.038275  0.0  0.107633  -6e-06  1.036837  0.0  0.103984  0.101891  5.1e-05  1.039275  0.0
H  H9  1  0.71401778  0.88734014  0.60405227  1  0.100963  -1.7e-05  0.9698  0.0  0.104253  2e-05  1.038288  0.0  0.107626  -6e-06  1.036851  0.0  0.103982  0.101884  5.1e-05  1.039288  0.0
H  H10  1  0.71401658  0.38733951  0.89594753  1  0.100966  -1.8e-05  0.969801  0.0  0.104256  1.9e-05  1.03829  0.0  0.10763  -6e-06  1.036853  0.0  0.103982  0.101888  5.1e-05  1.039291  0.0
H  H11  1  0.28598305  0.11266137  0.39594775  1  0.100976  -1.7e-05  0.969787  0.0  0.104266  2e-05  1.038272  0.0  0.10764  -6e-06  1.036835  0.0  0.103997  0.101896  5.1e-05  1.039272  0.0
H  H12  1  0.13331210  0.67028741  0.97033707  1  0.096568  0.000156  0.95283  0.0  0.10214  0.000375  1.021064  0.0  0.105116  0.000244  1.018517  0.0  0.106852  0.100089  0.000506  1.022804  0.0
H  H13  1  0.86668830  0.82971415  0.47033665  1  0.096548  0.000156  0.952831  0.0  0.102119  0.000374  1.021069  0.0  0.105094  0.000244  1.018523  0.0  0.106835  0.100064  0.000506  1.022806  0.0
H  H14  1  0.86668842  0.32971311  0.02966295  1  0.096557  0.000156  0.952836  0.0  0.102129  0.000374  1.021068  0.0  0.105104  0.000244  1.018522  0.0  0.106849  0.100077  0.000506  1.022807  0.0
H  H15  1  0.13331221  0.17028637  0.52966278  1  0.096547  0.000156  0.952831  0.0  0.10212  0.000374  1.021064  0.0  0.105095  0.000244  1.018518  0.0  0.106841  0.100068  0.000506  1.022802  0.0
H  H16  1  0.61003007  0.91984519  0.07503115  1  0.105438  0.000498  0.976023  0.001  0.111849  0.000808  1.045995  0.001  0.115416  0.000551  1.043602  0.001  0.106658  0.109208  0.00105  1.047774  0.001
H  H17  1  0.38997162  0.58015601  0.57503048  1  0.10545  0.000499  0.976017  0.001  0.111871  0.000808  1.045982  0.001  0.115435  0.000551  1.043598  0.001  0.106666  0.109231  0.00105  1.047761  0.001
H  H18  1  0.38997247  0.08015533  0.92496946  1  0.105439  0.000499  0.976014  0.001  0.111832  0.000808  1.04601  0.001  0.115399  0.000551  1.043618  0.001  0.106652  0.109195  0.00105  1.047783  0.001
H  H19  1  0.61002687  0.41984452  0.42496954  1  0.105426  0.000499  0.976016  0.001  0.111818  0.000808  1.046016  0.001  0.115386  0.000552  1.043623  0.001  0.106657  0.109181  0.001051  1.047794  0.001
C  C20  1  0.73042403  0.87777019  0.22613519  1  0.318858  -0.004652  3.757255  0.001  0.297649  0.005683  4.016867  0.009  0.314639  0.004204  4.034221  0.007  0.233055  0.284938  0.006072  4.005166  0.01
C  C21  1  0.26957548  0.62222978  0.72613447  1  0.318863  -0.004655  3.757249  0.001  0.297648  0.005684  4.016867  0.009  0.314636  0.004204  4.034224  0.007  0.233035  0.284941  0.006071  4.005164  0.01
C  C22  1  0.26957617  0.12222935  0.77386542  1  0.318854  -0.004656  3.757317  0.001  0.297635  0.005683  4.016939  0.009  0.31463  0.004202  4.034286  0.007  0.233043  0.284924  0.006071  4.005238  0.01
C  C23  1  0.73042504  0.37777074  0.27386554  1  0.318817  -0.004655  3.75724  0.001  0.297603  0.005684  4.016877  0.009  0.314597  0.004204  4.034225  0.007  0.233033  0.284894  0.006072  4.005176  0.01
C  C24  1  0.85197024  0.82421079  0.15727237  1  -0.009977  0.001647  3.80384  0.003  0.008207  0.000196  4.045646  0.001  0.002721  3.5e-05  4.068581  0.001  -0.004728  0.012156  0.000595  4.030188  0.001
C  C25  1  0.14802887  0.67578831  0.65727220  1  -0.009959  0.001657  3.803861  0.003  0.008249  0.000196  4.045647  0.001  0.002768  3.5e-05  4.068578  0.001  -0.004721  0.012194  0.000595  4.030194  0.001
C  C26  1  0.14802964  0.17578776  0.84272765  1  -0.010013  0.001659  3.803881  0.003  0.008189  0.000196  4.045669  0.001  0.002703  3.5e-05  4.068601  0.001  -0.004753  0.012135  0.000595  4.030215  0.001
C  C27  1  0.85197164  0.32421222  0.34272782  1  -0.00999  0.001655  3.803845  0.003  0.008183  0.000196  4.045682  0.001  0.002699  3.6e-05  4.06861  0.001  -0.004755  0.01213  0.000596  4.03023  0.001
C  C28  1  0.04283945  0.73681794  0.16430889  1  -0.061519  -0.004218  3.681607  -0.003  -0.094612  0.001162  3.942931  0.001  -0.09375  0.000859  3.962628  0.001  -0.076342  -0.095089  0.001205  3.929525  0.001
C  C29  1  0.95715797  0.76318213  0.66430878  1  -0.061533  -0.004243  3.681656  -0.003  -0.09463  0.001162  3.942973  0.001  -0.093767  0.000858  3.962669  0.001  -0.076316  -0.095108  0.001205  3.929573  0.001
C  C30  1  0.95715873  0.26318160  0.83569113  1  -0.06151  -0.004247  3.681606  -0.003  -0.094601  0.001162  3.942929  0.001  -0.093737  0.000859  3.962625  0.001  -0.076317  -0.09508  0.001205  3.929529  0.001
C  C31  1  0.04284286  0.23681938  0.33569065  1  -0.06153  -0.004236  3.681626  -0.003  -0.094611  0.001162  3.942941  0.001  -0.093749  0.000857  3.962638  0.001  -0.076287  -0.095087  0.001205  3.929534  0.001
C  C32  1  0.14128658  0.68159986  0.09716618  1  -0.058805  0.002468  3.730044  0.003  -0.066652  0.000923  3.980646  0.001  -0.071542  0.0006  4.002469  0.001  -0.08341  -0.063651  0.001238  3.966236  0.002
C  C33  1  0.85871076  0.81840032  0.59716602  1  -0.058793  0.00248  3.730007  0.003  -0.066652  0.000923  3.98063  0.001  -0.071542  0.000599  4.002452  0.001  -0.083418  -0.063651  0.001238  3.966217  0.002
C  C34  1  0.85870957  0.31839968  0.90283384  1  -0.058803  0.002482  3.73002  0.003  -0.066667  0.000923  3.980643  0.001  -0.071558  0.0006  4.002467  0.001  -0.083421  -0.063665  0.001238  3.966234  0.002
C  C35  1  0.14129209  0.18160119  0.40283400  1  -0.058781  0.002477  3.729962  0.003  -0.066639  0.000923  3.980583  0.001  -0.071529  0.0006  4.002405  0.001  -0.083432  -0.063636  0.001238  3.966168  0.002
C  C36  1  0.05766345  0.71526239  0.02238227  1  -0.032565  -0.002489  3.688509  -0.001  -0.057936  0.001606  3.929366  0.002  -0.054797  0.001099  3.947968  0.002  -0.069798  -0.060206  0.001931  3.917107  0.003
C  C37  1  0.94233553  0.78473692  0.52238214  1  -0.032534  -0.002514  3.688458  -0.001  -0.057899  0.001606  3.929321  0.002  -0.05476  0.001099  3.947924  0.002  -0.069782  -0.060162  0.001932  3.917046  0.003
C  C38  1  0.94233473  0.28473715  0.97761775  1  -0.03253  -0.002517  3.688376  -0.001  -0.057885  0.001605  3.929232  0.002  -0.054746  0.001099  3.947836  0.002  -0.069768  -0.060148  0.001931  3.916964  0.003
C  C39  1  0.05766701  0.21526360  0.47761788  1  -0.03247  -0.002508  3.688324  -0.001  -0.057833  0.001606  3.929182  0.002  -0.054695  0.001099  3.947789  0.002  -0.069753  -0.060098  0.001932  3.916911  0.003
C  C40  1  0.76642311  0.85687356  0.08215376  1  -0.087296  -0.003248  3.691387  -0.002  -0.122086  0.002556  3.936303  0.003  -0.120778  0.001912  3.956344  0.002  -0.075763  -0.123156  0.002883  3.923321  0.003
C  C41  1  0.23357656  0.64312763  0.58215303  1  -0.087379  -0.003271  3.691496  -0.002  -0.1222  0.002557  3.936438  0.003  -0.120895  0.001913  3.956479  0.002  -0.075818  -0.123272  0.002883  3.923464  0.003
C  C42  1  0.23357538  0.14312697  0.91784685  1  -0.087361  -0.003276  3.691442  -0.002  -0.122148  0.002556  3.936386  0.003  -0.120842  0.001914  3.956428  0.002  -0.075798  -0.12322  0.002883  3.923408  0.003
C  C43  1  0.76642598  0.35687289  0.41784640  1  -0.087279  -0.003266  3.69139  -0.002  -0.122057  0.002557  3.936333  0.003  -0.120751  0.001914  3.956374  0.002  -0.075787  -0.123132  0.002883  3.923355  0.003
C  C44  1  0.87264690  0.80485252  0.01470992  1  -0.076872  0.006207  3.764303  0.01  -0.04758  0.002892  3.988047  0.005  -0.058251  0.001704  4.011077  0.003  -0.015591  -0.040621  0.004175  3.97349  0.007
C  C45  1  0.12735441  0.69514779  0.51470915  1  -0.076874  0.006216  3.764371  0.01  -0.047574  0.002891  3.988105  0.005  -0.058244  0.001703  4.011132  0.003  -0.015586  -0.040612  0.004176  3.97354  0.007
C  C46  1  0.12735330  0.19514702  0.98529069  1  -0.076827  0.006218  3.764205  0.01  -0.047538  0.002891  3.987951  0.005  -0.058208  0.001703  4.01098  0.003  -0.015577  -0.040581  0.004176  3.973397  0.007
C  C47  1  0.87264813  0.30485274  0.48529087  1  -0.077008  0.006213  3.764285  0.01  -0.047706  0.002891  3.988047  0.005  -0.058376  0.001703  4.011073  0.003  -0.015629  -0.040747  0.004176  3.973491  0.007
C  C48  1  0.76951420  0.83942249  0.93641772  1  0.677904  -0.012417  3.829824  -0.009  0.633824  0.004803  4.124983  0.005  0.676096  0.003908  4.117688  0.005  0.23326  0.6019  0.004257  4.128713  0.004
C  C49  1  0.23048585  0.66057814  0.43641732  1  0.677951  -0.012418  3.829802  -0.009  0.633884  0.004802  4.124929  0.005  0.676156  0.003909  4.11763  0.005  0.233272  0.601959  0.004258  4.128675  0.004
C  C50  1  0.23048429  0.16057803  0.06358289  1  0.677945  -0.012419  3.829793  -0.009  0.633875  0.004803  4.124937  0.005  0.676146  0.003908  4.11764  0.005  0.233267  0.601951  0.004257  4.128679  0.004
C  C51  1  0.76951435  0.33942140  0.56358270  1  0.677993  -0.012418  3.829762  -0.009  0.633885  0.004803  4.124952  0.005  0.676158  0.003909  4.117652  0.005  0.233267  0.601962  0.004258  4.128694  0.004
N  N52  1  0.64726572  0.99690339  0.22922177  1  -0.36482  0.045638  3.277839  0.068  -0.330141  0.032831  3.607906  0.039  -0.3603  0.025545  3.618467  0.029  -0.256289  -0.307224  0.039387  3.600684  0.048
N  N53  1  0.35273379  0.50309658  0.72922173  1  -0.364805  0.04564  3.277866  0.068  -0.330133  0.03283  3.607941  0.039  -0.360293  0.025543  3.618506  0.029  -0.256282  -0.307218  0.039386  3.600724  0.048
N  N54  1  0.35273245  0.00309614  0.77077825  1  -0.364877  0.04564  3.277827  0.068  -0.330214  0.032831  3.607905  0.039  -0.360374  0.025543  3.618468  0.029  -0.256317  -0.307295  0.039386  3.600677  0.048
N  N55  1  0.64726673  0.49690395  0.27077828  1  -0.364792  0.045639  3.277866  0.068  -0.33012  0.032832  3.607933  0.039  -0.360281  0.025543  3.618501  0.029  -0.256277  -0.307204  0.039387  3.600717  0.048
N  N56  1  0.53309500  0.00742102  0.30109316  1  -0.051959  -0.000986  2.968778  0.002  -0.041081  0.003701  3.268341  0.007  -0.039719  0.002161  3.281917  0.004  -0.074378  -0.041229  0.006226  3.258056  0.01
N  N57  1  0.46690623  0.49257903  0.80109343  1  -0.052  -0.000985  2.968682  0.002  -0.041121  0.003703  3.268254  0.007  -0.03976  0.002168  3.281831  0.004  -0.0744  -0.041267  0.006225  3.257973  0.01
N  N58  1  0.46690754  0.99257951  0.69890627  1  -0.051916  -0.000987  2.968663  0.002  -0.04103  0.003701  3.26822  0.007  -0.039668  0.002165  3.281793  0.004  -0.074367  -0.041176  0.006225  3.257935  0.01
N  N59  1  0.53309428  0.50742150  0.19890659  1  -0.051998  -0.000984  2.968664  0.002  -0.041122  0.003703  3.268244  0.007  -0.03976  0.002166  3.281818  0.004  -0.074401  -0.041267  0.006226  3.257962  0.01
N  N60  1  0.66796683  0.81685513  0.29559615  1  -0.352063  0.045803  3.245241  0.072  -0.317063  0.032393  3.570824  0.042  -0.345969  0.025334  3.579632  0.032  -0.252168  -0.294959  0.038892  3.565163  0.05
N  N61  1  0.33203275  0.68314474  0.79559600  1  -0.352079  0.045805  3.24525  0.072  -0.317078  0.032392  3.570842  0.042  -0.345986  0.02533  3.579655  0.032  -0.252168  -0.294976  0.03889  3.565176  0.05
N  N62  1  0.33203337  0.18314441  0.70440445  1  -0.352054  0.045805  3.245267  0.072  -0.317043  0.032392  3.57085  0.042  -0.345956  0.025334  3.579662  0.032  -0.252147  -0.294942  0.038891  3.565195  0.05
N  N63  1  0.66796777  0.31685578  0.20440402  1  -0.352075  0.045803  3.245259  0.072  -0.31706  0.032391  3.570844  0.042  -0.345971  0.025331  3.579652  0.032  -0.252165  -0.294956  0.038891  3.565187  0.05
N  N64  1  0.54580085  0.90045217  0.34089321  1  -0.064949  0.000832  2.930466  0.004  -0.058965  0.004146  3.226715  0.007  -0.056723  0.00257  3.238975  0.005  -0.087289  -0.060185  0.006419  3.217564  0.01
N  N65  1  0.45419739  0.59954959  0.84089312  1  -0.064921  0.000831  2.930389  0.004  -0.058935  0.004148  3.226636  0.007  -0.056694  0.002574  3.238897  0.005  -0.087264  -0.060153  0.006418  3.217485  0.01
N  N66  1  0.45419796  0.09954934  0.65910681  1  -0.064914  0.000832  2.930407  0.004  -0.058931  0.004148  3.226654  0.007  -0.056688  0.002573  3.238913  0.005  -0.087256  -0.060148  0.006418  3.217501  0.01
N  N67  1  0.54580312  0.40045093  0.15910749  1  -0.064888  0.000832  2.930347  0.004  -0.058902  0.004148  3.22659  0.007  -0.05666  0.002574  3.23885  0.005  -0.087251  -0.060121  0.006419  3.21744  0.01
O  O68  1  0.52594913  0.86740662  0.93506059  1  -0.594353  0.059729  2.138651  0.101  -0.554511  0.044851  2.427095  0.068  -0.599205  0.032505  2.414629  0.049  -0.301781  -0.517861  0.057943  2.433748  0.088
O  O69  1  0.47405060  0.63259303  0.43506083  1  -0.594339  0.059729  2.138633  0.101  -0.554512  0.044851  2.427078  0.068  -0.599205  0.032503  2.414613  0.049  -0.30177  -0.51786  0.057945  2.433744  0.088
O  O70  1  0.47405107  0.13259292  0.06493943  1  -0.594374  0.059732  2.138636  0.101  -0.554539  0.044853  2.427097  0.068  -0.599235  0.032505  2.41463  0.049  -0.301777  -0.517885  0.057946  2.433758  0.088
O  O71  1  0.52594960  0.36740651  0.56493919  1  -0.594363  0.05973  2.138616  0.101  -0.554508  0.044851  2.42707  0.068  -0.599205  0.032504  2.414605  0.049  -0.301765  -0.517857  0.057943  2.433734  0.088
O  O72  1  0.91140398  0.84010299  0.87359792  1  -0.623487  0.052564  2.154777  0.089  -0.594931  0.043565  2.462451  0.065  -0.638811  0.032699  2.446754  0.048  -0.309842  -0.558462  0.055221  2.471436  0.083
O  O73  1  0.08859803  0.65989774  0.37359750  1  -0.623494  0.052564  2.154769  0.089  -0.594943  0.043565  2.462427  0.065  -0.638822  0.032699  2.446731  0.048  -0.309833  -0.558476  0.055222  2.471434  0.083
O  O74  1  0.08859685  0.15989852  0.12640210  1  -0.623517  0.052563  2.154798  0.089  -0.594954  0.043564  2.462471  0.065  -0.638838  0.032699  2.446776  0.048  -0.309848  -0.558487  0.05522  2.471475  0.083
O  O75  1  0.91140419  0.34010180  0.62640252  1  -0.623499  0.052564  2.154744  0.089  -0.594919  0.043565  2.462416  0.065  -0.638809  0.032698  2.446731  0.048  -0.309833  -0.558457  0.055221  2.471426  0.083
