# generated using pymatgen
data_MgH6(CO3)2
_symmetry_space_group_name_H-M   'P 1'
_cell_length_a   7.24138719
_cell_length_b   8.50361774
_cell_length_c   8.70017433
_cell_angle_alpha   90.00045096
_cell_angle_beta   90.00007259
_cell_angle_gamma   89.99996512
_symmetry_Int_Tables_number   1
_chemical_formula_structural   MgH6(CO3)2
_chemical_formula_sum   'Mg4 H24 C8 O24'
_cell_volume   535.73923494
_cell_formula_units_Z   4
loop_
 _symmetry_equiv_pos_site_id
 _symmetry_equiv_pos_as_xyz
  1  'x, y, z'
loop_
 _atom_site_type_symbol
 _atom_site_label
 _atom_site_symmetry_multiplicity
 _atom_site_fract_x
 _atom_site_fract_y
 _atom_site_fract_z
 _atom_site_occupancy
 _atom_site_pbe_bader_spin_density
 _atom_site_pbe_cm5_charge
 _atom_site_pbe_ddec_charge
 _atom_site_pbe_ddec_spin_density
 _atom_site_pbe_ddec_sum_bond_order
 _atom_site_pbe_magmom
Mg  Mg0  1  0.00000003  0.99999883  0.00000207  1  0  0.80792  1.388296  0  1.385945  0
Mg  Mg1  1  0.50000090  0.99999864  0.49999867  1  0  0.807885  1.388343  0  1.385988  0
Mg  Mg2  1  0.99999920  0.49999955  0.50000163  1  0  0.807875  1.388214  0  1.386044  0
Mg  Mg3  1  0.50000006  0.49999936  0.99999939  1  0  0.80786  1.388208  0  1.386088  0
H  H4  1  0.07587256  0.68920060  0.82863779  1  0  0.122973  0.022418  0  1.021786  0
H  H5  1  0.57587899  0.31081264  0.67136391  1  0  0.122982  0.022458  0  1.021663  0
H  H6  1  0.92412676  0.81081129  0.32864414  1  0  0.122984  0.02245  0  1.02165  0
H  H7  1  0.42412874  0.18919065  0.17136878  1  0  0.122991  0.022455  0  1.021802  0
H  H8  1  0.92412682  0.31080111  0.17135918  1  0  0.122991  0.022438  0  1.021728  0
H  H9  1  0.42412453  0.68918319  0.32863421  1  0  0.122979  0.022494  0  1.021659  0
H  H10  1  0.07586987  0.18918571  0.67136317  1  0  0.12299  0.02253  0  1.021652  0
H  H11  1  0.57587202  0.81080988  0.82863163  1  0  0.122986  0.022453  0  1.021789  0
H  H12  1  0.65456769  0.98570549  0.12091204  1  0  0.297444  0.389786  0  0.951137  0
H  H13  1  0.15456320  0.01429541  0.37908450  1  0  0.297417  0.389716  0  0.951219  0
H  H14  1  0.34543409  0.51429413  0.62091385  1  0  0.297427  0.389723  0  0.951212  0
H  H15  1  0.84543241  0.48570721  0.87908815  1  0  0.297417  0.389724  0  0.951213  0
H  H16  1  0.34543169  0.01429622  0.87908838  1  0  0.297511  0.389904  0  0.950985  0
H  H17  1  0.84543480  0.98570747  0.62091477  1  0  0.297438  0.389745  0  0.951186  0
H  H18  1  0.65456530  0.48570641  0.37908657  1  0  0.297427  0.389725  0  0.951213  0
H  H19  1  0.15456698  0.51429450  0.12091227  1  0  0.297433  0.389736  0  0.951192  0
H  H20  1  0.64541017  0.12372768  0.99514640  1  0  0.302156  0.394923  0  0.941086  0
H  H21  1  0.14541004  0.87627494  0.50485538  1  0  0.302155  0.394922  0  0.941096  0
H  H22  1  0.35458975  0.37627118  0.49514343  1  0  0.302134  0.394889  0  0.941137  0
H  H23  1  0.85459019  0.62373080  0.00485677  1  0  0.302121  0.394882  0  0.941141  0
H  H24  1  0.35459059  0.87627285  0.00485287  1  0  0.30217  0.394938  0  0.941062  0
H  H25  1  0.85459072  0.12372677  0.49514504  1  0  0.302136  0.394896  0  0.94113  0
H  H26  1  0.64540964  0.62372935  0.50485699  1  0  0.302125  0.394891  0  0.941133  0
H  H27  1  0.14541058  0.37627091  0.99514364  1  0  0.302139  0.394895  0  0.941126  0
C  C28  1  0.01829925  0.76731053  0.73892032  1  0  0.170684  0.527453  0  4.146482  0
C  C29  1  0.51828239  0.23272155  0.76109167  1  0  0.170769  0.52771  0  4.146507  0
C  C30  1  0.98171789  0.73272532  0.23890659  1  0  0.170716  0.527514  0  4.146594  0
C  C31  1  0.48171167  0.26728364  0.26109145  1  0  0.170692  0.527556  0  4.146627  0
C  C32  1  0.98170428  0.23269118  0.26107550  1  0  0.170642  0.527436  0  4.146255  0
C  C33  1  0.48171700  0.76728016  0.23890760  1  0  0.170704  0.527532  0  4.146573  0
C  C34  1  0.01828563  0.26727521  0.76109842  1  0  0.170755  0.527452  0  4.146603  0
C  C35  1  0.51828634  0.73271689  0.73891011  1  0  0.170765  0.527671  0  4.146602  0
O  O36  1  0.95405640  0.89966001  0.77996649  1  0  -0.328974  -0.578173  0  2.317019  0
O  O37  1  0.45406404  0.10035656  0.72003333  1  0  -0.329129  -0.578547  0  2.316751  0
O  O38  1  0.04594285  0.60036207  0.27997487  1  0  -0.32909  -0.578363  0  2.316706  0
O  O39  1  0.54593823  0.39964477  0.22003305  1  0  -0.329051  -0.578347  0  2.316787  0
O  O40  1  0.04594160  0.10033818  0.22003163  1  0  -0.328983  -0.578219  0  2.316971  0
O  O41  1  0.54593948  0.89964515  0.27996364  1  0  -0.329095  -0.578465  0  2.316731  0
O  O42  1  0.95405378  0.39963846  0.72002670  1  0  -0.329157  -0.578416  0  2.316594  0
O  O43  1  0.45406391  0.60035459  0.77996622  1  0  -0.329144  -0.578495  0  2.3169  0
O  O44  1  0.02263121  0.72070157  0.60015511  1  0  -0.348052  -0.59223  0  2.310525  0
O  O45  1  0.52262556  0.27929758  0.89985344  1  0  -0.347997  -0.592258  0  2.31114  0
O  O46  1  0.97737192  0.77929671  0.10014863  1  0  -0.348008  -0.592241  0  2.311288  0
O  O47  1  0.47736731  0.22069345  0.39985401  1  0  -0.348021  -0.592285  0  2.311055  0
O  O48  1  0.97736542  0.27929896  0.39984187  1  0  -0.348028  -0.592211  0  2.3105  0
O  O49  1  0.47737520  0.72070178  0.10014583  1  0  -0.347952  -0.592176  0  2.311191  0
O  O50  1  0.02262332  0.22070383  0.89985524  1  0  -0.34798  -0.592189  0  2.311379  0
O  O51  1  0.52263345  0.77930473  0.60014526  1  0  -0.347982  -0.592282  0  2.311046  0
O  O52  1  0.72112151  0.03557657  0.03341365  1  0  -0.620165  -0.858235  0  2.096784  0
O  O53  1  0.22112476  0.96442313  0.46658756  1  0  -0.620144  -0.85819  0  2.096737  0
O  O54  1  0.27887497  0.46442090  0.53341423  1  0  -0.62013  -0.85813  0  2.096809  0
O  O55  1  0.77887753  0.53557812  0.96658655  1  0  -0.620095  -0.858104  0  2.096825  0
O  O56  1  0.27887925  0.96442514  0.96658676  1  0  -0.620241  -0.858362  0  2.096746  0
O  O57  1  0.77887601  0.03557858  0.53341171  1  0  -0.620133  -0.858191  0  2.096754  0
O  O58  1  0.72112580  0.53558081  0.46658504  1  0  -0.620122  -0.858145  0  2.096832  0
O  O59  1  0.22112324  0.46442359  0.03341157  1  0  -0.620119  -0.858123  0  2.0968  0
