# generated using pymatgen
data_Er2H16C21O17
_symmetry_space_group_name_H-M   'P 1'
_cell_length_a   9.90648273
_cell_length_b   10.65799040
_cell_length_c   28.74839611
_cell_angle_alpha   90.00005294
_cell_angle_beta   89.99975406
_cell_angle_gamma   91.84779269
_symmetry_Int_Tables_number   1
_chemical_formula_structural   Er2H16C21O17
_chemical_formula_sum   'Er8 H64 C84 O68'
_cell_volume   3033.76924930
_cell_formula_units_Z   4
loop_
 _symmetry_equiv_pos_site_id
 _symmetry_equiv_pos_as_xyz
  1  'x, y, z'
loop_
 _atom_site_type_symbol
 _atom_site_label
 _atom_site_symmetry_multiplicity
 _atom_site_fract_x
 _atom_site_fract_y
 _atom_site_fract_z
 _atom_site_occupancy
 _atom_site_pbe_bader_charge
 _atom_site_pbe_bader_spin_density
 _atom_site_pbe_cm5_charge
 _atom_site_pbe_ddec_charge
 _atom_site_pbe_ddec_spin_density
 _atom_site_pbe_ddec_sum_bond_order
 _atom_site_pbe_magmom
Er  Er0  1  0.55569812  0.04216989  0.58012901  1  2.179432  0  1.511586  2.096211  0  2.155679  0
Er  Er1  1  0.54760024  0.75771498  0.74881090  1  2.182808  0  1.49449  2.086587  0  2.092012  0
Er  Er2  1  0.44428609  0.45782974  0.08013362  1  2.179187  0  1.511484  2.096399  0  2.155242  0
Er  Er3  1  0.45240211  0.74227966  0.24880950  1  2.182847  0  1.494508  2.08663  0  2.091903  0
Er  Er4  1  0.44430139  0.95780816  0.41986396  1  2.17922  0  1.511583  2.09645  0  2.155441  0
Er  Er5  1  0.45240402  0.24228088  0.25119286  1  2.182778  0  1.494462  2.086591  0  2.091927  0
Er  Er6  1  0.55569984  0.54218779  0.91986875  1  2.179267  0  1.511599  2.096268  0  2.15559  0
Er  Er7  1  0.54760192  0.25771057  0.75119008  1  2.182967  0  1.494489  2.086595  0  2.091877  0
H  H8  1  0.98344454  0.18954231  0.58951777  1  0.110938  0  0.1095  0.116314  0  1.012205  0
H  H9  1  0.23125591  0.18465375  0.60403565  1  0.116844  0  0.114044  0.112965  0  1.01762  0
H  H10  1  0.11157115  0.81788638  0.79281785  1  0.089505  0  0.105865  0.110161  0  1.015431  0
H  H11  1  0.86862895  0.86996067  0.79025021  1  0.10104  0  0.112225  0.108811  0  1.013273  0
H  H12  1  0.93157054  0.66707049  0.51134101  1  0.072994  0  0.10723  0.112369  0  0.992616  0
H  H13  1  0.81843203  0.28625043  0.48975130  1  0.077178  0  0.110682  0.117824  0  0.975337  0
H  H14  1  0.44146341  0.29213737  0.59845051  1  0.619231  0  0.321339  0.40738  0  0.88662  0
H  H15  1  0.42510121  0.26842799  0.54343805  1  0.670203  0  0.298876  0.41688  0  0.91129  0
H  H16  1  0.40694208  0.84959380  0.63962231  1  0.657598  0  0.308777  0.403429  0  0.922719  0
H  H17  1  0.41372656  0.79944674  0.58799368  1  0.642999  0  0.333324  0.417881  0  0.864017  0
H  H18  1  0.70880351  0.84579955  0.66691962  1  0.655621  0  0.304795  0.418867  0  0.909318  0
H  H19  1  0.62513353  0.72492648  0.65390745  1  0.627733  0  0.321655  0.423805  0  0.872573  0
H  H20  1  0.39809616  0.64200685  0.67331982  1  0.613871  0  0.323077  0.405552  0  0.889085  0
H  H21  1  0.42536438  0.52246277  0.70334754  1  0.657122  0  0.303191  0.408347  0  0.926384  0
H  H22  1  0.64916394  0.77352087  0.85055702  1  0.646203  0  0.309685  0.413218  0  0.912971  0
H  H23  1  0.61290893  0.90881523  0.83162941  1  0.616074  0  0.331258  0.421955  0  0.86222  0
H  H24  1  0.01655859  0.31042815  0.08952469  1  0.111125  0  0.10949  0.116312  0  1.01227  0
H  H25  1  0.76874998  0.31534021  0.10403452  1  0.117273  0  0.114048  0.112936  0  1.017582  0
H  H26  1  0.88842480  0.68211402  0.29281372  1  0.089615  0  0.105846  0.11016  0  1.015427  0
H  H27  1  0.13137227  0.63004439  0.29024925  1  0.101154  0  0.11218  0.108763  0  1.013285  0
H  H28  1  0.06842896  0.83295465  0.01134611  1  0.072617  0  0.107242  0.112377  0  0.992772  0
H  H29  1  0.18156825  0.21377723  0.98976016  1  0.077613  0  0.110688  0.117808  0  0.9753  0
H  H30  1  0.55851073  0.20786891  0.09846147  1  0.61896  0  0.32127  0.407332  0  0.886729  0
H  H31  1  0.57491177  0.23157238  0.04344866  1  0.670427  0  0.298901  0.416836  0  0.911417  0
H  H32  1  0.59307303  0.65043343  0.13962138  1  0.657759  0  0.308607  0.403397  0  0.922725  0
H  H33  1  0.58624902  0.70058523  0.08799312  1  0.643508  0  0.333384  0.418167  0  0.863729  0
H  H34  1  0.29118216  0.65418091  0.16692712  1  0.655664  0  0.304733  0.418771  0  0.909458  0
H  H35  1  0.37489979  0.77500399  0.15389958  1  0.627911  0  0.321598  0.42382  0  0.872528  0
H  H36  1  0.60186481  0.85801504  0.17330329  1  0.614461  0  0.322987  0.405425  0  0.889285  0
H  H37  1  0.57463858  0.97753272  0.20335057  1  0.656767  0  0.303239  0.408311  0  0.926429  0
H  H38  1  0.35084145  0.72648149  0.35055960  1  0.646161  0  0.309651  0.413135  0  0.913082  0
H  H39  1  0.38707757  0.59118811  0.33162667  1  0.61591  0  0.331246  0.421986  0  0.862046  0
H  H40  1  0.01656447  0.81042067  0.41047485  1  0.111084  0  0.109461  0.116293  0  1.012232  0
H  H41  1  0.76875208  0.81533459  0.39596254  1  0.117333  0  0.114073  0.11297  0  1.017633  0
H  H42  1  0.88843777  0.18212543  0.20718660  1  0.089654  0  0.105859  0.11012  0  1.015469  0
H  H43  1  0.13138083  0.13004737  0.20975285  1  0.101055  0  0.112255  0.108902  0  1.013256  0
H  H44  1  0.06844321  0.33291031  0.48865753  1  0.073265  0  0.107186  0.112329  0  0.992528  0
H  H45  1  0.18157974  0.71373132  0.51024515  1  0.076747  0  0.110742  0.117839  0  0.975329  0
H  H46  1  0.55852492  0.70783884  0.40154212  1  0.619067  0  0.321263  0.407268  0  0.886732  0
H  H47  1  0.57490877  0.73155940  0.45655387  1  0.670427  0  0.298924  0.416841  0  0.911364  0
H  H48  1  0.59308313  0.15042170  0.36038318  1  0.657684  0  0.30874  0.403474  0  0.92262  0
H  H49  1  0.58623839  0.20057651  0.41201112  1  0.643544  0  0.333388  0.417975  0  0.863938  0
H  H50  1  0.29119201  0.15417945  0.33307648  1  0.655564  0  0.304686  0.418653  0  0.909596  0
H  H51  1  0.37491916  0.27499219  0.34610708  1  0.627884  0  0.321537  0.42382  0  0.872554  0
H  H52  1  0.60189855  0.35800314  0.32668950  1  0.614093  0  0.322972  0.405392  0  0.889299  0
H  H53  1  0.57464488  0.47753213  0.29665274  1  0.656739  0  0.303172  0.408286  0  0.926469  0
H  H54  1  0.35085092  0.22648809  0.14944395  1  0.645926  0  0.309645  0.413238  0  0.91296  0
H  H55  1  0.38709588  0.09119472  0.16837400  1  0.616215  0  0.331328  0.422123  0  0.862052  0
H  H56  1  0.98343677  0.68957244  0.91047385  1  0.111196  0  0.109491  0.116309  0  1.012166  0
H  H57  1  0.23124915  0.68465380  0.89596332  1  0.116905  0  0.114084  0.112982  0  1.017621  0
H  H58  1  0.11156984  0.31786874  0.70718690  1  0.08984  0  0.105826  0.110115  0  1.015357  0
H  H59  1  0.86862563  0.36994399  0.70975138  1  0.101036  0  0.112234  0.108878  0  1.013227  0
H  H60  1  0.93156304  0.16711450  0.98866251  1  0.073727  0  0.107267  0.112499  0  0.992336  0
H  H61  1  0.81841463  0.78629102  0.01025403  1  0.076399  0  0.110664  0.117746  0  0.975327  0
H  H62  1  0.44146391  0.79214398  0.90154020  1  0.618998  0  0.321254  0.407218  0  0.886812  0
H  H63  1  0.42508104  0.76844043  0.95655371  1  0.670558  0  0.298869  0.416787  0  0.911449  0
H  H64  1  0.40691454  0.34957471  0.86038724  1  0.65805  0  0.308716  0.403423  0  0.922703  0
H  H65  1  0.41376461  0.29941811  0.91201515  1  0.64344  0  0.333343  0.417928  0  0.863983  0
H  H66  1  0.70880713  0.34581971  0.83307524  1  0.655551  0  0.304741  0.418694  0  0.909546  0
H  H67  1  0.62505518  0.22502212  0.84610592  1  0.627882  0  0.321524  0.423715  0  0.872697  0
H  H68  1  0.39808964  0.14199793  0.82668307  1  0.613773  0  0.323084  0.405571  0  0.88911  0
H  H69  1  0.42535659  0.02246319  0.79665075  1  0.656734  0  0.3032  0.408333  0  0.926389  0
H  H70  1  0.64915313  0.27349939  0.64943789  1  0.645795  0  0.309646  0.413105  0  0.913144  0
H  H71  1  0.61293731  0.40879551  0.66837013  1  0.616105  0  0.33129  0.422085  0  0.861894  0
C  C72  1  0.92998380  0.09239216  0.65224686  1  -0.052499  0  -0.006964  -0.062494  0  3.917293  0
C  C73  1  0.02134166  0.14567348  0.62094248  1  0.006309  0  -0.072144  -0.076  0  3.941242  0
C  C74  1  0.16104934  0.14075604  0.62873168  1  -0.028912  0  -0.072141  -0.076096  0  3.960357  0
C  C75  1  0.21033660  0.07820814  0.66700159  1  -0.029759  0  -0.004715  -0.078204  0  3.913103  0
C  C76  1  0.11929795  0.01386055  0.69822078  1  -0.00842  0  0.008447  0.042571  0  3.920454  0
C  C77  1  0.16544353  0.93294707  0.73415717  1  -0.087367  0  -0.005986  -0.058517  0  3.918386  0
C  C78  1  0.07512222  0.88072142  0.76602091  1  0.086002  0  -0.077386  -0.081343  0  3.951059  0
C  C79  1  0.93754120  0.90806884  0.76391861  1  -0.050798  0  -0.071801  -0.075606  0  3.962559  0
C  C80  1  0.88813893  0.98333924  0.72895358  1  0.00229  0  -0.003253  -0.075197  0  3.901037  0
C  C81  1  0.97674321  0.03053065  0.69316840  1  0.00963  0  0.011708  0.05094  0  3.904478  0
C  C82  1  0.78708281  0.08396318  0.63594414  1  1.553037  0  0.209864  0.588604  0  4.211057  0
C  C83  1  0.35845031  0.09525914  0.67710953  1  1.606955  0  0.241388  0.675652  0  4.143748  0
C  C84  1  0.30645220  0.88804710  0.73684869  1  1.5437  0  0.212874  0.609124  0  4.182731  0
C  C85  1  0.74529297  0.02376693  0.73456288  1  1.589159  0  0.243485  0.674386  0  4.135922  0
C  C86  1  0.97091636  0.76333982  0.50794289  1  -0.010054  0  -0.086358  -0.102001  0  4.013284  0
C  C87  1  0.87999980  0.85932949  0.50692622  1  -0.054272  0  -0.008531  -0.070383  0  3.909946  0
C  C88  1  0.73410238  0.82335631  0.51697210  1  1.627413  0  0.22361  0.645269  0  4.168571  0
C  C89  1  0.92822547  0.98609892  0.50005209  1  0.035141  0  0.004554  0.038824  0  3.917884  0
C  C90  1  0.83943089  0.08734481  0.49345824  1  -0.045542  0  -0.007297  -0.073375  0  3.957914  0
C  C91  1  0.69201007  0.06705365  0.48365328  1  1.560936  0  0.220128  0.619992  0  4.247672  0
C  C92  1  0.88924637  0.21027421  0.49240738  1  0.00328  0  -0.084343  -0.099989  0  3.997899  0
C  C93  1  0.07001464  0.40758221  0.15225129  1  -0.051463  0  -0.006903  -0.062479  0  3.917497  0
C  C94  1  0.97866219  0.35429986  0.12094627  1  0.005386  0  -0.072183  -0.076167  0  3.941611  0
C  C95  1  0.83895774  0.35922482  0.12873324  1  -0.027862  0  -0.072057  -0.075837  0  3.960444  0
C  C96  1  0.78967417  0.42177654  0.16700325  1  -0.030912  0  -0.004787  -0.078406  0  3.91327  0
C  C97  1  0.88070533  0.48612329  0.19822372  1  -0.008307  0  0.00842  0.042593  0  3.920675  0
C  C98  1  0.83455777  0.56704192  0.23415829  1  -0.087899  0  -0.005966  -0.058403  0  3.918224  0
C  C99  1  0.92487883  0.61927140  0.26602019  1  0.085932  0  -0.077409  -0.081378  0  3.951039  0
C  C100  1  0.06246088  0.59192396  0.26391843  1  -0.050795  0  -0.071755  -0.075629  0  3.962726  0
C  C101  1  0.11185843  0.51665069  0.22895469  1  0.001926  0  -0.003203  -0.075105  0  3.900925  0
C  C102  1  0.02325304  0.46945227  0.19317049  1  0.009445  0  0.011668  0.050923  0  3.904465  0
C  C103  1  0.21291711  0.41601772  0.13594941  1  1.552301  0  0.209851  0.588813  0  4.210867  0
C  C104  1  0.64155898  0.40474246  0.17711314  1  1.606896  0  0.241346  0.675542  0  4.143657  0
C  C105  1  0.69354712  0.61194378  0.23684934  1  1.544333  0  0.212891  0.609106  0  4.182725  0
C  C106  1  0.25470726  0.47622826  0.23456672  1  1.589391  0  0.243499  0.674447  0  4.135761  0
C  C107  1  0.02908016  0.73668533  0.00795011  1  -0.010352  0  -0.086192  -0.101928  0  4.012995  0
C  C108  1  0.11999876  0.64069564  0.00693502  1  -0.054545  0  -0.008659  -0.070497  0  3.909817  0
C  C109  1  0.26589965  0.67665757  0.01697965  1  1.627628  0  0.223271  0.64512  0  4.168566  0
C  C110  1  0.07177014  0.51392621  0.00006334  1  0.035662  0  0.004672  0.039059  0  3.917735  0
C  C111  1  0.16057237  0.41268283  0.99346894  1  -0.044968  0  -0.007386  -0.073595  0  3.957865  0
C  C112  1  0.30798899  0.43296648  0.98366099  1  1.561001  0  0.219935  0.619882  0  4.247927  0
C  C113  1  0.11075283  0.28975251  0.99241812  1  0.002852  0  -0.084343  -0.099926  0  3.997623  0
C  C114  1  0.07002068  0.90758399  0.34774855  1  -0.051899  0  -0.006977  -0.062705  0  3.917674  0
C  C115  1  0.97866671  0.85429890  0.37905328  1  0.005435  0  -0.072145  -0.076041  0  3.941417  0
C  C116  1  0.83896131  0.85922290  0.37126547  1  -0.027823  0  -0.07212  -0.076014  0  3.960392  0
C  C117  1  0.78967513  0.92177267  0.33299555  1  -0.030707  0  -0.004769  -0.078204  0  3.913148  0
C  C118  1  0.88071083  0.98612215  0.30177706  1  -0.008139  0  0.008408  0.042459  0  3.920701  0
C  C119  1  0.83456458  0.06704408  0.26584241  1  -0.087996  0  -0.005964  -0.058327  0  3.918217  0
C  C120  1  0.92488622  0.11927819  0.23398110  1  0.085868  0  -0.077395  -0.081317  0  3.951215  0
C  C121  1  0.06247015  0.09192793  0.23608236  1  -0.050805  0  -0.071869  -0.075898  0  3.962865  0
C  C122  1  0.11186910  0.01665004  0.27104426  1  0.001586  0  -0.003143  -0.074882  0  3.901037  0
C  C123  1  0.02326161  0.96945395  0.30682909  1  0.00938  0  0.0117  0.050965  0  3.904596  0
C  C124  1  0.21292148  0.91600827  0.36405057  1  1.552777  0  0.21001  0.589274  0  4.210386  0
C  C125  1  0.64156085  0.90473294  0.32288483  1  1.606876  0  0.241223  0.6752  0  4.144348  0
C  C126  1  0.69355407  0.11194876  0.26315228  1  1.543729  0  0.212884  0.609121  0  4.182486  0
C  C127  1  0.25471427  0.97622798  0.26543531  1  1.589735  0  0.243436  0.6743  0  4.136375  0
C  C128  1  0.02909324  0.23663819  0.49205182  1  -0.009926  0  -0.086315  -0.102107  0  4.013684  0
C  C129  1  0.12000973  0.14064663  0.49306466  1  -0.054468  0  -0.008513  -0.070493  0  3.910431  0
C  C130  1  0.26590644  0.17662733  0.48301670  1  1.627692  0  0.223274  0.645208  0  4.16827  0
C  C131  1  0.07178118  0.01388097  0.49993636  1  -0.016142  0  0.004732  0.039294  0  3.917675  0
C  C132  1  0.16057471  0.91263414  0.50653160  1  -0.047299  0  -0.007368  -0.073356  0  3.957851  0
C  C133  1  0.30799292  0.93293564  0.51633796  1  1.561323  0  0.219928  0.619736  0  4.248085  0
C  C134  1  0.11076424  0.78970379  0.50758628  1  0.004491  0  -0.084411  -0.100218  0  3.997849  0
C  C135  1  0.92997929  0.59240806  0.84774794  1  -0.052086  0  -0.006924  -0.062536  0  3.917427  0
C  C136  1  0.02133687  0.64569227  0.87905226  1  0.005516  0  -0.072164  -0.076092  0  3.941566  0
C  C137  1  0.16104222  0.64076449  0.87126599  1  -0.028978  0  -0.072158  -0.076034  0  3.960475  0
C  C138  1  0.21032477  0.57821277  0.83299633  1  -0.029287  0  -0.004754  -0.078214  0  3.913105  0
C  C139  1  0.11929261  0.51386603  0.80177690  1  -0.008848  0  0.008475  0.042544  0  3.920534  0
C  C140  1  0.16543908  0.43294553  0.76584198  1  -0.087408  0  -0.006021  -0.058466  0  3.918276  0
C  C141  1  0.07511788  0.38071229  0.73398078  1  0.085719  0  -0.077353  -0.081239  0  3.950884  0
C  C142  1  0.93753691  0.40806160  0.73608219  1  -0.050879  0  -0.071784  -0.075732  0  3.962661  0
C  C143  1  0.88813864  0.48334239  0.77104419  1  0.002226  0  -0.003204  -0.075085  0  3.901154  0
C  C144  1  0.97674191  0.53053800  0.80682909  1  0.009588  0  0.011597  0.050894  0  3.904591  0
C  C145  1  0.78707925  0.58398287  0.86405121  1  1.552939  0  0.209997  0.588955  0  4.210445  0
C  C146  1  0.35844123  0.59525342  0.82288749  1  1.606859  0  0.241378  0.675566  0  4.143811  0
C  C147  1  0.30645082  0.38804554  0.76315268  1  1.543782  0  0.212781  0.608904  0  4.182645  0
C  C148  1  0.74528978  0.52376388  0.76543425  1  1.589359  0  0.243423  0.674238  0  4.136111  0
C  C149  1  0.97090597  0.26338854  0.99205990  1  -0.010423  0  -0.086375  -0.102311  0  4.013536  0
C  C150  1  0.87998420  0.35937448  0.99307465  1  -0.054917  0  -0.008673  -0.070524  0  3.910791  0
C  C151  1  0.73409240  0.32338717  0.98302862  1  1.628356  0  0.223219  0.644919  0  4.168995  0
C  C152  1  0.92820967  0.48614111  0.99994528  1  -0.016474  0  0.004767  0.039298  0  3.917634  0
C  C153  1  0.83941761  0.58738632  0.00654281  1  -0.046527  0  -0.007501  -0.073656  0  3.957625  0
C  C154  1  0.69199834  0.56708672  0.01634625  1  1.560179  0  0.219917  0.619763  0  4.247518  0
C  C155  1  0.88923210  0.71031666  0.00759433  1  0.004931  0  -0.084319  -0.09996  0  3.997543  0
O  O156  1  0.73696030  0.17480905  0.61314918  1  -1.194113  0  -0.362539  -0.638299  0  2.226588  0
O  O157  1  0.71837537  0.98108959  0.63998283  1  -1.186302  0  -0.341642  -0.615164  0  2.311875  0
O  O158  1  0.44240620  0.08603873  0.64453165  1  -1.1954  0  -0.409376  -0.676855  0  2.415832  0
O  O159  1  0.39112102  0.12602582  0.71856574  1  -1.189646  0  -0.405192  -0.681467  0  2.342585  0
O  O160  1  0.36330243  0.83961905  0.70129152  1  -1.20116  0  -0.35921  -0.656157  0  2.251175  0
O  O161  1  0.36702703  0.88702362  0.77609744  1  -1.182629  0  -0.363259  -0.625654  0  2.290067  0
O  O162  1  0.72100021  0.13885127  0.72799385  1  -1.177884  0  -0.394184  -0.659574  0  2.293154  0
O  O163  1  0.65665568  0.94420350  0.74911243  1  -1.211571  0  -0.415317  -0.69882  0  2.371173  0
O  O164  1  0.68432144  0.72530651  0.49882189  1  -1.183405  0  -0.328136  -0.563443  0  2.106512  0
O  O165  1  0.67319058  0.89426596  0.54590629  1  -1.202379  0  -0.433194  -0.713305  0  2.359105  0
O  O166  1  0.65886740  0.00241362  0.44800400  1  -1.189542  0  -0.388537  -0.669296  0  2.337235  0
O  O167  1  0.60770308  0.12193675  0.50943704  1  -1.194027  0  -0.408334  -0.672372  0  2.342499  0
O  O168  1  0.48160263  0.25170697  0.57177768  1  -1.260089  0  -0.631114  -0.835614  0  2.070415  0
O  O169  1  0.46858903  0.83328252  0.61341976  1  -1.270841  0  -0.587878  -0.804519  0  2.051163  0
O  O170  1  0.67515680  0.76324377  0.67978609  1  -1.249131  0  -0.64637  -0.852686  0  2.032803  0
O  O171  1  0.46970923  0.60030922  0.68996660  1  -1.249529  0  -0.610819  -0.825984  0  2.048189  0
O  O172  1  0.58973306  0.81962349  0.82894717  1  -1.229763  0  -0.611701  -0.825608  0  2.072845  0
O  O173  1  0.26305393  0.32516892  0.11315992  1  -1.194105  0  -0.362484  -0.638284  0  2.226378  0
O  O174  1  0.28161303  0.51890019  0.13998369  1  -1.18589  0  -0.341679  -0.615355  0  2.311823  0
O  O175  1  0.55758933  0.41398728  0.14453990  1  -1.19524  0  -0.409305  -0.676792  0  2.415564  0
O  O176  1  0.60888421  0.37396275  0.21856799  1  -1.189675  0  -0.405212  -0.681438  0  2.342624  0
O  O177  1  0.63670265  0.66037830  0.20129297  1  -1.201724  0  -0.359213  -0.656148  0  2.251177  0
O  O178  1  0.63297587  0.61296826  0.27609922  1  -1.182626  0  -0.363277  -0.6257  0  2.290049  0
O  O179  1  0.27901140  0.36114856  0.22799310  1  -1.177803  0  -0.394178  -0.659585  0  2.293155  0
O  O180  1  0.34334162  0.55579117  0.24911809  1  -1.211438  0  -0.415356  -0.698905  0  2.371214  0
O  O181  1  0.31568129  0.77470181  0.99882710  1  -1.183291  0  -0.328053  -0.563422  0  2.106539  0
O  O182  1  0.32680286  0.60574425  0.04591512  1  -1.202561  0  -0.432872  -0.713123  0  2.359041  0
O  O183  1  0.34112591  0.49760271  0.94801064  1  -1.189829  0  -0.388426  -0.66922  0  2.337509  0
O  O184  1  0.39229155  0.37807395  0.00944413  1  -1.194226  0  -0.408205  -0.672302  0  2.342545  0
O  O185  1  0.51839406  0.24829916  0.07178454  1  -1.260069  0  -0.631084  -0.835567  0  2.070534  0
O  O186  1  0.53140394  0.66676352  0.11342623  1  -1.271457  0  -0.587663  -0.804789  0  2.050969  0
O  O187  1  0.32485797  0.73673659  0.17978453  1  -1.249428  0  -0.646308  -0.85266  0  2.032657  0
O  O188  1  0.53027430  0.89970135  0.18996689  1  -1.249746  0  -0.610794  -0.825802  0  2.048393  0
O  O189  1  0.41026651  0.68037791  0.32894826  1  -1.229566  0  -0.611659  -0.825537  0  2.072652  0
O  O190  1  0.26304595  0.82516051  0.38684449  1  -1.194525  0  -0.362623  -0.63858  0  2.226336  0
O  O191  1  0.28163390  0.01887996  0.36001188  1  -1.185679  0  -0.341679  -0.61546  0  2.311516  0
O  O192  1  0.55759924  0.91396182  0.35546097  1  -1.194997  0  -0.409271  -0.676616  0  2.416034  0
O  O193  1  0.60889501  0.87396155  0.28142828  1  -1.189905  0  -0.405112  -0.68131  0  2.342765  0
O  O194  1  0.63671516  0.16038239  0.29871014  1  -1.201149  0  -0.359206  -0.656197  0  2.251096  0
O  O195  1  0.63297614  0.11297037  0.22390388  1  -1.182458  0  -0.363279  -0.625671  0  2.289824  0
O  O196  1  0.27901118  0.86114645  0.27200747  1  -1.17789  0  -0.394162  -0.659562  0  2.293446  0
O  O197  1  0.34334465  0.05579520  0.25088437  1  -1.211517  0  -0.415319  -0.69884  0  2.371264  0
O  O198  1  0.31568550  0.27468089  0.50116412  1  -1.183397  0  -0.327996  -0.563419  0  2.106495  0
O  O199  1  0.32681207  0.10571488  0.45408216  1  -1.202895  0  -0.433066  -0.713256  0  2.35886  0
O  O200  1  0.34112785  0.99758416  0.55198584  1  -1.189775  0  -0.38841  -0.669188  0  2.337421  0
O  O201  1  0.39230697  0.87805252  0.49055697  1  -1.193979  0  -0.408158  -0.672163  0  2.342791  0
O  O202  1  0.51840230  0.74828044  0.42821529  1  -1.260185  0  -0.631098  -0.835513  0  2.070508  0
O  O203  1  0.53140800  0.16673497  0.38657808  1  -1.271443  0  -0.587816  -0.804659  0  2.051053  0
O  O204  1  0.32486510  0.23673887  0.32022254  1  -1.249315  0  -0.646199  -0.852554  0  2.032763  0
O  O205  1  0.53029322  0.39969229  0.31003507  1  -1.249406  0  -0.610723  -0.825728  0  2.048417  0
O  O206  1  0.41027878  0.18038548  0.17105449  1  -1.229586  0  -0.611711  -0.825776  0  2.072681  0
O  O207  1  0.73695162  0.67483445  0.88684175  1  -1.194435  0  -0.362578  -0.638428  0  2.226294  0
O  O208  1  0.71837743  0.48110418  0.86001867  1  -1.185932  0  -0.341719  -0.615328  0  2.311649  0
O  O209  1  0.44240624  0.58601895  0.85546211  1  -1.195219  0  -0.409324  -0.676764  0  2.415637  0
O  O210  1  0.39111294  0.62603221  0.78143194  1  -1.189509  0  -0.405202  -0.681441  0  2.342742  0
O  O211  1  0.36329241  0.33961479  0.79871044  1  -1.201281  0  -0.359116  -0.656036  0  2.250954  0
O  O212  1  0.36703022  0.38702290  0.72390384  1  -1.182596  0  -0.36323  -0.625563  0  2.289888  0
O  O213  1  0.72098560  0.63884264  0.77200892  1  -1.177903  0  -0.394153  -0.659488  0  2.293272  0
O  O214  1  0.65665841  0.44420002  0.75088114  1  -1.211698  0  -0.415317  -0.69884  0  2.371274  0
O  O215  1  0.68432568  0.22533724  0.00118257  1  -1.18386  0  -0.327916  -0.563328  0  2.106658  0
O  O216  1  0.67317836  0.39428175  0.95409037  1  -1.202742  0  -0.432987  -0.712974  0  2.359103  0
O  O217  1  0.65885926  0.50244675  0.05199555  1  -1.189561  0  -0.388393  -0.669242  0  2.337042  0
O  O218  1  0.60769295  0.62195861  0.99055962  1  -1.193309  0  -0.408159  -0.672074  0  2.342622  0
O  O219  1  0.48159075  0.75171556  0.92821573  1  -1.260247  0  -0.631054  -0.835393  0  2.070635  0
O  O220  1  0.46858957  0.33326713  0.88658205  1  -1.271724  0  -0.587745  -0.804551  0  2.051208  0
O  O221  1  0.67511921  0.26326408  0.82022131  1  -1.249291  0  -0.646274  -0.852497  0  2.032891  0
O  O222  1  0.46970217  0.10030684  0.81003269  1  -1.249043  0  -0.610845  -0.825969  0  2.048294  0
O  O223  1  0.58973838  0.31960857  0.67104993  1  -1.229498  0  -0.611671  -0.825601  0  2.072517  0
