# generated using pymatgen
data_CdH18C15(NO3)2
_symmetry_space_group_name_H-M   'P 1'
_cell_length_a   8.94078701
_cell_length_b   10.13622499
_cell_length_c   10.47038608
_cell_angle_alpha   68.21984069
_cell_angle_beta   69.77580985
_cell_angle_gamma   78.00498230
_symmetry_Int_Tables_number   1
_chemical_formula_structural   CdH18C15(NO3)2
_chemical_formula_sum   'Cd2 H36 C30 N4 O12'
_cell_volume   823.37153887
_cell_formula_units_Z   2
loop_
 _symmetry_equiv_pos_site_id
 _symmetry_equiv_pos_as_xyz
  1  'x, y, z'
loop_
 _atom_site_type_symbol
 _atom_site_label
 _atom_site_symmetry_multiplicity
 _atom_site_fract_x
 _atom_site_fract_y
 _atom_site_fract_z
 _atom_site_occupancy
 _atom_site_hle17_bader_spin_density
 _atom_site_hle17_ddec_charge
 _atom_site_hle17_ddec_spin_density
 _atom_site_hle17_ddec_sum_bond_order
 _atom_site_hle17_magmom
 _atom_site_hse06_10hf_bader_spin_density
 _atom_site_hse06_10hf_ddec_charge
 _atom_site_hse06_10hf_ddec_spin_density
 _atom_site_hse06_10hf_ddec_sum_bond_order
 _atom_site_hse06_10hf_magmom
 _atom_site_hse06_bader_spin_density
 _atom_site_hse06_ddec_charge
 _atom_site_hse06_ddec_spin_density
 _atom_site_hse06_ddec_sum_bond_order
 _atom_site_hse06_magmom
 _atom_site_pbe_bader_spin_density
 _atom_site_pbe_cm5_charge
 _atom_site_pbe_ddec_charge
 _atom_site_pbe_ddec_spin_density
 _atom_site_pbe_ddec_sum_bond_order
 _atom_site_pbe_magmom
Cd  Cd0  1  0.77335694  0.69752558  0.34588043  1  0  1.118744  0  1.653358  0  0  0.916288  0  2.099235  0  0  0.97465  0  2.048254  0  0  0.760557  0.874837  0  2.133657  0
Cd  Cd1  1  0.22664358  0.30247439  0.65411927  1  0  1.118774  0  1.653322  0  0  0.916327  0  2.099199  0  0  0.974686  0  2.048219  0  0  0.760565  0.874875  0  2.133622  0
H  H2  1  0.06275046  0.91684969  0.74209570  1  0  0.365349  0  0.931396  0  0  0.338785  0  1.010375  0  0  0.349681  0  0.997746  0  0  0.284322  0.330932  0  1.019537  0
H  H3  1  0.93724898  0.08314922  0.25790471  1  0  0.365328  0  0.931433  0  0  0.338765  0  1.010414  0  0  0.349661  0  0.997782  0  0  0.284309  0.330912  0  1.019574  0
H  H4  1  0.28996910  0.91132737  0.83690858  1  0  0.118129  0  0.917929  0  0  0.132391  0  0.970724  0  0  0.135244  0  0.968735  0  0  0.117837  0.130311  0  0.97207  0
H  H5  1  0.71003023  0.08867260  0.16309147  1  0  0.118111  0  0.917925  0  0  0.132394  0  0.970696  0  0  0.135246  0  0.968708  0  0  0.117839  0.130314  0  0.972042  0
H  H6  1  0.56115153  0.99568731  0.72223568  1  0  0.104973  0  0.968939  0  0  0.115595  0  1.029317  0  0  0.117623  0  1.030321  0  0  0.108861  0.113994  0  1.029239  0
H  H7  1  0.43884780  0.00431266  0.27776437  1  0  0.104993  0  0.968918  0  0  0.115616  0  1.029301  0  0  0.117643  0  1.030305  0  0  0.108864  0.114015  0  1.029222  0
H  H8  1  0.75489197  0.90503084  0.52674327  1  0  0.078656  0  0.960788  0  0  0.08777  0  1.025547  0  0  0.089592  0  1.024511  0  0  0.116285  0.086627  0  1.025688  0
H  H9  1  0.24510725  0.09497021  0.47325644  1  0  0.078625  0  0.960833  0  0  0.087783  0  1.025543  0  0  0.089604  0  1.024508  0  0  0.11629  0.086641  0  1.025684  0
H  H10  1  0.42307856  0.65379935  0.55906424  1  0  0.097144  0  0.958967  0  0  0.103744  0  1.028243  0  0  0.106539  0  1.02575  0  0  0.118513  0.101438  0  1.030996  0
H  H11  1  0.57692077  0.34620063  0.44093677  1  0  0.097146  0  0.958958  0  0  0.103739  0  1.028243  0  0  0.106536  0  1.025746  0  0  0.118514  0.101433  0  1.030995  0
H  H12  1  0.17485826  0.63720423  0.72271648  1  0  0.056991  0  0.919504  0  0  0.068234  0  0.982914  0  0  0.068025  0  0.982799  0  0  0.111439  0.068074  0  0.983606  0
H  H13  1  0.82514226  0.36279575  0.27728227  1  0  0.056958  0  0.919568  0  0  0.068194  0  0.982968  0  0  0.067985  0  0.982852  0  0  0.111414  0.068031  0  0.98366  0
H  H14  1  0.35417835  0.49197715  0.90423563  1  0  0.099777  0  0.948962  0  0  0.112491  0  1.008188  0  0  0.114603  0  1.007779  0  0  0.107122  0.110998  0  1.008525  0
H  H15  1  0.64582336  0.50802282  0.09576277  1  0  0.099824  0  0.948934  0  0  0.112506  0  1.008201  0  0  0.114617  0  1.007794  0  0  0.107138  0.111013  0  1.008537  0
H  H16  1  0.30199509  0.36559476  0.17124799  1  0  0.096287  0  0.963085  0  0  0.106677  0  1.022109  0  0  0.109016  0  1.022993  0  0  0.103616  0.105327  0  1.020995  0
H  H17  1  0.69800781  0.63440522  0.82875101  1  0  0.096246  0  0.963164  0  0  0.106639  0  1.022183  0  0  0.108978  0  1.023067  0  0  0.103588  0.105289  0  1.021068  0
H  H18  1  0.06232157  0.45056623  0.34008048  1  0  0.090365  0  0.955879  0  0  0.09937  0  1.019374  0  0  0.102062  0  1.017022  0  0  0.117993  0.097318  0  1.021515  0
H  H19  1  0.93768025  0.54943267  0.65991732  1  0  0.090326  0  0.955895  0  0  0.099345  0  1.01937  0  0  0.10204  0  1.01701  0  0  0.117985  0.097293  0  1.021511  0
H  H20  1  0.92361719  0.76705666  0.00299523  1  0  0.095597  0  0.94801  0  0  0.099816  0  1.016321  0  0  0.103696  0  1.012355  0  0  0.115786  0.096949  0  1.019381  0
H  H21  1  0.07638463  0.23294225  0.99700352  1  0  0.095588  0  0.948028  0  0  0.099816  0  1.01633  0  0  0.103694  0  1.012368  0  0  0.115772  0.096949  0  1.01939  0
H  H22  1  0.16918668  0.99819918  0.30573627  1  0  0.140202  0  0.956366  0  0  0.158695  0  1.01396  0  0  0.161842  0  1.012242  0  0  0.097278  0.156652  0  1.014701  0
H  H23  1  0.83081135  0.00180187  0.69426665  1  0  0.14021  0  0.95634  0  0  0.158682  0  1.013963  0  0  0.161829  0  1.012244  0  0  0.097274  0.156639  0  1.014704  0
H  H24  1  0.26651181  0.82049158  0.35765649  1  0  0.130773  0  0.97172  0  0  0.150715  0  1.032977  0  0  0.152584  0  1.033376  0  0  0.096426  0.149548  0  1.032492  0
H  H25  1  0.73348633  0.17950840  0.64234488  1  0  0.13074  0  0.971732  0  0  0.150682  0  1.032993  0  0  0.152551  0  1.033391  0  0  0.096406  0.149514  0  1.032509  0
H  H26  1  0.11955327  0.88351170  0.49001985  1  0  0.15218  0  0.95468  0  0  0.167708  0  1.019493  0  0  0.171495  0  1.017411  0  0  0.101033  0.164863  0  1.021189  0
H  H27  1  0.88044270  0.11648614  0.50998198  1  0  0.152204  0  0.954689  0  0  0.167734  0  1.019494  0  0  0.171522  0  1.01741  0  0  0.101054  0.164893  0  1.021187  0
H  H28  1  0.36513982  0.70715424  0.12421371  1  0  0.128599  0  0.955048  0  0  0.145796  0  1.016869  0  0  0.14792  0  1.017229  0  0  0.090561  0.144256  0  1.016505  0
H  H29  1  0.63485940  0.29284680  0.87578600  1  0  0.12859  0  0.955076  0  0  0.145787  0  1.016895  0  0  0.147908  0  1.017258  0  0  0.090569  0.144246  0  1.016533  0
H  H30  1  0.53641430  0.77937981  0.98061712  1  0  0.128516  0  0.956058  0  0  0.148935  0  1.0166  0  0  0.151018  0  1.016716  0  0  0.095706  0.1473  0  1.0167  0
H  H31  1  0.46358492  0.22062123  0.01938258  1  0  0.128508  0  0.95609  0  0  0.148925  0  1.016634  0  0  0.151008  0  1.016751  0  0  0.095698  0.147291  0  1.016734  0
H  H32  1  0.39693228  0.89222772  0.06778698  1  0  0.145629  0  0.931901  0  0  0.166503  0  0.987497  0  0  0.169328  0  0.98618  0  0  0.101155  0.164186  0  0.989045  0
H  H33  1  0.60306694  0.10777332  0.93221272  1  0  0.145616  0  0.931936  0  0  0.166507  0  0.987512  0  0  0.169332  0  0.986195  0  0  0.101161  0.164189  0  0.989062  0
H  H34  1  0.64423442  0.43573735  0.58383293  1  0  0.424837  0  0.878417  0  0  0.392806  0  0.94441  0  0  0.404273  0  0.927698  0  0  0.284411  0.384521  0  0.956589  0
H  H35  1  0.35576491  0.56426262  0.41616713  1  0  0.42485  0  0.878402  0  0  0.39281  0  0.944408  0  0  0.404278  0  0.927696  0  0  0.284418  0.384525  0  0.956588  0
H  H36  1  0.83684204  0.40595211  0.53518271  1  0  0.419075  0  0.892672  0  0  0.385248  0  0.961476  0  0  0.396903  0  0.944733  0  0  0.281671  0.37682  0  0.973616  0
H  H37  1  0.16315728  0.59404786  0.46481544  1  0  0.419051  0  0.892701  0  0  0.385222  0  0.961507  0  0  0.396877  0  0.944763  0  0  0.281663  0.376794  0  0.973646  0
C  C38  1  0.33509521  0.77467047  0.70656657  1  0  -0.027213  0  3.727817  0  0  -0.003686  0  3.964319  0  0  -0.010254  0  3.988798  0  0  -0.00637  0.000259  0  3.948294  0
C  C39  1  0.66490401  0.22533057  0.29343313  1  0  -0.027322  0  3.727919  0  0  -0.003792  0  3.96439  0  0  -0.010383  0  3.988904  0  0  -0.006408  0.000154  0  3.948365  0
C  C40  1  0.37551467  0.87175527  0.75283427  1  0  -0.034233  0  3.681646  0  0  -0.064378  0  3.934797  0  0  -0.060591  0  3.952372  0  0  -0.059338  -0.065604  0  3.921552  0
C  C41  1  0.62448335  0.12824577  0.24716579  1  0  -0.034127  0  3.681653  0  0  -0.06429  0  3.934805  0  0  -0.060498  0  3.952378  0  0  -0.059288  -0.065518  0  3.921562  0
C  C42  1  0.52768221  0.91930743  0.68883599  1  0  -0.124332  0  3.757482  0  0  -0.136814  0  4.014247  0  0  -0.144096  0  4.03675  0  0  -0.086436  -0.132173  0  3.99864  0
C  C43  1  0.47231820  0.08069361  0.31116336  1  0  -0.124419  0  3.757507  0  0  -0.136918  0  4.014301  0  0  -0.144197  0  4.036795  0  0  -0.086476  -0.132277  0  3.998694  0
C  C44  1  0.63535695  0.86923164  0.58059864  1  0  0.121309  0  3.719064  0  0  0.088126  0  3.972644  0  0  0.095175  0  3.992421  0  0  0.044449  0.083985  0  3.958017  0
C  C45  1  0.36464237  0.13076833  0.41940237  1  0  0.121335  0  3.719063  0  0  0.088125  0  3.972634  0  0  0.095176  0  3.992411  0  0  0.044442  0.083985  0  3.958008  0
C  C46  1  0.45023441  0.72979438  0.59754101  1  0  0.081584  0  3.677979  0  0  0.042324  0  3.930365  0  0  0.04927  0  3.948421  0  0  0.042917  0.036792  0  3.919662  0
C  C47  1  0.54976491  0.27020559  0.40245905  1  0  0.081636  0  3.678024  0  0  0.042398  0  3.930373  0  0  0.04935  0  3.948422  0  0  0.04295  0.036867  0  3.919668  0
C  C48  1  0.17196196  0.71697236  0.77221848  1  0  0.184992  0  3.705268  0  0  0.15149  0  3.954085  0  0  0.159749  0  3.964031  0  0  0.006511  0.146031  0  3.947341  0
C  C49  1  0.82803726  0.28302867  0.22777932  1  0  0.184992  0  3.705344  0  0  0.151524  0  3.954085  0  0  0.159784  0  3.96403  0  0  0.006514  0.14607  0  3.947337  0
C  C50  1  0.14319126  0.64002317  0.93287774  1  0  -0.02059  0  3.721101  0  0  0.000476  0  3.958849  0  0  -0.00601  0  3.985285  0  0  -0.009762  0.004299  0  3.94142  0
C  C51  1  0.85681056  0.35997574  0.06712101  1  0  -0.020431  0  3.721031  0  0  0.000633  0  3.958759  0  0  -0.005824  0  3.98514  0  0  -0.009702  0.004454  0  3.94133  0
C  C52  1  0.25013016  0.52550308  0.98188164  1  0  -0.054976  0  3.709629  0  0  -0.081738  0  3.957267  0  0  -0.07986  0  3.978051  0  0  -0.067427  -0.082143  0  3.942374  0
C  C53  1  0.74987285  0.47449583  0.01811771  1  0  -0.055051  0  3.709616  0  0  -0.081806  0  3.957262  0  0  -0.07993  0  3.978048  0  0  -0.067447  -0.082209  0  3.942368  0
C  C54  1  0.22203163  0.45559056  0.12902719  1  0  -0.109261  0  3.744166  0  0  -0.118557  0  3.995093  0  0  -0.124979  0  4.015951  0  0  -0.083693  -0.1148  0  3.981026  0
C  C55  1  0.77797127  0.54440941  0.87097085  1  0  -0.109224  0  3.744204  0  0  -0.118517  0  3.99512  0  0  -0.124942  0  4.015983  0  0  -0.083669  -0.114761  0  3.981053  0
C  C56  1  0.08786320  0.50234985  0.22405583  1  0  0.13187  0  3.687182  0  0  0.0972  0  3.941366  0  0  0.104794  0  3.958695  0  0  0.047241  0.092213  0  3.930261  0
C  C57  1  0.91213862  0.49764905  0.77594292  1  0  0.131917  0  3.687194  0  0  0.09724  0  3.94139  0  0  0.104833  0  3.958721  0  0  0.047261  0.092253  0  3.930287  0
C  C58  1  0.01130827  0.67940556  0.03509516  1  0  0.085702  0  3.683365  0  0  0.047512  0  3.933725  0  0  0.053924  0  3.952081  0  0  0.041954  0.043425  0  3.921034  0
C  C59  1  0.98869355  0.32059335  0.96490359  1  0  0.08569  0  3.683469  0  0  0.04749  0  3.933809  0  0  0.053899  0  3.952169  0  0  0.041974  0.043405  0  3.921118  0
C  C60  1  0.02419019  0.82795993  0.35902121  1  0  0.742233  0  3.83108  0  0  0.699765  0  4.121686  0  0  0.73336  0  4.115318  0  0  0.206406  0.677017  0  4.124907  0
C  C61  1  0.97580903  0.17204111  0.64097755  1  0  0.742319  0  3.830917  0  0  0.699842  0  4.121543  0  0  0.73344  0  4.115173  0  0  0.206431  0.677094  0  4.124766  0
C  C62  1  0.15367768  0.88804984  0.37684840  1  0  -0.472183  0  3.639534  0  0  -0.545628  0  3.866574  0  0  -0.553794  0  3.868856  0  0  -0.253317  -0.539729  0  3.864804  0
C  C63  1  0.84632035  0.11195120  0.62315261  1  0  -0.472194  0  3.639536  0  0  -0.545611  0  3.866574  0  0  -0.553778  0  3.868855  0  0  -0.253307  -0.539714  0  3.864802  0
C  C64  1  0.55344888  0.74838967  0.18812234  1  0  0.718439  0  3.887351  0  0  0.676632  0  4.184927  0  0  0.710058  0  4.178969  0  0  0.191472  0.653817  0  4.188058  0
C  C65  1  0.44654914  0.25161138  0.81187868  1  0  0.718485  0  3.88724  0  0  0.67663  0  4.184893  0  0  0.710058  0  4.178934  0  0  0.19146  0.653815  0  4.188024  0
C  C66  1  0.45502879  0.78287361  0.08577289  1  0  -0.455335  0  3.667582  0  0  -0.529317  0  3.898988  0  0  -0.536862  0  3.901957  0  0  -0.24839  -0.523949  0  3.897052  0
C  C67  1  0.54497032  0.21712850  0.91422742  1  0  -0.455314  0  3.667602  0  0  -0.529289  0  3.899018  0  0  -0.53684  0  3.901993  0  0  -0.248395  -0.52392  0  3.897082  0
N  N68  1  0.59711966  0.77633950  0.53517561  1  0  -0.337794  0  3.282999  0  0  -0.255988  0  3.547155  0  0  -0.276734  0  3.567548  0  0  -0.329597  -0.241521  0  3.533041  0
N  N69  1  0.40288086  0.22366047  0.46482410  1  0  -0.337782  0  3.283048  0  0  -0.255992  0  3.547222  0  0  -0.276738  0  3.567612  0  0  -0.329603  -0.241526  0  3.533108  0
N  N70  1  0.98444398  0.61190389  0.17765954  1  0  -0.335828  0  3.268043  0  0  -0.256029  0  3.534812  0  0  -0.2768  0  3.555755  0  0  -0.328952  -0.241665  0  3.51992  0
N  N71  1  0.01555676  0.38809395  0.82234087  1  0  -0.335884  0  3.268189  0  0  -0.256092  0  3.53498  0  0  -0.276867  0  3.555928  0  0  -0.328991  -0.24173  0  3.520089  0
O  O72  1  0.04691547  0.82284398  0.73935383  1  0  -0.576287  0  2.05651  0  0  -0.530634  0  2.275923  0  0  -0.547965  0  2.265687  0  0  -0.404373  -0.518016  0  2.281949  0
O  O73  1  0.95308397  0.17715494  0.26064753  1  0  -0.576289  0  2.056525  0  0  -0.53065  0  2.275932  0  0  -0.547986  0  2.265694  0  0  -0.40437  -0.518032  0  2.281957  0
O  O74  1  0.00669100  0.69458924  0.42218271  1  0  -0.668139  0  2.007108  0  0  -0.592797  0  2.233659  0  0  -0.622665  0  2.224722  0  0  -0.323178  -0.571913  0  2.239264  0
O  O75  1  0.99330941  0.30541180  0.57781473  1  0  -0.668187  0  2.007073  0  0  -0.592858  0  2.233648  0  0  -0.622722  0  2.224708  0  0  -0.323186  -0.571974  0  2.239253  0
O  O76  1  0.93127999  0.90920273  0.28692315  1  0  -0.651693  0  1.954347  0  0  -0.589561  0  2.180916  0  0  -0.616613  0  2.170706  0  0  -0.321087  -0.570618  0  2.187573  0
O  O77  1  0.06871934  0.09079725  0.71307691  1  0  -0.651736  0  1.954233  0  0  -0.589598  0  2.180808  0  0  -0.616653  0  2.1706  0  0  -0.32111  -0.570655  0  2.187464  0
O  O78  1  0.65907920  0.83171003  0.15741215  1  0  -0.651191  0  1.916075  0  0  -0.586984  0  2.150811  0  0  -0.61548  0  2.140705  0  0  -0.336775  -0.567382  0  2.157424  0
O  O79  1  0.34092013  0.16828995  0.84258886  1  0  -0.651222  0  1.916013  0  0  -0.586998  0  2.150769  0  0  -0.61549  0  2.140663  0  0  -0.336769  -0.567393  0  2.157379  0
O  O80  1  0.53157417  0.63683219  0.29973039  1  0  -0.679117  0  1.9513  0  0  -0.610852  0  2.181088  0  0  -0.639041  0  2.171044  0  0  -0.331636  -0.591026  0  2.187705  0
O  O81  1  0.46842385  0.36316886  0.70027062  1  0  -0.679122  0  1.951293  0  0  -0.610858  0  2.181118  0  0  -0.639041  0  2.171068  0  0  -0.331628  -0.591031  0  2.187736  0
O  O82  1  0.74326169  0.46476852  0.50321206  1  0  -0.859771  0  1.881316  0  0  -0.798114  0  2.093248  0  0  -0.820666  0  2.057289  0  0  -0.601201  -0.782239  0  2.119569  0
O  O83  1  0.25673644  0.53523145  0.49678644  1  0  -0.859765  0  1.881321  0  0  -0.798104  0  2.093264  0  0  -0.820656  0  2.057304  0  0  -0.601196  -0.782229  0  2.119585  0
