# generated using pymatgen
data_CuH6C9NClO3
_symmetry_space_group_name_H-M   'P 1'
_cell_length_a   6.96391051
_cell_length_b   15.71297967
_cell_length_c   15.70944290
_cell_angle_alpha   117.85651447
_cell_angle_beta   98.51624180
_cell_angle_gamma   98.45937919
_symmetry_Int_Tables_number   1
_chemical_formula_structural   CuH6C9NClO3
_chemical_formula_sum   'Cu6 H36 C54 N6 Cl6 O18'
_cell_volume   1456.31657288
_cell_formula_units_Z   6
loop_
 _symmetry_equiv_pos_site_id
 _symmetry_equiv_pos_as_xyz
  1  'x, y, z'
loop_
 _atom_site_type_symbol
 _atom_site_label
 _atom_site_symmetry_multiplicity
 _atom_site_fract_x
 _atom_site_fract_y
 _atom_site_fract_z
 _atom_site_occupancy
 _atom_site_pbe_bader_charge
 _atom_site_pbe_bader_spin_density
 _atom_site_pbe_cm5_charge
 _atom_site_pbe_ddec_charge
 _atom_site_pbe_ddec_spin_density
 _atom_site_pbe_ddec_sum_bond_order
 _atom_site_pbe_magmom
Cu  Cu0  1  0.64495265  0.52678430  0.09902996  1  1.055781  -0.001469  0.719072  0.791125  -0.001927  2.338114  -0.003
Cu  Cu1  1  0.11806721  0.57219628  0.47316515  1  1.054825  -0.001109  0.719159  0.792178  -0.001437  2.338441  -0.002
Cu  Cu2  1  0.54551815  0.90086144  0.42784316  1  1.057252  0.000777  0.719124  0.791278  0.001023  2.33988  0.001
Cu  Cu3  1  0.35506399  0.47321425  0.90096953  1  1.055529  0.001461  0.718799  0.790795  0.001922  2.337824  0.003
Cu  Cu4  1  0.88199663  0.42780375  0.52683624  1  1.054592  0.001101  0.7186  0.791609  0.001431  2.336729  0.002
Cu  Cu5  1  0.45445245  0.09914380  0.57215958  1  1.057775  -0.00077  0.719873  0.792288  -0.001015  2.340484  -0.001
H  H6  1  0.29503527  0.69870537  0.04926644  1  0.119692  -4e-06  0.107458  0.127438  -3e-06  1.020479  0.0
H  H7  1  0.59717390  0.35073832  0.30149486  1  0.12192  6e-06  0.107582  0.127454  3e-06  1.020767  0.0
H  H8  1  0.24626477  0.95052106  0.64924186  1  0.128573  3e-06  0.107691  0.127793  2e-06  1.020161  0.0
H  H9  1  0.70496185  0.30130061  0.95073523  1  0.119494  4e-06  0.107491  0.127451  3e-06  1.020496  0.0
H  H10  1  0.40281044  0.64926246  0.69850799  1  0.12176  -6e-06  0.107603  0.127503  -3e-06  1.020795  0.0
H  H11  1  0.75375588  0.04947972  0.35076211  1  0.128915  -3e-06  0.107691  0.127822  -2e-06  1.020238  0.0
H  H12  1  0.10113114  0.62881425  0.29179018  1  0.079452  -0.0  0.117735  0.125813  -0.0  0.975987  0.0
H  H13  1  0.47190084  0.66282683  0.37103113  1  0.089215  0.0  0.117819  0.126107  0.0  0.975426  0.0
H  H14  1  0.80895195  0.70820170  0.33688510  1  0.071463  8e-06  0.117899  0.125396  4e-06  0.976064  0.0
H  H15  1  0.89886269  0.37119099  0.70821474  1  0.079339  0.0  0.11774  0.125844  0.0  0.975997  0.0
H  H16  1  0.52810078  0.33715909  0.62896401  1  0.089022  -0.0  0.117751  0.126079  -0.0  0.975531  0.0
H  H17  1  0.19103459  0.29180056  0.66312113  1  0.071898  -8e-06  0.117989  0.125505  -4e-06  0.975893  0.0
H  H18  1  0.10431639  0.50572646  0.20535549  1  0.091274  7e-06  0.116076  0.128595  4e-06  0.984243  0.0
H  H19  1  0.59852932  0.69938400  0.49407161  1  0.118008  -1e-06  0.116024  0.128164  -0.0  0.984625  0.0
H  H20  1  0.89849503  0.79468809  0.30031862  1  0.121611  1e-06  0.116153  0.128206  1e-06  0.984702  0.0
H  H21  1  0.89567702  0.49427209  0.79464501  1  0.09118  -7e-06  0.116081  0.128587  -3e-06  0.98427  0.0
H  H22  1  0.40147270  0.30060563  0.50592339  1  0.117847  1e-06  0.115954  0.128132  0.0  0.984753  0.0
H  H23  1  0.10150774  0.20530600  0.69968424  1  0.121889  -1e-06  0.116192  0.128201  -1e-06  0.984606  0.0
H  H24  1  0.21252522  0.62993119  0.13889349  1  0.178932  -2.4e-05  0.122502  0.108147  -1.2e-05  1.010283  0.0
H  H25  1  0.58276035  0.50892699  0.37010644  1  0.170293  -1.4e-05  0.122204  0.107986  -8e-06  1.010306  0.0
H  H26  1  0.07371842  0.86106646  0.49090775  1  0.174788  1.3e-05  0.122218  0.107566  7e-06  1.011804  0.0
H  H27  1  0.78748242  0.37007554  0.86111495  1  0.178811  2.4e-05  0.122518  0.108083  1.3e-05  1.010434  0.0
H  H28  1  0.41724175  0.49107156  0.62989909  1  0.170016  1.5e-05  0.122185  0.107898  8e-06  1.010591  0.0
H  H29  1  0.92628842  0.13893284  0.50909334  1  0.174879  -1.3e-05  0.122324  0.1077  -7e-06  1.011708  0.0
H  H30  1  0.85919261  0.72172889  0.84078799  1  0.076991  -6e-06  0.102006  0.115947  -3e-06  1.019653  0.0
H  H31  1  0.13922219  0.11909124  0.27833960  1  0.084617  -2e-06  0.102399  0.116395  -1e-06  1.019269  0.0
H  H32  1  0.01963441  0.15901742  0.88100053  1  0.09327  4e-06  0.102233  0.11597  2e-06  1.020154  0.0
H  H33  1  0.14078948  0.27826446  0.15920997  1  0.076851  6e-06  0.101987  0.115922  3e-06  1.019631  0.0
H  H34  1  0.86076609  0.88090286  0.72165402  1  0.084571  2e-06  0.10238  0.116394  1e-06  1.01926  0.0
H  H35  1  0.98038341  0.84098930  0.11900094  1  0.093384  -4e-06  0.10222  0.115891  -2e-06  1.020225  0.0
H  H36  1  0.58734681  0.62750378  0.87128719  1  0.131314  -7e-06  0.102661  0.131593  -4e-06  1.051108  0.0
H  H37  1  0.96093728  0.24366353  0.37250205  1  0.124799  1e-06  0.102652  0.131285  1e-06  1.050564  0.0
H  H38  1  0.71689938  0.12872438  0.75637890  1  0.131588  3e-06  0.103003  0.131665  2e-06  1.051252  0.0
H  H39  1  0.41265089  0.37249180  0.12871856  1  0.131036  8e-06  0.102641  0.131571  4e-06  1.051127  0.0
H  H40  1  0.03904513  0.75632462  0.62748840  1  0.124791  -1e-06  0.102631  0.131245  -0.0  1.050654  0.0
H  H41  1  0.28312427  0.87128234  0.24361723  1  0.131245  -3e-06  0.102971  0.131652  -2e-06  1.051223  0.0
C  C42  1  0.98636725  0.63153364  0.03026798  1  0.020582  -1.1e-05  -0.02764  -0.058852  -6e-06  4.004355  0.0
C  C43  1  0.35535357  0.39873927  0.36853906  1  -0.043753  -3e-06  -0.02806  -0.05911  -2e-06  4.004895  0.0
C  C44  1  0.95654662  0.96970401  0.60123693  1  -0.013985  6e-06  -0.028196  -0.060363  3e-06  4.003546  0.0
C  C45  1  0.01363707  0.36846640  0.96973075  1  0.020332  1.2e-05  -0.0276  -0.058968  7e-06  4.004289  0.0
C  C46  1  0.64463865  0.60125111  0.63145818  1  -0.043596  3e-06  -0.02806  -0.059067  2e-06  4.004371  0.0
C  C47  1  0.04346824  0.03029676  0.39875839  1  -0.013635  -6e-06  -0.02817  -0.060064  -3e-06  4.004184  0.0
C  C48  1  0.14045022  0.68235065  0.00890196  1  -0.067428  -3e-06  -0.090636  -0.189021  -2e-06  3.983286  0.0
C  C49  1  0.45902122  0.32666244  0.31781820  1  -0.039236  1.3e-05  -0.090113  -0.188855  8e-06  3.984517  0.0
C  C50  1  0.13219468  0.99097471  0.67334920  1  -0.020544  3e-06  -0.090037  -0.18785  2e-06  3.983667  0.0
C  C51  1  0.85954613  0.31765087  0.99109757  1  -0.067315  3e-06  -0.090694  -0.189031  2e-06  3.983397  0.0
C  C52  1  0.54096603  0.67333834  0.68218420  1  -0.038983  -1.3e-05  -0.090209  -0.189109  -8e-06  3.984584  0.0
C  C53  1  0.86782344  0.00902681  0.32665368  1  -0.020656  -4e-06  -0.089988  -0.187895  -3e-06  3.983635  0.0
C  C54  1  0.00886608  0.55864570  0.22720176  1  0.278768  -7e-06  -0.069604  -0.204155  -6e-06  3.935523  0.0
C  C55  1  0.45007104  0.66842755  0.44126743  1  0.219404  -1.2e-05  -0.06912  -0.20242  -9e-06  3.93619  0.0
C  C56  1  0.78130754  0.77285115  0.33139713  1  0.24806  9e-06  -0.069243  -0.201122  8e-06  3.934586  0.0
C  C57  1  0.99112516  0.44135434  0.77280055  1  0.279185  7e-06  -0.069649  -0.204178  7e-06  3.93563  0.0
C  C58  1  0.54992577  0.33158363  0.55873791  1  0.238515  1.1e-05  -0.069146  -0.202885  9e-06  3.936163  0.0
C  C59  1  0.21870518  0.22715705  0.66861743  1  0.24748  -9e-06  -0.069291  -0.200971  -8e-06  3.934684  0.0
C  C60  1  0.04946576  0.61078042  0.10868884  1  0.594519  7e-06  0.080764  0.117891  2e-06  3.898896  0.0
C  C61  1  0.43884680  0.49785867  0.38923177  1  0.595084  8e-06  0.080671  0.11793  3e-06  3.897473  0.0
C  C62  1  0.94088120  0.89128029  0.50202851  1  0.586284  -1e-06  0.081258  0.119281  1e-06  3.898489  0.0
C  C63  1  0.95053096  0.38922185  0.89131043  1  0.594818  -6e-06  0.080778  0.118056  -2e-06  3.899284  0.0
C  C64  1  0.56112242  0.50212354  0.61077286  1  0.596421  -8e-06  0.080604  0.117759  -3e-06  3.898457  0.0
C  C65  1  0.05914083  0.10871157  0.49796185  1  0.584858  1e-06  0.081017  0.119046  -1e-06  3.897801  0.0
C  C66  1  0.83643653  0.51752029  0.25824908  1  1.580791  7e-06  0.205814  0.597094  1e-06  4.169533  0.0
C  C67  1  0.31901372  0.74071055  0.48265381  1  1.584358  -4e-06  0.205075  0.597036  -7e-06  4.169465  0.0
C  C68  1  0.57778473  0.74192735  0.25919883  1  1.592589  2e-06  0.203722  0.593818  4e-06  4.175072  0.0
C  C69  1  0.16356636  0.48248271  0.74175285  1  1.58114  -6e-06  0.20577  0.597174  -1e-06  4.170195  0.0
C  C70  1  0.68106798  0.25929021  0.51733256  1  1.58683  4e-06  0.205258  0.597393  7e-06  4.17102  0.0
C  C71  1  0.42217544  0.25808606  0.74080577  1  1.591083  -2e-06  0.203825  0.593876  -4e-06  4.174116  0.0
C  C72  1  0.89479764  0.69474180  0.89226113  1  0.045887  -1e-05  -0.087664  -0.107253  -6e-06  3.982692  0.0
C  C73  1  0.20144015  0.19755226  0.30533405  1  0.077119  2e-06  -0.087786  -0.10794  1e-06  3.984547  0.0
C  C74  1  0.00349314  0.10759514  0.80250787  1  -0.041293  3e-06  -0.087582  -0.107325  2e-06  3.985695  0.0
C  C75  1  0.10519211  0.30525526  0.10773843  1  0.046116  1e-05  -0.087676  -0.107294  6e-06  3.982659  0.0
C  C76  1  0.79854887  0.80244332  0.69466159  1  0.077651  -2e-06  -0.087889  -0.108107  -1e-06  3.984535  0.0
C  C77  1  0.99652469  0.89241158  0.19749297  1  -0.041314  -4e-06  -0.087586  -0.107213  -2e-06  3.985519  0.0
C  C78  1  0.09537757  0.71204886  0.93952380  1  0.017745  -1.2e-05  -0.004239  0.118511  -7e-06  4.088862  0.0
C  C79  1  0.38466816  0.22760073  0.28810486  1  0.051586  0.0  -0.004841  0.1184  0.0  4.08992  0.0
C  C80  1  0.15672565  0.06029136  0.77245900  1  0.04307  6e-06  -0.004529  0.118151  3e-06  4.093307  0.0
C  C81  1  0.90461003  0.28794969  0.06047313  1  0.017755  1.2e-05  -0.004256  0.11854  7e-06  4.088984  0.0
C  C82  1  0.61531798  0.77239782  0.71189515  1  0.051053  0.0  -0.004851  0.118467  0.0  4.089755  0.0
C  C83  1  0.84328957  0.93971016  0.22754242  1  0.043198  -6e-06  -0.004472  0.118241  -3e-06  4.093245  0.0
C  C84  1  0.74203447  0.64269039  0.91001623  1  -0.00962  -3e-05  -0.106441  -0.201156  -2.1e-05  3.954198  0.0
C  C85  1  0.10032752  0.26726492  0.35730881  1  -0.049052  -1.1e-05  -0.106335  -0.200656  -8e-06  3.953712  0.0
C  C86  1  0.83280157  0.08995622  0.73276373  1  0.017185  1.3e-05  -0.106388  -0.200639  9e-06  3.954074  0.0
C  C87  1  0.25795998  0.35730445  0.08998323  1  -0.00923  3.1e-05  -0.106409  -0.201154  2.1e-05  3.954225  0.0
C  C88  1  0.89964806  0.73272992  0.64268749  1  -0.049513  1.2e-05  -0.10637  -0.200649  9e-06  3.954148  0.0
C  C89  1  0.16722751  0.91004976  0.26723495  1  0.017644  -1.3e-05  -0.106295  -0.200596  -9e-06  3.95346  0.0
C  C90  1  0.78266447  0.60593058  0.97571428  1  0.543505  -5e-06  0.091163  0.306444  -3e-06  4.014095  0.0
C  C91  1  0.17717462  0.36971791  0.39400101  1  0.551861  1e-06  0.091567  0.307234  -0.0  4.011395  0.0
C  C92  1  0.80737366  0.02425527  0.63028604  1  0.554022  1e-06  0.090978  0.306271  1e-06  4.012085  0.0
C  C93  1  0.21734162  0.39406723  0.02428989  1  0.543524  6e-06  0.091126  0.306472  4e-06  4.014243  0.0
C  C94  1  0.82283199  0.63028955  0.60599243  1  0.552179  -1e-06  0.091622  0.307169  1e-06  4.012091  0.0
C  C95  1  0.19264388  0.97575962  0.36972114  1  0.553573  -1e-06  0.091018  0.30623  -1e-06  4.012006  0.0
N  N96  1  0.93015665  0.57466015  0.14607380  1  -1.195336  -0.000245  -0.388451  -0.254327  -0.000162  3.664081  0.0
N  N97  1  0.35539923  0.57133557  0.42527327  1  -1.154527  -0.000188  -0.388462  -0.256057  -0.000121  3.663342  0.0
N  N98  1  0.78396153  0.85389525  0.42860628  1  -1.178186  0.000132  -0.388844  -0.256337  8.5e-05  3.664509  0.0
N  N99  1  0.06981391  0.42533914  0.85392298  1  -1.195706  0.000245  -0.388434  -0.254354  0.000161  3.664539  0.0
N  N100  1  0.64451576  0.42866597  0.57473615  1  -1.17425  0.000189  -0.388277  -0.255434  0.000122  3.663799  0.0
N  N101  1  0.21610379  0.14610775  0.57139979  1  -1.176629  -0.000133  -0.38878  -0.256522  -8.6e-05  3.663614  0.0
Cl  Cl102  1  0.28267775  0.77134112  0.91035448  1  -0.205353  -2.6e-05  -0.012144  -0.081048  -1.4e-05  1.586552  0.0
Cl  Cl103  1  0.51301565  0.13926632  0.22872314  1  -0.208811  -2e-06  -0.011645  -0.080449  -2e-06  1.587815  0.0
Cl  Cl104  1  0.37328944  0.08923486  0.86085607  1  -0.205835  1.9e-05  -0.011848  -0.080608  1.1e-05  1.587359  0.0
Cl  Cl105  1  0.71730806  0.22865966  0.08964274  1  -0.205409  2.6e-05  -0.012168  -0.081081  1.4e-05  1.586571  0.0
Cl  Cl106  1  0.48698867  0.86073372  0.77127622  1  -0.208829  2e-06  -0.01162  -0.08041  2e-06  1.587918  0.0
Cl  Cl107  1  0.62672464  0.91076443  0.13914996  1  -0.205885  -1.9e-05  -0.011784  -0.080549  -1.1e-05  1.587426  0.0
O  O108  1  0.63461950  0.54836631  0.98465964  1  -1.055943  -8.8e-05  -0.335158  -0.489854  -5.6e-05  2.571709  0.0
O  O109  1  0.08608932  0.43614095  0.45137450  1  -1.06144  -6.2e-05  -0.335225  -0.49056  -4e-05  2.568246  0.0
O  O110  1  0.64995879  0.01524870  0.56383183  1  -1.062084  4.5e-05  -0.335191  -0.489909  2.8e-05  2.570085  0.0
O  O111  1  0.36538945  0.45162852  0.01534525  1  -1.055834  9.2e-05  -0.335124  -0.489807  5.8e-05  2.571678  0.0
O  O112  1  0.91391248  0.56388880  0.54861757  1  -1.061803  6.6e-05  -0.335189  -0.490434  4.2e-05  2.568436  0.0
O  O113  1  0.35007564  0.98478551  0.43619185  1  -1.062097  -5e-05  -0.335114  -0.489837  -3.1e-05  2.570294  0.0
O  O114  1  0.65665520  0.49933565  0.20727946  1  -1.110918  -0.000223  -0.330021  -0.539999  -0.000145  2.371629  0.0
O  O115  1  0.15753247  0.70800024  0.50095621  1  -1.113013  -0.000182  -0.330251  -0.540644  -0.000114  2.3697  0.0
O  O116  1  0.44877581  0.79269087  0.29207361  1  -1.113903  0.000128  -0.329314  -0.538463  8.1e-05  2.372959  0.0
O  O117  1  0.34331178  0.50066513  0.79270441  1  -1.110959  0.000222  -0.329972  -0.540013  0.000144  2.372479  0.0
O  O118  1  0.84240016  0.29195523  0.49903478  1  -1.115524  0.000182  -0.330253  -0.54047  0.000113  2.372559  0.0
O  O119  1  0.55124684  0.20728761  0.70789972  1  -1.112527  -0.000129  -0.329388  -0.538674  -8.2e-05  2.370999  0.0
O  O120  1  0.86919272  0.50308135  0.33014626  1  -1.17403  -4.6e-05  -0.31357  -0.543163  -3.2e-05  2.292435  0.0
O  O121  1  0.36623027  0.82706262  0.49719607  1  -1.173393  -3.5e-05  -0.312689  -0.542929  -2.1e-05  2.292347  0.0
O  O122  1  0.53910888  0.67029370  0.17275898  1  -1.180494  3e-05  -0.313448  -0.543166  1.7e-05  2.29118  0.0
O  O123  1  0.13077493  0.49691795  0.66985033  1  -1.174405  4.7e-05  -0.313611  -0.543319  3.2e-05  2.292551  0.0
O  O124  1  0.63378647  0.17294484  0.50280759  1  -1.173684  3.6e-05  -0.313073  -0.543645  2.1e-05  2.29204  0.0
O  O125  1  0.46090129  0.32971228  0.82724991  1  -1.180304  -3e-05  -0.313208  -0.542799  -1.7e-05  2.291302  0.0
