# generated using pymatgen
data_SnH16(C4O)2
_symmetry_space_group_name_H-M   'P 1'
_cell_length_a   6.20051448
_cell_length_b   19.45493620
_cell_length_c   19.48680867
_cell_angle_alpha   90.00034061
_cell_angle_beta   89.99985864
_cell_angle_gamma   90.00037845
_symmetry_Int_Tables_number   1
_chemical_formula_structural   SnH16(C4O)2
_chemical_formula_sum   'Sn8 H128 C64 O16'
_cell_volume   2350.70568482
_cell_formula_units_Z   8
loop_
 _symmetry_equiv_pos_site_id
 _symmetry_equiv_pos_as_xyz
  1  'x, y, z'
loop_
 _atom_site_type_symbol
 _atom_site_label
 _atom_site_symmetry_multiplicity
 _atom_site_fract_x
 _atom_site_fract_y
 _atom_site_fract_z
 _atom_site_occupancy
 _atom_site_pbe_bader_charge
 _atom_site_pbe_bader_spin_density
 _atom_site_pbe_cm5_charge
 _atom_site_pbe_ddec_charge
 _atom_site_pbe_ddec_spin_density
 _atom_site_pbe_ddec_sum_bond_order
 _atom_site_pbe_magmom
Sn  Sn0  1  0.00459362  0.53977332  0.18416961  1  1.684763  0  0.52782  1.216706  0  3.374404  0
Sn  Sn1  1  0.00462423  0.46022654  0.81583313  1  1.684705  0  0.527806  1.216658  0  3.374407  0
Sn  Sn2  1  0.99540219  0.96022388  0.68416540  1  1.684628  0  0.527679  1.216521  0  3.374718  0
Sn  Sn3  1  0.99540446  0.03977617  0.31583067  1  1.684685  0  0.527718  1.216526  0  3.374782  0
Sn  Sn4  1  0.87184953  0.31217389  0.03451720  1  1.672127  0  0.528542  1.220189  0  3.333852  0
Sn  Sn5  1  0.87186310  0.68782716  0.96548651  1  1.672151  0  0.528508  1.220069  0  3.33384  0
Sn  Sn6  1  0.12813818  0.18783247  0.53451934  1  1.672456  0  0.528564  1.220167  0  3.333943  0
Sn  Sn7  1  0.12814948  0.81217204  0.46547988  1  1.67223  0  0.528504  1.220102  0  3.333937  0
H  H8  1  0.48131352  0.25256350  0.33639591  1  0.052013  0  0.103159  0.095662  0  0.979302  0
H  H9  1  0.48131876  0.74743191  0.66360092  1  0.051987  0  0.103069  0.09557  0  0.979295  0
H  H10  1  0.51868571  0.24743552  0.83639572  1  0.05206  0  0.10313  0.0956  0  0.979333  0
H  H11  1  0.51866295  0.75256334  0.16360781  1  0.051845  0  0.103139  0.095719  0  0.979296  0
H  H12  1  0.46812792  0.19573886  0.23285122  1  0.030093  0  0.085019  0.079157  0  1.018444  0
H  H13  1  0.46811946  0.80426019  0.76714766  1  0.030233  0  0.085037  0.079136  0  1.018447  0
H  H14  1  0.53190409  0.30426734  0.73284955  1  0.030333  0  0.084986  0.079142  0  1.018431  0
H  H15  1  0.53187141  0.69574123  0.26715655  1  0.029983  0  0.084982  0.079165  0  1.018399  0
H  H16  1  0.21985807  0.15799799  0.25456394  1  0.048727  0  0.08815  0.078704  0  1.061194  0
H  H17  1  0.21985793  0.84200410  0.74543019  1  0.048678  0  0.08815  0.078685  0  1.06115  0
H  H18  1  0.78016866  0.34199990  0.75456672  1  0.048864  0  0.088158  0.078764  0  1.061106  0
H  H19  1  0.78013177  0.65799895  0.24544053  1  0.048935  0  0.088118  0.078628  0  1.061258  0
H  H20  1  0.24358514  0.25127296  0.14841536  1  0.019183  0  0.090727  0.090162  0  1.014825  0
H  H21  1  0.24356725  0.74873007  0.85158597  1  0.019221  0  0.090707  0.090128  0  1.014818  0
H  H22  1  0.75642765  0.24872539  0.64841168  1  0.01917  0  0.090723  0.090147  0  1.014797  0
H  H23  1  0.75640898  0.75127921  0.35158940  1  0.019104  0  0.09074  0.09012  0  1.014842  0
H  H24  1  0.01491954  0.24752528  0.20207469  1  0.019713  0  0.089105  0.083737  0  1.027877  0
H  H25  1  0.01491273  0.75247351  0.79792139  1  0.019721  0  0.089106  0.083779  0  1.027884  0
H  H26  1  0.98508892  0.25247311  0.70207521  1  0.019701  0  0.089093  0.083749  0  1.027952  0
H  H27  1  0.98507267  0.74752904  0.29792650  1  0.019823  0  0.089093  0.083775  0  1.027831  0
H  H28  1  0.51129863  0.39940279  0.23455670  1  0.054188  0  0.091103  0.126337  0  1.036481  0
H  H29  1  0.51129319  0.60060021  0.76544426  1  0.054286  0  0.09114  0.126364  0  1.036417  0
H  H30  1  0.48869463  0.10060293  0.73456177  1  0.054206  0  0.091162  0.126414  0  1.036458  0
H  H31  1  0.48870094  0.89940427  0.26543764  1  0.054169  0  0.091116  0.126358  0  1.036463  0
H  H32  1  0.49003319  0.35260211  0.15705984  1  -0.006954  0  0.087252  0.111507  0  1.041149  0
H  H33  1  0.49002829  0.64740405  0.84294111  1  -0.00695  0  0.087269  0.111519  0  1.041116  0
H  H34  1  0.50996168  0.14740463  0.65706147  1  -0.006898  0  0.08727  0.111553  0  1.04113  0
H  H35  1  0.50995295  0.85260762  0.34293949  1  -0.006947  0  0.087258  0.111588  0  1.041159  0
H  H36  1  0.58713884  0.31156115  0.23171771  1  0.022579  0  0.090234  0.121897  0  1.029724  0
H  H37  1  0.58713233  0.68844463  0.76828020  1  0.022958  0  0.090282  0.121978  0  1.029746  0
H  H38  1  0.41287545  0.18844811  0.73172358  1  0.022984  0  0.090283  0.121988  0  1.029783  0
H  H39  1  0.41285851  0.81156453  0.26828040  1  0.022578  0  0.090267  0.121922  0  1.029807  0
H  H40  1  0.87682558  0.27648842  0.30131937  1  0.012327  0  0.084037  0.114983  0  1.030943  0
H  H41  1  0.87681849  0.72350490  0.69867562  1  0.012544  0  0.083983  0.114886  0  1.031112  0
H  H42  1  0.12319212  0.22350732  0.80131916  1  0.012328  0  0.084007  0.11494  0  1.030935  0
H  H43  1  0.12316573  0.77649002  0.19867954  1  0.012024  0  0.084025  0.114962  0  1.030926  0
H  H44  1  0.89252612  0.36656954  0.31702861  1  0.026689  0  0.088967  0.124821  0  1.01816  0
H  H45  1  0.89252501  0.63342629  0.68296741  1  0.026282  0  0.088979  0.124867  0  1.018167  0
H  H46  1  0.10747351  0.13342754  0.81702861  1  0.026592  0  0.088979  0.124863  0  1.018144  0
H  H47  1  0.10745791  0.86656832  0.18296547  1  0.026823  0  0.088946  0.124804  0  1.01827  0
H  H48  1  0.94334141  0.30740004  0.38415889  1  -0.003073  0  0.090273  0.128478  0  1.006862  0
H  H49  1  0.94335290  0.69259251  0.61583869  1  -0.003129  0  0.090272  0.128441  0  1.006935  0
H  H50  1  0.05666006  0.19259684  0.88415736  1  -0.003063  0  0.090274  0.128482  0  1.006962  0
H  H51  1  0.05663625  0.80739716  0.11583977  1  -0.003099  0  0.090245  0.128432  0  1.006882  0
H  H52  1  0.49443167  0.37254392  0.34644839  1  0.023082  0  0.08373  0.116728  0  1.028739  0
H  H53  1  0.49444037  0.62745812  0.65354845  1  0.023013  0  0.083737  0.116722  0  1.028744  0
H  H54  1  0.50557058  0.12746352  0.84645274  1  0.023115  0  0.083707  0.116695  0  1.028769  0
H  H55  1  0.50554962  0.87253744  0.15354667  1  0.022953  0  0.083704  0.116728  0  1.028691  0
H  H56  1  0.29649361  0.35753333  0.41010736  1  0.05363  0  0.085844  0.12526  0  1.019039  0
H  H57  1  0.29649838  0.64246846  0.58989348  1  0.053618  0  0.085874  0.125325  0  1.019069  0
H  H58  1  0.70351862  0.14247486  0.91010656  1  0.053494  0  0.085846  0.125243  0  1.018991  0
H  H59  1  0.70350260  0.85752223  0.08989398  1  0.053564  0  0.085896  0.125351  0  1.019132  0
H  H60  1  0.25337303  0.42234769  0.34644761  1  0.059314  0  0.085851  0.1276  0  1.018393  0
H  H61  1  0.25339063  0.57764913  0.65354756  1  0.059174  0  0.085878  0.127633  0  1.018362  0
H  H62  1  0.74661632  0.07765203  0.84645249  1  0.059296  0  0.085891  0.127654  0  1.018366  0
H  H63  1  0.74660420  0.92234541  0.15354448  1  0.059198  0  0.08591  0.127703  0  1.018369  0
H  H64  1  0.24261593  0.47747302  0.08495255  1  0.066087  0  0.086741  0.171341  0  1.047831  0
H  H65  1  0.24263177  0.52252950  0.91504929  1  0.065912  0  0.086693  0.171229  0  1.047974  0
H  H66  1  0.75739493  0.02252818  0.58494812  1  0.066063  0  0.086697  0.171232  0  1.047893  0
H  H67  1  0.75737863  0.97746922  0.41504116  1  0.066148  0  0.086755  0.171275  0  1.047804  0
H  H68  1  0.31004616  0.56700393  0.08864753  1  0.055647  0  0.087717  0.172136  0  1.046446  0
H  H69  1  0.31006777  0.43299832  0.91136359  1  0.056151  0  0.0877  0.172098  0  1.046332  0
H  H70  1  0.68995000  0.93299651  0.58863824  1  0.056353  0  0.087695  0.172102  0  1.046318  0
H  H71  1  0.68994927  0.06700115  0.41135870  1  0.056309  0  0.087706  0.172118  0  1.046393  0
H  H72  1  0.06866555  0.54054387  0.04718465  1  0.038865  0  0.087517  0.168163  0  1.070974  0
H  H73  1  0.06868199  0.45946242  0.95282480  1  0.038635  0  0.087515  0.168123  0  1.070766  0
H  H74  1  0.93134437  0.95945368  0.54717836  1  0.038937  0  0.087509  0.168138  0  1.070801  0
H  H75  1  0.93133097  0.04053480  0.45281922  1  0.038577  0  0.087515  0.16815  0  1.07089  0
H  H76  1  0.03650313  0.59420494  0.31226221  1  0.031472  0  0.087296  0.171381  0  1.029249  0
H  H77  1  0.03655619  0.40579583  0.68774774  1  0.031816  0  0.087233  0.171339  0  1.029364  0
H  H78  1  0.96346907  0.90579173  0.81225020  1  0.031778  0  0.0873  0.171481  0  1.029334  0
H  H79  1  0.96349610  0.09420074  0.18774072  1  0.031454  0  0.087305  0.171435  0  1.02916  0
H  H80  1  0.18440810  0.64706777  0.25387382  1  0.050942  0  0.084105  0.166312  0  1.059188  0
H  H81  1  0.18443797  0.35292316  0.74613107  1  0.050974  0  0.084085  0.16622  0  1.059262  0
H  H82  1  0.81557175  0.85292723  0.75386729  1  0.0509  0  0.084104  0.166322  0  1.059256  0
H  H83  1  0.81558247  0.14706737  0.24612202  1  0.050626  0  0.084106  0.166311  0  1.059219  0
H  H84  1  0.29665657  0.56748084  0.28369639  1  0.063157  0  0.087404  0.174887  0  1.041461  0
H  H85  1  0.29670958  0.43251015  0.71631574  1  0.064176  0  0.087326  0.174739  0  1.041502  0
H  H86  1  0.70331944  0.93251474  0.78368763  1  0.064409  0  0.087376  0.174861  0  1.041418  0
H  H87  1  0.70334535  0.06747670  0.21630778  1  0.064542  0  0.08743  0.174943  0  1.041391  0
H  H88  1  0.61171734  0.48853697  0.15007665  1  0.064209  0  0.088737  0.175799  0  1.058687  0
H  H89  1  0.61174330  0.51145741  0.84993616  1  0.063972  0  0.088775  0.175768  0  1.058774  0
H  H90  1  0.38827122  0.01146296  0.65007110  1  0.064091  0  0.088776  0.17581  0  1.058757  0
H  H91  1  0.38827005  0.98854001  0.34993185  1  0.064017  0  0.088771  0.175794  0  1.058716  0
H  H92  1  0.58244875  0.57514619  0.17996780  1  0.058291  0  0.088331  0.172701  0  1.049764  0
H  H93  1  0.58246514  0.42484624  0.82003832  1  0.058125  0  0.088327  0.17267  0  1.049875  0
H  H94  1  0.41755037  0.92485504  0.67996101  1  0.058256  0  0.088321  0.172736  0  1.049753  0
H  H95  1  0.41755701  0.07515090  0.32004144  1  0.058039  0  0.088285  0.17261  0  1.049886  0
H  H96  1  0.61855689  0.50652763  0.23988041  1  0.047182  0  0.089529  0.172778  0  1.037413  0
H  H97  1  0.61858810  0.49346723  0.76013086  1  0.046813  0  0.089461  0.17256  0  1.037623  0
H  H98  1  0.38143615  0.99347222  0.73987356  1  0.047054  0  0.089496  0.172639  0  1.037486  0
H  H99  1  0.38144496  0.00653334  0.26012835  1  0.047198  0  0.089459  0.172541  0  1.037605  0
H  H100  1  0.63306299  0.19868097  0.05151781  1  0.050872  0  0.087855  0.177219  0  1.033345  0
H  H101  1  0.63312152  0.80132874  0.94848680  1  0.050847  0  0.087867  0.177092  0  1.033479  0
H  H102  1  0.36689050  0.30132932  0.55151865  1  0.050879  0  0.087866  0.177122  0  1.033456  0
H  H103  1  0.36690109  0.69867476  0.44847813  1  0.050886  0  0.087895  0.177199  0  1.033324  0
H  H104  1  0.63171087  0.24392427  0.13162310  1  0.032826  0  0.082631  0.16487  0  1.085159  0
H  H105  1  0.63175613  0.75608493  0.86838099  1  0.033005  0  0.082584  0.164809  0  1.085128  0
H  H106  1  0.36823130  0.25609173  0.63162687  1  0.033027  0  0.082603  0.164854  0  1.085118  0
H  H107  1  0.36824717  0.74391337  0.36837042  1  0.033005  0  0.082552  0.164761  0  1.085227  0
H  H108  1  0.85944179  0.19319970  0.10809565  1  0.050452  0  0.083874  0.167615  0  1.056649  0
H  H109  1  0.85950838  0.80680397  0.89190805  1  0.050149  0  0.083937  0.167544  0  1.056664  0
H  H110  1  0.14049441  0.30681275  0.60809068  1  0.049991  0  0.083906  0.167546  0  1.056653  0
H  H111  1  0.14050895  0.69319223  0.39190238  1  0.050149  0  0.083927  0.167575  0  1.056626  0
H  H112  1  0.26039306  0.24926855  0.01915562  1  0.048091  0  0.087864  0.171053  0  1.036298  0
H  H113  1  0.26039524  0.75073750  0.98085393  1  0.047943  0  0.087806  0.170939  0  1.036315  0
H  H114  1  0.73960142  0.25073596  0.51914577  1  0.047618  0  0.087809  0.171004  0  1.036283  0
H  H115  1  0.73960251  0.74926819  0.48084915  1  0.048066  0  0.08782  0.170978  0  1.036349  0
H  H116  1  0.30113638  0.33528600  0.04856493  1  0.03501  0  0.083999  0.162893  0  1.073492  0
H  H117  1  0.30113871  0.66472502  0.95143438  1  0.034971  0  0.08401  0.162869  0  1.073529  0
H  H118  1  0.69886072  0.16471652  0.54854907  1  0.035189  0  0.084043  0.162925  0  1.073576  0
H  H119  1  0.69886933  0.83528419  0.45143043  1  0.035255  0  0.083979  0.162851  0  1.073566  0
H  H120  1  0.24039913  0.31935067  0.96009904  1  0.07853  0  0.088999  0.180599  0  1.042915  0
H  H121  1  0.24041507  0.68064672  0.03990280  1  0.078408  0  0.089002  0.180609  0  1.04298  0
H  H122  1  0.75961530  0.18065543  0.46008456  1  0.078455  0  0.089096  0.180694  0  1.042891  0
H  H123  1  0.75960306  0.81935686  0.53989959  1  0.078469  0  0.088979  0.180581  0  1.042916  0
H  H124  1  0.65367825  0.41541505  0.97222492  1  0.047858  0  0.088417  0.176493  0  1.040706  0
H  H125  1  0.65366253  0.58459149  0.02777355  1  0.047847  0  0.088472  0.176556  0  1.040676  0
H  H126  1  0.34636012  0.08459695  0.47222946  1  0.047943  0  0.088471  0.176623  0  1.040624  0
H  H127  1  0.34630908  0.91540927  0.52777500  1  0.047869  0  0.088482  0.176548  0  1.040728  0
H  H128  1  0.81962226  0.45014006  0.03933117  1  0.0486  0  0.087022  0.166305  0  1.074389  0
H  H129  1  0.81961194  0.54986378  0.96067045  1  0.049032  0  0.086997  0.166308  0  1.074454  0
H  H130  1  0.18037825  0.04986331  0.53932315  1  0.048687  0  0.087012  0.166345  0  1.07437  0
H  H131  1  0.18039268  0.95013637  0.46066583  1  0.049055  0  0.08701  0.166314  0  1.074416  0
H  H132  1  0.56997504  0.41054309  0.05994881  1  0.028942  0  0.082962  0.159407  0  1.076486  0
H  H133  1  0.56996994  0.58946276  0.94004705  1  0.028898  0  0.082981  0.159447  0  1.076333  0
H  H134  1  0.43000892  0.08946120  0.55995855  1  0.028884  0  0.083014  0.159495  0  1.076384  0
H  H135  1  0.43004639  0.91054109  0.44005365  1  0.0289  0  0.082973  0.159399  0  1.076413  0
C  C136  1  0.09221218  0.38419531  0.20054236  1  1.548813  0  0.232484  0.585358  0  4.094691  0
C  C137  1  0.09222338  0.61579957  0.79945787  1  1.548901  0  0.232357  0.585152  0  4.094796  0
C  C138  1  0.90780114  0.11580716  0.70053315  1  1.548896  0  0.232373  0.585196  0  4.095281  0
C  C139  1  0.90778295  0.88419633  0.29945620  1  1.548823  0  0.232379  0.585259  0  4.09488  0
C  C140  1  0.23742499  0.32826557  0.23094164  1  0.017148  0  -0.013744  0.009611  0  3.749085  0
C  C141  1  0.23742358  0.67173132  0.76905609  1  0.017126  0  -0.013722  0.009712  0  3.748862  0
C  C142  1  0.76257803  0.17173237  0.73094218  1  0.01714  0  -0.013736  0.009725  0  3.748861  0
C  C143  1  0.76257209  0.82827066  0.26905736  1  0.017432  0  -0.01371  0.009712  0  3.749002  0
C  C144  1  0.20753105  0.31742958  0.31074849  1  0.066423  0  -9e-06  0.20916  0  3.658218  0
C  C145  1  0.20752570  0.68256691  0.68925282  1  0.066461  0  -2.1e-05  0.209303  0  3.657883  0
C  C146  1  0.79247355  0.18256995  0.81074588  1  0.066412  0  2.7e-05  0.209347  0  3.657921  0
C  C147  1  0.79245871  0.81743091  0.18925266  1  0.066808  0  3.9e-05  0.209354  0  3.658133  0
C  C148  1  0.31291280  0.24404604  0.32082742  1  -0.021634  0  -0.085692  -0.176866  0  3.775326  0
C  C149  1  0.31290550  0.75595363  0.67917138  1  -0.021798  0  -0.08561  -0.176812  0  3.774727  0
C  C150  1  0.68709482  0.25595420  0.82082519  1  -0.021883  0  -0.085696  -0.176882  0  3.77519  0
C  C151  1  0.68707428  0.74404450  0.17917739  1  -0.021637  0  -0.085795  -0.177135  0  3.775083  0
C  C152  1  0.30418212  0.20720278  0.25083509  1  -0.059264  0  -0.170679  -0.161929  0  3.913685  0
C  C153  1  0.30416666  0.79279538  0.74916217  1  -0.059407  0  -0.170708  -0.161868  0  3.913737  0
C  C154  1  0.69584145  0.29279658  0.75083514  1  -0.059671  0  -0.170624  -0.161912  0  3.913751  0
C  C155  1  0.69580845  0.70720260  0.24917002  1  -0.062689  0  -0.17058  -0.161767  0  3.913552  0
C  C156  1  0.18959735  0.25663162  0.20176731  1  -0.015737  0  -0.168709  -0.199233  0  3.922511  0
C  C157  1  0.18958819  0.74336802  0.79823091  1  -0.015779  0  -0.168739  -0.199364  0  3.922549  0
C  C158  1  0.81041434  0.24336625  0.70176730  1  -0.015713  0  -0.16873  -0.199332  0  3.922667  0
C  C159  1  0.81038752  0.75663659  0.29823432  1  -0.012773  0  -0.168737  -0.199271  0  3.922434  0
C  C160  1  0.46987286  0.34931048  0.21291763  1  -0.032369  0  -0.241035  -0.396128  0  3.896695  0
C  C161  1  0.46987261  0.65069370  0.78708227  1  -0.032745  0  -0.241155  -0.396293  0  3.896771  0
C  C162  1  0.53011924  0.15069480  0.71291976  1  -0.032831  0  -0.241207  -0.396415  0  3.896802  0
C  C163  1  0.53011785  0.84931326  0.28708172  1  -0.032359  0  -0.241086  -0.396278  0  3.896859  0
C  C164  1  0.96595338  0.31662487  0.32900822  1  -0.043081  0  -0.247573  -0.429143  0  3.902474  0
C  C165  1  0.96595815  0.68336811  0.67098887  1  -0.042831  0  -0.247539  -0.429097  0  3.902777  0
C  C166  1  0.03405245  0.18337245  0.82900829  1  -0.043047  0  -0.247572  -0.429218  0  3.902588  0
C  C167  1  0.03403148  0.81662421  0.17099088  1  -0.043199  0  -0.247567  -0.429134  0  3.902642  0
C  C168  1  0.31990728  0.37095607  0.35590090  1  -0.110044  0  -0.251211  -0.426831  0  3.923401  0
C  C169  1  0.31991146  0.62904409  0.64409739  1  -0.109845  0  -0.25127  -0.427004  0  3.923424  0
C  C170  1  0.68009800  0.12904847  0.85590225  1  -0.109821  0  -0.251235  -0.426879  0  3.923339  0
C  C171  1  0.68007872  0.87095077  0.14409520  1  -0.10977  0  -0.251269  -0.427078  0  3.923538  0
C  C172  1  0.17819268  0.52964042  0.08975557  1  -0.461328  0  -0.330304  -0.73472  0  3.735672  0
C  C173  1  0.17820765  0.47036390  0.91024932  1  -0.461897  0  -0.33028  -0.734557  0  3.735304  0
C  C174  1  0.82181797  0.97035953  0.58975119  1  -0.462213  0  -0.330232  -0.734519  0  3.735357  0
C  C175  1  0.82180619  0.02963761  0.41024377  1  -0.46213  0  -0.33031  -0.734602  0  3.735425  0
C  C176  1  0.14825881  0.59401513  0.26864145  1  -0.469291  0  -0.334432  -0.745719  0  3.758395  0
C  C177  1  0.14829487  0.40597903  0.73136907  1  -0.470769  0  -0.334293  -0.745432  0  3.758499  0
C  C178  1  0.85172396  0.90598119  0.76863195  1  -0.470797  0  -0.334423  -0.745789  0  3.758555  0
C  C179  1  0.85173717  0.09401326  0.23135994  1  -0.470357  0  -0.334491  -0.745847  0  3.758411  0
C  C180  1  0.66207071  0.52578847  0.18888020  1  -0.480105  0  -0.331664  -0.750918  0  3.743801  0
C  C181  1  0.66208803  0.47420571  0.81112904  1  -0.479117  0  -0.331645  -0.750649  0  3.744133  0
C  C182  1  0.33792339  0.97421242  0.68887400  1  -0.479774  0  -0.33167  -0.750843  0  3.744019  0
C  C183  1  0.33792947  0.02579434  0.31112738  1  -0.479613  0  -0.331598  -0.750563  0  3.744152  0
C  C184  1  0.20942568  0.20560724  0.38030881  1  1.532281  0  0.228767  0.607062  0  4.123317  0
C  C185  1  0.20940979  0.79439747  0.61968480  1  1.53282  0  0.228816  0.607289  0  4.123692  0
C  C186  1  0.79058394  0.29439008  0.88031403  1  1.532731  0  0.228775  0.60716  0  4.123409  0
C  C187  1  0.79056799  0.70559948  0.11968912  1  1.532706  0  0.22872  0.607008  0  4.123936  0
C  C188  1  0.73182813  0.22691049  0.08871006  1  -0.451693  0  -0.336241  -0.749062  0  3.740987  0
C  C189  1  0.73187387  0.77309575  0.91129460  1  -0.45159  0  -0.336313  -0.748794  0  3.740954  0
C  C190  1  0.26812621  0.27310107  0.58871005  1  -0.451494  0  -0.336253  -0.748857  0  3.741047  0
C  C191  1  0.26814145  0.72690495  0.41128565  1  -0.451642  0  -0.336265  -0.748902  0  3.74102  0
C  C192  1  0.21017848  0.30292849  0.01292297  1  -0.4686  0  -0.332402  -0.743995  0  3.740771  0
C  C193  1  0.21018267  0.69707621  0.98708091  1  -0.468249  0  -0.332322  -0.74381  0  3.740806  0
C  C194  1  0.78981936  0.19707641  0.51291101  1  -0.468186  0  -0.332435  -0.744043  0  3.740825  0
C  C195  1  0.78982140  0.80292908  0.48707675  1  -0.468748  0  -0.332305  -0.743852  0  3.740788  0
C  C196  1  0.70851868  0.40887914  0.02521099  1  -0.429218  0  -0.32984  -0.73813  0  3.74167  0
C  C197  1  0.70851299  0.59112410  0.97478955  1  -0.429385  0  -0.329883  -0.738238  0  3.741484  0
C  C198  1  0.29148213  0.09112909  0.52521193  1  -0.429644  0  -0.329936  -0.738393  0  3.741607  0
C  C199  1  0.29148488  0.90887478  0.47478891  1  -0.429414  0  -0.329904  -0.738197  0  3.741667  0
O  O200  1  0.10804521  0.44365864  0.23047622  1  -1.18761  0  -0.285677  -0.53496  0  2.292922  0
O  O201  1  0.10805386  0.55633464  0.76952196  1  -1.1877  0  -0.285591  -0.534883  0  2.293006  0
O  O202  1  0.89194169  0.05633158  0.73047723  1  -1.187451  0  -0.285643  -0.535058  0  2.292338  0
O  O203  1  0.89195631  0.94366631  0.26952032  1  -1.187628  0  -0.28559  -0.534892  0  2.29274  0
O  O204  1  0.97573091  0.37370471  0.14892617  1  -1.209549  0  -0.285843  -0.549216  0  2.225613  0
O  O205  1  0.97574996  0.62629285  0.85107913  1  -1.209555  0  -0.285722  -0.549041  0  2.225534  0
O  O206  1  0.02424315  0.12629416  0.64893234  1  -1.209724  0  -0.285638  -0.548829  0  2.226769  0
O  O207  1  0.02424724  0.87370562  0.35107606  1  -1.209555  0  -0.285779  -0.549125  0  2.225761  0
O  O208  1  0.25533842  0.23131947  0.44003271  1  -1.179623  0  -0.287681  -0.541196  0  2.289349  0
O  O209  1  0.25534105  0.76867735  0.55996862  1  -1.179852  0  -0.287704  -0.541293  0  2.289295  0
O  O210  1  0.74466352  0.26867853  0.94002836  1  -1.179804  0  -0.287662  -0.541198  0  2.289767  0
O  O211  1  0.74464442  0.73132046  0.05997477  1  -1.179575  0  -0.287635  -0.541157  0  2.289514  0
O  O212  1  0.08648392  0.15487323  0.37241492  1  -1.210891  0  -0.289284  -0.567011  0  2.258653  0
O  O213  1  0.08650259  0.84512528  0.62757914  1  -1.21101  0  -0.28921  -0.566957  0  2.259342  0
O  O214  1  0.91353714  0.34512290  0.87242031  1  -1.210935  0  -0.289328  -0.567105  0  2.258385  0
O  O215  1  0.91350405  0.65487645  0.12758701  1  -1.211091  0  -0.289186  -0.56686  0  2.259177  0
