# generated using pymatgen
data_ZnH8C12(NO2)2
_symmetry_space_group_name_H-M   'P 1'
_cell_length_a   13.50249744
_cell_length_b   13.50247817
_cell_length_c   14.71553256
_cell_angle_alpha   63.49690147
_cell_angle_beta   63.49684394
_cell_angle_gamma   87.61532854
_symmetry_Int_Tables_number   1
_chemical_formula_structural   ZnH8C12(NO2)2
_chemical_formula_sum   'Zn6 H48 C72 N12 O24'
_cell_volume   2106.65817558
_cell_formula_units_Z   6
loop_
 _symmetry_equiv_pos_site_id
 _symmetry_equiv_pos_as_xyz
  1  'x, y, z'
loop_
 _atom_site_type_symbol
 _atom_site_label
 _atom_site_symmetry_multiplicity
 _atom_site_fract_x
 _atom_site_fract_y
 _atom_site_fract_z
 _atom_site_occupancy
 _atom_site_pbe_bader_charge
 _atom_site_pbe_bader_spin_density
 _atom_site_pbe_cm5_charge
 _atom_site_pbe_ddec_charge
 _atom_site_pbe_ddec_spin_density
 _atom_site_pbe_ddec_sum_bond_order
 _atom_site_pbe_magmom
Zn  Zn0  1  0.15588677  0.88752761  0.64969126  1  1.247888  0  0.696481  0.752609  0  2.390866  0
Zn  Zn1  1  0.88752543  0.15588964  0.14969219  1  1.247782  0  0.696477  0.752603  0  2.390772  0
Zn  Zn2  1  0.40161758  0.13594447  0.89198052  1  1.250037  0  0.695285  0.748116  0  2.391689  0
Zn  Zn3  1  0.13594601  0.40161501  0.39198150  1  1.249991  0  0.695298  0.748162  0  2.39156  0
Zn  Zn4  1  0.50003804  0.76683936  0.76604507  1  1.255286  0  0.6947  0.750599  0  2.381457  0
Zn  Zn5  1  0.76684112  0.50003774  0.26604397  1  1.255302  0  0.694667  0.750516  0  2.381542  0
H  H6  1  0.80642768  0.00007863  0.92408238  1  0.100582  0  0.1107  0.116187  0  1.013309  0
H  H7  1  0.00008047  0.80642513  0.42408362  1  0.100624  0  0.110718  0.116208  0  1.013363  0
H  H8  1  0.14268939  0.00587727  0.88432292  1  0.108335  0  0.115893  0.129515  0  0.999809  0
H  H9  1  0.00587549  0.14268678  0.38431977  1  0.108457  0  0.115904  0.129494  0  0.999825  0
H  H10  1  0.51652416  0.87671148  0.46850920  1  0.151711  0  0.112678  0.129253  0  1.007662  0
H  H11  1  0.87670861  0.51652212  0.96850788  1  0.151701  0  0.112683  0.129254  0  1.007617  0
H  H12  1  0.48213282  0.22443319  0.32071733  1  0.146139  0  0.118815  0.140433  0  0.994547  0
H  H13  1  0.22443284  0.48213982  0.82071372  1  0.146174  0  0.11881  0.140424  0  0.994525  0
H  H14  1  0.76196024  0.07971966  0.06024020  1  0.109337  0  0.116371  0.08228  0  0.992003  0
H  H15  1  0.07972411  0.76196189  0.56023779  1  0.109205  0  0.116361  0.082259  0  0.992035  0
H  H16  1  0.08520953  0.07983267  0.02365911  1  0.163345  0  0.12386  0.108267  0  1.0187  0
H  H17  1  0.07982731  0.08520996  0.52365807  1  0.163419  0  0.12384  0.108185  0  1.018771  0
H  H18  1  0.72597559  0.94185255  0.32747824  1  0.114529  0  0.118697  0.095378  0  1.010702  0
H  H19  1  0.94184693  0.72597436  0.82747783  1  0.114418  0  0.118662  0.095326  0  1.010741  0
H  H20  1  0.69343973  0.27642788  0.18766258  1  0.148514  0  0.125258  0.1088  0  0.982547  0
H  H21  1  0.27642424  0.69344560  0.68766090  1  0.148555  0  0.12526  0.108756  0  0.982632  0
H  H22  1  0.60017211  0.02537883  0.86128360  1  0.133674  0  0.11815  0.093811  0  1.008143  0
H  H23  1  0.02537887  0.60016893  0.36128840  1  0.133655  0  0.118141  0.093832  0  1.008142  0
H  H24  1  0.81221026  0.08006027  0.72577442  1  0.132983  0  0.114921  0.13249  0  1.008801  0
H  H25  1  0.08005783  0.81220729  0.22577687  1  0.132981  0  0.114936  0.132504  0  1.008753  0
H  H26  1  0.76613639  0.41790128  0.55123107  1  0.121087  0  0.110289  0.119403  0  1.01975  0
H  H27  1  0.41789847  0.76613348  0.05123270  1  0.121146  0  0.110308  0.119422  0  1.019806  0
H  H28  1  0.55661343  0.35033914  0.69306436  1  0.169446  0  0.119023  0.097236  0  1.03312  0
H  H29  1  0.35034039  0.55661093  0.19306676  1  0.169419  0  0.119017  0.097224  0  1.033111  0
H  H30  1  0.14653819  0.26076071  0.17893020  1  0.122446  0  0.115968  0.126927  0  1.008599  0
H  H31  1  0.26076507  0.14653954  0.67892806  1  0.122447  0  0.115977  0.126961  0  1.008542  0
H  H32  1  0.48917596  0.28410032  0.12077536  1  0.111951  0  0.111055  0.11634  0  1.013076  0
H  H33  1  0.28409620  0.48917544  0.62077909  1  0.111959  0  0.111023  0.116323  0  1.013076  0
H  H34  1  0.53246005  0.20831160  0.98138144  1  0.077406  0  0.115295  0.080912  0  0.990275  0
H  H35  1  0.20830806  0.53245834  0.48138557  1  0.077449  0  0.115304  0.080911  0  0.990291  0
H  H36  1  0.20340363  0.19404413  0.03407751  1  0.145668  0  0.124746  0.108514  0  1.012837  0
H  H37  1  0.19404684  0.20340373  0.53407802  1  0.145699  0  0.124755  0.108535  0  1.012843  0
H  H38  1  0.57298805  0.49070586  0.09610264  1  0.154672  0  0.115251  0.134091  0  1.000213  0
H  H39  1  0.49070839  0.57298659  0.59609985  1  0.1547  0  0.115262  0.134113  0  1.00021  0
H  H40  1  0.74441693  0.83584593  0.92182578  1  0.168973  0  0.109435  0.1274  0  1.036264  0
H  H41  1  0.83584591  0.74441665  0.42182893  1  0.169085  0  0.109422  0.127379  0  1.036275  0
H  H42  1  0.49310454  0.55099221  0.95811236  1  0.158472  0  0.122191  0.106411  0  1.018157  0
H  H43  1  0.55099511  0.49310500  0.45810927  1  0.158484  0  0.122202  0.10643  0  1.018168  0
H  H44  1  0.65889514  0.88204440  0.79030345  1  0.100185  0  0.114956  0.077303  0  1.027956  0
H  H45  1  0.88204533  0.65889692  0.29030458  1  0.10015  0  0.114968  0.077301  0  1.027936  0
H  H46  1  0.79234473  0.13245700  0.43575388  1  0.136313  0  0.111008  0.124547  0  1.016396  0
H  H47  1  0.13245881  0.79234662  0.93575109  1  0.136946  0  0.11103  0.124576  0  1.016313  0
H  H48  1  0.39777168  0.96608162  0.74238726  1  0.152315  0  0.12496  0.109139  0  0.983266  0
H  H49  1  0.96608112  0.39777277  0.24238562  1  0.152347  0  0.124965  0.109178  0  0.983225  0
H  H50  1  0.72384821  0.92295561  0.57648413  1  0.145702  0  0.117696  0.099806  0  1.025743  0
H  H51  1  0.92295612  0.72385186  0.07648060  1  0.145675  0  0.117692  0.099798  0  1.025735  0
H  H52  1  0.45231479  0.17587488  0.60449524  1  0.12171  0  0.109859  0.118679  0  1.043352  0
H  H53  1  0.17587457  0.45231531  0.10449436  1  0.12172  0  0.109867  0.118685  0  1.043329  0
C  C54  1  0.00900092  0.95335764  0.80766327  1  1.578856  0  0.207164  0.564  0  4.216022  0
C  C55  1  0.95335671  0.00899653  0.30766245  1  1.57883  0  0.2071  0.564003  0  4.216365  0
C  C56  1  0.35926232  0.01203254  0.48367296  1  1.607026  0  0.19795  0.552001  0  4.231835  0
C  C57  1  0.01203387  0.35926291  0.98367407  1  1.606597  0  0.197922  0.552  0  4.231877  0
C  C58  1  0.97875542  0.99833931  0.89207474  1  -0.083288  0  0.010333  0.025243  0  3.919181  0
C  C59  1  0.99833977  0.97875196  0.39207430  1  -0.083767  0  0.010351  0.025183  0  3.919219  0
C  C60  1  0.48455330  0.04621457  0.40257742  1  -0.009265  0  0.009789  0.027325  0  3.923571  0
C  C61  1  0.04621461  0.48455508  0.90257524  1  -0.008823  0  0.009813  0.027414  0  3.923711  0
C  C62  1  0.87008468  0.01837435  0.94357945  1  0.021786  0  -0.073217  -0.130802  0  3.9445  0
C  C63  1  0.01837757  0.87008226  0.44357601  1  0.021979  0  -0.073285  -0.130876  0  3.944666  0
C  C64  1  0.05722554  0.02031110  0.92161926  1  0.081215  0  -0.070766  -0.131573  0  3.910866  0
C  C65  1  0.02031059  0.05722530  0.42161521  1  0.081211  0  -0.070763  -0.131522  0  3.910714  0
C  C66  1  0.55308724  0.96542754  0.40564164  1  -0.044916  0  -0.075375  -0.135485  0  3.926337  0
C  C67  1  0.96542458  0.55308829  0.90563973  1  -0.045221  0  -0.075353  -0.135495  0  3.926189  0
C  C68  1  0.53400815  0.16007685  0.32327738  1  0.012655  0  -0.069692  -0.13571  0  3.918312  0
C  C69  1  0.16007148  0.53400736  0.82328253  1  0.012839  0  -0.069716  -0.135785  0  3.918313  0
C  C70  1  0.84526718  0.06187516  0.01905238  1  0.437477  0  0.045603  0.084063  0  3.958169  0
C  C71  1  0.06187534  0.84526809  0.51905075  1  0.437634  0  0.045613  0.084119  0  3.958221  0
C  C72  1  0.02592551  0.06271219  0.99885732  1  0.438405  0  0.05907  0.115269  0  3.893063  0
C  C73  1  0.06271140  0.02592817  0.49885281  1  0.438382  0  0.059066  0.115403  0  3.892986  0
C  C74  1  0.66804713  0.00072089  0.32877934  1  0.459637  0  0.0447  0.079164  0  3.942339  0
C  C75  1  0.00071831  0.66804920  0.82877761  1  0.459912  0  0.04469  0.079218  0  3.94235  0
C  C76  1  0.64986925  0.18896298  0.24974417  1  0.381606  0  0.049036  0.085217  0  3.918751  0
C  C77  1  0.18895881  0.64987316  0.74974219  1  0.381675  0  0.049069  0.085345  0  3.918756  0
C  C78  1  0.80348268  0.25336045  0.62918271  1  0.010084  0  0.011737  0.035749  0  3.916733  0
C  C79  1  0.25336003  0.80348115  0.12918020  1  0.010103  0  0.011789  0.035818  0  3.91661  0
C  C80  1  0.92886561  0.28795451  0.54925832  1  1.600501  0  0.199305  0.556169  0  4.218733  0
C  C81  1  0.28794969  0.92886368  0.04925786  1  1.600429  0  0.199268  0.556169  0  4.218799  0
C  C82  1  0.64158163  0.11117472  0.79127436  1  0.391859  0  0.0432  0.076882  0  3.947382  0
C  C83  1  0.11117501  0.64158039  0.29127481  1  0.391888  0  0.043127  0.076759  0  3.947487  0
C  C84  1  0.75714971  0.14130151  0.71695039  1  -0.018856  0  -0.074008  -0.144598  0  3.934324  0
C  C85  1  0.14130103  0.75714729  0.21695240  1  -0.018841  0  -0.074068  -0.144678  0  3.934358  0
C  C86  1  0.73181410  0.33056144  0.61909840  1  -0.038648  0  -0.071927  -0.127209  0  3.918602  0
C  C87  1  0.33056133  0.73181246  0.11909638  1  -0.038613  0  -0.071953  -0.127213  0  3.918522  0
C  C88  1  0.61691760  0.29421107  0.69675646  1  0.431232  0  0.049216  0.08779  0  3.913917  0
C  C89  1  0.29421020  0.61691515  0.19675707  1  0.431165  0  0.049192  0.087753  0  3.91388  0
C  C90  1  0.28688258  0.32945432  0.23982206  1  1.58865  0  0.208888  0.565559  0  4.212126  0
C  C91  1  0.32945465  0.28688109  0.73982214  1  1.588651  0  0.208926  0.565682  0  4.211882  0
C  C92  1  0.44820778  0.22209264  0.02685380  1  0.485969  0  0.04521  0.083551  0  3.961374  0
C  C93  1  0.22209214  0.44820627  0.52685714  1  0.485931  0  0.045194  0.083543  0  3.961428  0
C  C94  1  0.26402682  0.21268449  0.05670623  1  0.492701  0  0.062032  0.120984  0  3.879483  0
C  C95  1  0.21268663  0.26402665  0.55670711  1  0.492974  0  0.062008  0.120937  0  3.879629  0
C  C96  1  0.23330504  0.25158780  0.13655073  1  -0.019348  0  -0.068188  -0.127628  0  3.905784  0
C  C97  1  0.25159225  0.23330596  0.63654880  1  -0.019248  0  -0.068173  -0.127606  0  3.905824  0
C  C98  1  0.42420237  0.26341505  0.10394701  1  -0.031041  0  -0.075093  -0.137909  0  3.947842  0
C  C99  1  0.26341559  0.42420277  0.60394772  1  -0.031096  0  -0.075132  -0.137971  0  3.947775  0
C  C100  1  0.31445896  0.27873637  0.16041219  1  0.016889  0  0.013916  0.032842  0  3.914072  0
C  C101  1  0.27873836  0.31445900  0.66041168  1  0.016868  0  0.013932  0.032822  0  3.913949  0
C  C102  1  0.66320045  0.65997079  0.01991130  1  -0.046886  0  0.008842  0.030041  0  3.932464  0
C  C103  1  0.65997035  0.66320073  0.51991168  1  -0.028048  0  0.008824  0.030091  0  3.932489  0
C  C104  1  0.59458654  0.57795279  0.02867395  1  -0.023043  0  -0.073106  -0.137154  0  3.925232  0
C  C105  1  0.57795390  0.59458765  0.52867471  1  -0.023148  0  -0.073136  -0.137203  0  3.925081  0
C  C106  1  0.70955455  0.63086936  0.10263075  1  1.587294  0  0.196979  0.552294  0  4.234671  0
C  C107  1  0.63087109  0.70955334  0.60263226  1  1.587132  0  0.196976  0.552304  0  4.234693  0
C  C108  1  0.68788868  0.77132822  0.93290794  1  0.00306  0  -0.076948  -0.139893  0  3.932178  0
C  C109  1  0.77132812  0.68788911  0.43290879  1  -0.015612  0  -0.076977  -0.139952  0  3.932095  0
C  C110  1  0.55037709  0.61017462  0.95284766  1  0.416476  0  0.050133  0.08915  0  3.916048  0
C  C111  1  0.61017789  0.55037921  0.45284372  1  0.416508  0  0.050148  0.089118  0  3.915977  0
C  C112  1  0.64178834  0.79659431  0.85960484  1  0.418221  0  0.046816  0.089503  0  3.944652  0
C  C113  1  0.79659803  0.64178476  0.35960436  1  0.418082  0  0.046813  0.089522  0  3.944667  0
C  C114  1  0.62593379  0.16863903  0.51073612  1  -0.041741  0  0.005335  0.02062  0  3.947207  0
C  C115  1  0.16863916  0.62593458  0.01073372  1  -0.041642  0  0.005319  0.020679  0  3.947205  0
C  C116  1  0.51410612  0.12180128  0.59768864  1  0.092713  0  -0.075862  -0.136639  0  3.943669  0
C  C117  1  0.12180156  0.51410716  0.09768738  1  0.092626  0  -0.075844  -0.13663  0  3.943654  0
C  C118  1  0.70463019  0.09819596  0.50294487  1  -0.02823  0  -0.0767  -0.135808  0  3.935698  0
C  C119  1  0.09819778  0.70463099  0.00294188  1  -0.028969  0  -0.076758  -0.135912  0  3.935689  0
C  C120  1  0.66783606  0.98330532  0.58030934  1  0.436672  0  0.041955  0.072338  0  3.941328  0
C  C121  1  0.98330645  0.66783908  0.08030777  1  0.436678  0  0.041981  0.072372  0  3.941142  0
C  C122  1  0.48383508  0.00678181  0.67313926  1  0.367316  0  0.050961  0.095895  0  3.911382  0
C  C123  1  0.00678312  0.48383749  0.17313570  1  0.367369  0  0.05096  0.095837  0  3.911479  0
C  C124  1  0.65704628  0.29284837  0.42738026  1  1.56879  0  0.195255  0.544994  0  4.247445  0
C  C125  1  0.29284908  0.65704471  0.92737914  1  1.568798  0  0.195223  0.544954  0  4.247709  0
N  N126  1  0.08421802  0.92197392  0.54595448  1  -1.243511  0  -0.328458  -0.229628  0  3.605334  0
N  N127  1  0.92197252  0.08421738  0.04595646  1  -1.243591  0  -0.328515  -0.229598  0  3.605358  0
N  N128  1  0.11049756  0.71547843  0.75212845  1  -1.266987  0  -0.332382  -0.240772  0  3.59969  0
N  N129  1  0.71547498  0.11049967  0.25213031  1  -1.266758  0  -0.332386  -0.240709  0  3.59938  0
N  N130  1  0.57277960  0.18630783  0.78152578  1  -1.250307  0  -0.330867  -0.237085  0  3.591021  0
N  N131  1  0.18630772  0.57277601  0.28152795  1  -1.25036  0  -0.330735  -0.236929  0  3.590957  0
N  N132  1  0.19763526  0.36965983  0.50305590  1  -1.26606  0  -0.329377  -0.22876  0  3.60114  0
N  N133  1  0.36965991  0.19763409  0.00305524  1  -1.265806  0  -0.329421  -0.228803  0  3.601079  0
N  N134  1  0.57280866  0.71811103  0.87021921  1  -1.253503  0  -0.328997  -0.227419  0  3.601556  0
N  N135  1  0.71811389  0.57281172  0.37021771  1  -1.253555  0  -0.328976  -0.227355  0  3.60176  0
N  N136  1  0.93845881  0.55934308  0.16368359  1  -1.267188  0  -0.331231  -0.236937  0  3.582648  0
N  N137  1  0.55934211  0.93845849  0.66368538  1  -1.267198  0  -0.33122  -0.236956  0  3.582787  0
O  O138  1  0.11539858  0.95091509  0.75580870  1  -1.162036  0  -0.328052  -0.541874  0  2.313142  0
O  O139  1  0.95091355  0.11539696  0.25580843  1  -1.161998  0  -0.328032  -0.541878  0  2.313139  0
O  O140  1  0.32234668  0.90565668  0.55859166  1  -1.1673  0  -0.336299  -0.549432  0  2.273096  0
O  O141  1  0.90565647  0.32234970  0.05860066  1  -1.16713  0  -0.336286  -0.549441  0  2.273042  0
O  O142  1  0.93385538  0.92155239  0.79371959  1  -1.161711  0  -0.315442  -0.545933  0  2.135604  0
O  O143  1  0.92155198  0.93385260  0.29371721  1  -1.161796  0  -0.31542  -0.545921  0  2.135887  0
O  O144  1  0.29891284  0.08478774  0.47500342  1  -1.162193  0  -0.308324  -0.53244  0  2.146207  0
O  O145  1  0.08478913  0.29891515  0.97499963  1  -1.162195  0  -0.308337  -0.53247  0  2.14626  0
O  O146  1  0.96716472  0.39292120  0.47035883  1  -1.17288  0  -0.336989  -0.557213  0  2.254786  0
O  O147  1  0.39291565  0.96716479  0.97035434  1  -1.172788  0  -0.336982  -0.557216  0  2.254838  0
O  O148  1  0.98913466  0.21565003  0.56336901  1  -1.151911  0  -0.304504  -0.530317  0  2.170821  0
O  O149  1  0.21564508  0.98913192  0.06337174  1  -1.151847  0  -0.304492  -0.530326  0  2.170898  0
O  O150  1  0.17970164  0.32482442  0.29841725  1  -1.168248  0  -0.328299  -0.543394  0  2.339269  0
O  O151  1  0.32482443  0.17969876  0.79842000  1  -1.168285  0  -0.328341  -0.543473  0  2.339184  0
O  O152  1  0.36472738  0.37420328  0.24124557  1  -1.163157  0  -0.313472  -0.539386  0  2.112223  0
O  O153  1  0.37420337  0.36472619  0.74124565  1  -1.163113  0  -0.313473  -0.539404  0  2.112111  0
O  O154  1  0.70862920  0.52432633  0.15827094  1  -1.149339  0  -0.330145  -0.535614  0  2.292739  0
O  O155  1  0.52432845  0.70863010  0.65826808  1  -1.149476  0  -0.330085  -0.535604  0  2.29267  0
O  O156  1  0.74493194  0.70759395  0.11251487  1  -1.160586  0  -0.327187  -0.549184  0  2.106667  0
O  O157  1  0.70759594  0.74493283  0.61251401  1  -1.160288  0  -0.327201  -0.549186  0  2.10672  0
O  O158  1  0.76357427  0.33490829  0.35742984  1  -1.168101  0  -0.332232  -0.544525  0  2.260731  0
O  O159  1  0.33490675  0.76357343  0.85742736  1  -1.168069  0  -0.332251  -0.544557  0  2.260849  0
O  O160  1  0.58010089  0.34820446  0.42969100  1  -1.155965  0  -0.313718  -0.530772  0  2.134464  0
O  O161  1  0.34820570  0.58009963  0.92969284  1  -1.156024  0  -0.313653  -0.530722  0  2.13463  0
