# generated using pymatgen
data_ZnH13C29N(ClO8)2
_symmetry_space_group_name_H-M   'P 1'
_cell_length_a   10.78460449
_cell_length_b   18.21207087
_cell_length_c   19.64153765
_cell_angle_alpha   89.84285643
_cell_angle_beta   91.06691930
_cell_angle_gamma   89.41786477
_symmetry_Int_Tables_number   1
_chemical_formula_structural   ZnH13C29N(ClO8)2
_chemical_formula_sum   'Zn2 H26 C58 N2 Cl4 O32'
_cell_volume   3856.90954742
_cell_formula_units_Z   2
loop_
 _symmetry_equiv_pos_site_id
 _symmetry_equiv_pos_as_xyz
  1  'x, y, z'
loop_
 _atom_site_type_symbol
 _atom_site_label
 _atom_site_symmetry_multiplicity
 _atom_site_fract_x
 _atom_site_fract_y
 _atom_site_fract_z
 _atom_site_occupancy
 _atom_site_pbe_bader_charge
 _atom_site_pbe_bader_spin_density
 _atom_site_pbe_cm5_charge
 _atom_site_pbe_ddec_charge
 _atom_site_pbe_ddec_spin_density
 _atom_site_pbe_ddec_sum_bond_order
 _atom_site_pbe_magmom
Zn  Zn0  1  0.49980817  0.42160133  0.50236939  1  1.278388  0  0.674679  0.814049  0  2.44643  0
Zn  Zn1  1  0.50798851  0.57595011  0.50094276  1  1.262994  0  0.677093  0.811551  0  2.450476  0
H  H2  1  0.90289951  0.54778715  0.39332595  1  0.149806  0  0.118754  0.144746  0  0.948614  0
H  H3  1  0.65006549  0.69150464  0.43201230  1  0.149874  0  0.1351  0.11109  0  0.959005  0
H  H4  1  0.56057126  0.16632839  0.60372822  1  0.098236  0  0.114391  0.124877  0  0.985749  0
H  H5  1  0.35287321  0.82811883  0.57213951  1  0.105716  0  0.115245  0.125615  0  0.977364  0
H  H6  1  0.44235704  0.17006876  0.39187296  1  0.087988  0  0.116071  0.127425  0  0.980246  0
H  H7  1  0.64887528  0.82944941  0.42632731  1  0.095715  0  0.115874  0.12542  0  0.97717  0
H  H8  1  0.53593823  0.72997821  0.69849292  1  0.624439  0  0.344379  0.386379  0  0.847492  0
H  H9  1  0.72732680  0.31438985  0.32206838  1  0.599819  0  0.350586  0.390774  0  0.839701  0
H  H10  1  0.31111435  0.70345018  0.30739986  1  0.620482  0  0.348744  0.391765  0  0.839323  0
H  H11  1  0.35951145  0.28065550  0.68765833  1  0.613208  0  0.347151  0.384819  0  0.846692  0
H  H12  1  0.47594167  0.69508300  0.92700528  1  0.620508  0  0.346749  0.382617  0  0.847465  0
H  H13  1  0.10554308  0.44101252  0.59610148  1  0.159184  0  0.114522  0.15139  0  0.976149  0
H  H14  1  0.63903020  0.31094415  0.08987761  1  0.611125  0  0.347788  0.384665  0  0.846216  0
H  H15  1  0.33274897  0.67536428  0.08028871  1  0.60363  0  0.346725  0.382913  0  0.847446  0
H  H16  1  0.43145901  0.29350520  0.90930596  1  0.609918  0  0.348132  0.383784  0  0.844611  0
H  H17  1  0.15128436  0.10655922  0.40278299  1  0.631251  0  0.359489  0.402183  0  0.82134  0
H  H18  1  0.88085978  0.89761856  0.55454384  1  0.60739  0  0.354386  0.394956  0  0.833141  0
H  H19  1  0.84958848  0.09907341  0.59512705  1  0.63327  0  0.36002  0.403587  0  0.818951  0
H  H20  1  0.11257740  0.90928474  0.45036119  1  0.626532  0  0.352504  0.392602  0  0.836343  0
H  H21  1  0.66426443  0.51445650  0.93467534  1  0.083138  0  0.110549  0.116707  0  0.978575  0
H  H22  1  0.28513556  0.47063267  0.06878894  1  0.08772  0  0.110138  0.116661  0  0.979089  0
H  H23  1  0.67742953  0.51255049  0.06100156  1  0.084364  0  0.109942  0.116049  0  0.979429  0
H  H24  1  0.27173253  0.47313803  0.94244062  1  0.083281  0  0.10967  0.116137  0  0.980497  0
H  H25  1  0.55600277  0.30404837  0.60077561  1  0.13585  0  0.128963  0.107551  0  0.987154  0
H  H26  1  0.36649637  0.69026654  0.57110948  1  0.171307  0  0.13104  0.108657  0  0.975109  0
H  H27  1  0.43997898  0.30784080  0.39870560  1  0.173621  0  0.131484  0.108683  0  0.97623  0
C  C28  1  0.50917666  0.50486130  0.36792459  1  1.572997  0  0.216586  0.594587  0  4.206062  0
C  C29  1  0.42673983  0.72391451  0.54010656  1  0.485323  0  0.06772  0.117415  0  3.899077  0
C  C30  1  0.46533314  0.27367073  0.44264198  1  0.411359  0  0.069721  0.119049  0  3.888546  0
C  C31  1  0.58682896  0.72458118  0.46227313  1  0.517565  0  0.071744  0.12259  0  3.89366  0
C  C32  1  0.53419568  0.19534426  0.55698967  1  -0.067015  0  -0.079253  -0.17566  0  3.940424  0
C  C33  1  0.41955284  0.80010048  0.53997927  1  -0.035973  0  -0.078907  -0.175271  0  3.938618  0
C  C34  1  0.46670047  0.19742197  0.43947042  1  0.011318  0  -0.075949  -0.170933  0  3.927889  0
C  C35  1  0.58565647  0.80078802  0.45962150  1  -0.040358  0  -0.076172  -0.170882  0  3.934431  0
C  C36  1  0.50096842  0.15702922  0.49774839  1  -0.012821  0  0.012369  0.110542  0  4.007658  0
C  C37  1  0.50080194  0.83955815  0.49927136  1  -0.029598  0  0.01224  0.110245  0  4.0158  0
C  C38  1  0.39246328  0.03761916  0.47944527  1  -0.012755  0  0.008591  -0.061407  0  3.887029  0
C  C39  1  0.48418184  0.50196564  0.63537848  1  1.633451  0  0.220677  0.597533  0  4.178335  0
C  C40  1  0.60549879  0.95897715  0.52099365  1  0.014642  0  0.004178  -0.078712  0  3.902326  0
C  C41  1  0.60858646  0.03587557  0.51661451  1  0.055297  0  0.00877  -0.061519  0  3.888533  0
C  C42  1  0.39366433  0.96052949  0.47657074  1  0.034267  0  0.004071  -0.076276  0  3.901415  0
C  C43  1  0.49945041  0.92091162  0.49875363  1  0.026552  0  0.019175  0.043545  0  3.940692  0
C  C44  1  0.50101728  0.07569050  0.49745307  1  0.031504  0  0.015292  0.0338  0  3.938514  0
C  C45  1  0.26671744  0.50390090  0.49325536  1  1.589848  0  0.219134  0.618875  0  4.161098  0
C  C46  1  0.74083339  0.48692874  0.50255558  1  1.616352  0  0.218312  0.620577  0  4.160887  0
C  C47  1  0.04543578  0.46064065  0.43879911  1  0.177368  0  0.028139  0.116224  0  3.696358  0
C  C48  1  0.96260608  0.52932415  0.55154741  1  0.163471  0  0.019669  0.096675  0  3.740591  0
C  C49  1  0.97533498  0.42241134  0.49894967  1  0.155546  0  0.021303  0.115736  0  3.696118  0
C  C50  1  0.58121023  0.50491187  0.96420359  1  0.040459  0  -0.086881  -0.12043  0  3.973482  0
C  C51  1  0.03187184  0.56760255  0.49110871  1  0.13274  0  0.022179  0.117226  0  3.694492  0
C  C52  1  0.94904119  0.52518626  0.43873968  1  -0.039269  0  -0.067793  -0.120552  0  3.600364  0
C  C53  1  0.05818115  0.46467150  0.55142081  1  -0.049764  0  -0.073802  -0.134003  0  3.60379  0
C  C54  1  0.87816450  0.48715123  0.49837032  1  0.003335  0  -0.005527  -0.077396  0  3.636442  0
C  C55  1  0.12914307  0.50312771  0.49205450  1  0.036622  0  -0.003393  -0.069688  0  3.630022  0
C  C56  1  0.50772135  0.56377006  0.74989118  1  0.079558  0  0.017815  -0.021264  0  3.875975  0
C  C57  1  0.57898823  0.45249409  0.25690307  1  0.013091  0  0.010307  -0.042741  0  3.904746  0
C  C58  1  0.42432809  0.55039225  0.25517452  1  -0.043955  0  0.014072  -0.02779  0  3.883034  0
C  C59  1  0.42049583  0.44164827  0.74457964  1  -0.046469  0  0.013562  -0.031422  0  3.896396  0
C  C60  1  0.49886908  0.56238327  0.82115625  1  -0.013469  0  0.002732  -0.085538  0  3.893168  0
C  C61  1  0.36823140  0.48020522  0.03928691  1  0.024765  0  -0.087249  -0.122164  0  3.974226  0
C  C62  1  0.56894067  0.44674492  0.18580699  1  0.033057  0  0.001922  -0.080001  0  3.899334  0
C  C63  1  0.41947485  0.54751471  0.18376732  1  0.020958  0  0.00323  -0.079567  0  3.891872  0
C  C64  1  0.42150474  0.43801288  0.81594188  1  0.081595  0  0.002567  -0.081371  0  3.897227  0
C  C65  1  0.46131286  0.49826994  0.85503936  1  -0.011369  0  0.016525  0.052371  0  3.93411  0
C  C66  1  0.48951339  0.49466448  0.14847381  1  -0.025527  0  0.013222  0.043442  0  3.934386  0
C  C67  1  0.46941594  0.50302000  0.71147623  1  -0.012436  0  0.006437  -0.055207  0  3.89475  0
C  C68  1  0.50422567  0.50291884  0.29143501  1  0.10816  0  0.008127  -0.046885  0  3.911858  0
C  C69  1  0.56506839  0.62957212  0.71633228  1  1.574545  0  0.23237  0.588777  0  4.136472  0
C  C70  1  0.67431539  0.40972722  0.29801233  1  1.560899  0  0.236657  0.590459  0  4.12862  0
C  C71  1  0.34174535  0.60227463  0.29375072  1  1.554761  0  0.233717  0.585301  0  4.130317  0
C  C72  1  0.58873044  0.50329636  0.03495710  1  -0.101663  0  -0.08653  -0.119602  0  3.974017  0
C  C73  1  0.35797280  0.38233621  0.70381089  1  1.553587  0  0.236796  0.59039  0  4.133603  0
C  C74  1  0.53423772  0.62962091  0.86069510  1  1.521156  0  0.230956  0.575864  0  4.143927  0
C  C75  1  0.64749335  0.39061011  0.15063551  1  1.512534  0  0.230553  0.579111  0  4.144073  0
C  C76  1  0.33523700  0.60080947  0.14664017  1  1.529395  0  0.230815  0.578527  0  4.145312  0
C  C77  1  0.37756924  0.36943785  0.85010005  1  1.514644  0  0.231597  0.581647  0  4.148022  0
C  C78  1  0.27358235  0.08068913  0.46915508  1  1.550042  0  0.232431  0.577143  0  4.162261  0
C  C79  1  0.70881593  0.91627622  0.55549351  1  1.541482  0  0.23391  0.579789  0  4.145225  0
C  C80  1  0.72819082  0.07653031  0.52764687  1  1.543738  0  0.233338  0.579045  0  4.153962  0
C  C81  1  0.28643259  0.91926750  0.44603270  1  1.527299  0  0.234207  0.579898  0  4.140008  0
C  C82  1  0.36083634  0.48117500  0.96845247  1  -0.108742  0  -0.087071  -0.119325  0  3.974289  0
C  C83  1  0.48204692  0.49178358  0.07312646  1  0.031904  0  -0.011649  0.064591  0  4.028254  0
C  C84  1  0.46705768  0.49440348  0.93037485  1  0.028576  0  -0.012545  0.061116  0  4.028688  0
C  C85  1  0.53143216  0.27157126  0.55600105  1  0.541114  0  0.064775  0.111924  0  3.900862  0
N  N86  1  0.49671068  0.30959563  0.49997571  1  -1.215409  0  -0.314336  -0.18339  0  3.506848  0
N  N87  1  0.50921647  0.68741619  0.50206970  1  -1.235098  0  -0.317798  -0.187864  0  3.51302  0
Cl  Cl88  1  0.09867601  0.41641294  0.36708960  1  -0.198022  0  -0.035986  -0.095035  0  1.431734  0
Cl  Cl89  1  0.90920123  0.57238801  0.62352191  1  -0.180254  0  -0.026975  -0.074805  0  1.494903  0
Cl  Cl90  1  0.94429015  0.32913541  0.50259892  1  -0.231051  0  -0.061987  -0.128942  0  1.412649  0
Cl  Cl91  1  0.06272485  0.66103381  0.48696263  1  -0.231051  0  -0.066857  -0.14049  0  1.41406  0
O  O92  1  0.50144436  0.44295732  0.39724261  1  -1.163135  0  -0.305579  -0.543464  0  2.334953  0
O  O93  1  0.48759378  0.68920306  0.71663765  1  -1.128352  0  -0.341361  -0.492103  0  2.204231  0
O  O94  1  0.75710348  0.43907402  0.33053891  1  -1.116638  0  -0.265843  -0.453336  0  2.104569  0
O  O95  1  0.65865627  0.33589028  0.29494662  1  -1.085115  0  -0.335104  -0.486316  0  2.212743  0
O  O96  1  0.25945516  0.58254982  0.33076613  1  -1.10648  0  -0.268212  -0.449451  0  2.115642  0
O  O97  1  0.36975241  0.67370585  0.28128186  1  -1.101218  0  -0.337428  -0.48774  0  2.202229  0
O  O98  1  0.26214159  0.39219311  0.67129171  1  -1.115343  0  -0.26804  -0.45849  0  2.102035  0
O  O99  1  0.41432457  0.31542203  0.71118810  1  -1.109707  0  -0.33612  -0.489539  0  2.228417  0
O  O100  1  0.63204345  0.66193763  0.85519580  1  -1.115545  0  -0.286953  -0.475382  0  2.063432  0
O  O101  1  0.44280185  0.65226267  0.90287875  1  -1.113643  0  -0.332332  -0.477378  0  2.219848  0
O  O102  1  0.75993055  0.38565463  0.15729325  1  -1.112595  0  -0.288842  -0.478405  0  2.05503  0
O  O103  1  0.48022693  0.56353945  0.60518232  1  -1.153679  0  -0.29941  -0.528171  0  2.348715  0
O  O104  1  0.57918422  0.34415987  0.11123192  1  -1.096808  0  -0.333243  -0.480729  0  2.21744  0
O  O105  1  0.22427539  0.60664426  0.15647192  1  -1.107135  0  -0.286508  -0.475656  0  2.054042  0
O  O106  1  0.39646494  0.64372970  0.10178623  1  -1.101892  0  -0.332524  -0.479171  0  2.219682  0
O  O107  1  0.27312926  0.34498202  0.84400247  1  -1.117573  0  -0.291413  -0.482593  0  2.054732  0
O  O108  1  0.46899178  0.33653815  0.88814450  1  -1.10075  0  -0.331399  -0.476325  0  2.215358  0
O  O109  1  0.22396288  0.11391459  0.51504192  1  -1.097561  0  -0.276557  -0.459259  0  2.052677  0
O  O110  1  0.22934393  0.07824983  0.40411234  1  -1.118535  0  -0.328856  -0.482838  0  2.206289  0
O  O111  1  0.69319369  0.87804170  0.60543053  1  -1.104407  0  -0.271172  -0.453789  0  2.053837  0
O  O112  1  0.82087981  0.92537251  0.52608443  1  -1.095029  0  -0.333391  -0.48852  0  2.212438  0
O  O113  1  0.78024473  0.10873606  0.48216515  1  -1.098801  0  -0.277688  -0.45986  0  2.048168  0
O  O114  1  0.50089429  0.43930085  0.60864642  1  -1.15737  0  -0.303155  -0.537766  0  2.321379  0
O  O115  1  0.77054134  0.07274784  0.59305233  1  -1.125467  0  -0.327512  -0.482895  0  2.206724  0
O  O116  1  0.29629012  0.87631124  0.39904118  1  -1.104539  0  -0.274299  -0.458633  0  2.055746  0
O  O117  1  0.17696456  0.93556355  0.47619889  1  -1.109633  0  -0.33167  -0.484988  0  2.219147  0
O  O118  1  0.51983075  0.56745609  0.39507766  1  -1.151901  0  -0.306612  -0.53264  0  2.31826  0
O  O119  1  0.31660631  0.44051710  0.49911043  1  -1.152315  0  -0.31613  -0.53601  0  2.341244  0
O  O120  1  0.69046741  0.55035391  0.50526914  1  -1.155249  0  -0.314348  -0.540877  0  2.339774  0
O  O121  1  0.68662789  0.42554806  0.50391151  1  -1.147319  0  -0.313297  -0.531787  0  2.352496  0
O  O122  1  0.32108606  0.56505472  0.49023334  1  -1.149256  0  -0.307827  -0.527553  0  2.363739  0
O  O123  1  0.67003558  0.63047846  0.69526095  1  -1.110577  0  -0.273194  -0.453861  0  2.129224  0
