# generated using pymatgen
data_NiH21C21(NO2)2
_symmetry_space_group_name_H-M   'P 1'
_cell_length_a   7.47217760
_cell_length_b   11.36076219
_cell_length_c   12.20579110
_cell_angle_alpha   96.52697345
_cell_angle_beta   106.76663458
_cell_angle_gamma   104.50709101
_symmetry_Int_Tables_number   1
_chemical_formula_structural   NiH21C21(NO2)2
_chemical_formula_sum   'Ni2 H42 C42 N4 O8'
_cell_volume   940.94471920
_cell_formula_units_Z   2
loop_
 _symmetry_equiv_pos_site_id
 _symmetry_equiv_pos_as_xyz
  1  'x, y, z'
loop_
 _atom_site_type_symbol
 _atom_site_label
 _atom_site_symmetry_multiplicity
 _atom_site_fract_x
 _atom_site_fract_y
 _atom_site_fract_z
 _atom_site_occupancy
 _atom_site_hle17_ddec_charge
 _atom_site_hle17_ddec_spin_density
 _atom_site_hle17_ddec_sum_bond_order
 _atom_site_hle17_magmom
 _atom_site_hse06_10hf_ddec_charge
 _atom_site_hse06_10hf_ddec_spin_density
 _atom_site_hse06_10hf_ddec_sum_bond_order
 _atom_site_hse06_10hf_magmom
 _atom_site_hse06_ddec_charge
 _atom_site_hse06_ddec_spin_density
 _atom_site_hse06_ddec_sum_bond_order
 _atom_site_hse06_magmom
 _atom_site_pbe_cm5_charge
 _atom_site_pbe_ddec_charge
 _atom_site_pbe_ddec_spin_density
 _atom_site_pbe_ddec_sum_bond_order
 _atom_site_pbe_magmom
Ni  Ni0  1  0.34904102  0.93067030  0.00979711  1  0.822985  -1.755419  2.086882  -1.5  0.821732  -1.819807  2.498216  -1.622  0.922979  -1.872431  2.401965  -1.708  0.618624  0.748853  -1.77554  2.569894  -1.555
Ni  Ni1  1  0.65096453  0.06933195  0.99020550  1  0.822813  -1.755326  2.086852  -1.5  0.821668  -1.819795  2.498133  -1.622  0.922905  -1.872426  2.40192  -1.708  0.618622  0.748841  -1.775489  2.569771  -1.555
H  H2  1  0.91198898  0.85317040  0.01169466  1  0.116602  8.2e-05  0.949541  -0.001  0.122154  1.8e-05  1.01542  -0.001  0.124411  6.8e-05  1.012858  -0.001  0.14131  0.120095  -2.2e-05  1.017882  -0.001
H  H3  1  0.08801412  0.14683555  0.98830217  1  0.116698  8e-05  0.949413  -0.001  0.122229  1.8e-05  1.015302  -0.001  0.124485  6.7e-05  1.012743  -0.001  0.141321  0.120172  -2.2e-05  1.017763  -0.001
H  H4  1  0.37415909  0.70395673  0.14436981  1  0.107899  -0.000281  0.960092  -0.001  0.116566  -0.00038  1.021997  -0.001  0.118472  -0.000241  1.02069  -0.001  0.119864  0.115062  -0.000501  1.023213  -0.001
H  H5  1  0.62584223  0.29604550  0.85563613  1  0.107897  -0.000282  0.960194  -0.001  0.116559  -0.00038  1.022091  -0.001  0.118466  -0.000241  1.020783  -0.001  0.119862  0.115059  -0.0005  1.023307  -0.001
H  H6  1  0.03483076  0.55631857  0.17062875  1  0.113421  -0.00054  0.951956  -0.001  0.126428  -0.000432  1.007725  -0.001  0.128336  -0.000316  1.007358  0.0  0.12304  0.124918  -0.000521  1.008228  -0.001
H  H7  1  0.96515854  0.44368175  0.82936993  1  0.113505  -0.00054  0.952066  -0.001  0.126506  -0.000432  1.007832  -0.001  0.128407  -0.000316  1.007463  0.0  0.123077  0.124998  -0.000521  1.008332  -0.001
H  H8  1  0.63945278  0.71541671  0.05394568  1  0.087492  0.000229  0.935787  0.0  0.101981  0.000162  0.99816  0.0  0.102337  0.000156  0.998569  0.0  0.114466  0.101554  0.000164  0.99808  0.0
H  H9  1  0.36053971  0.28458733  0.94604249  1  0.087406  0.000234  0.935807  0.0  0.101868  0.000162  0.998184  0.0  0.102235  0.000155  0.998597  0.0  0.114416  0.101445  0.000164  0.998105  0.0
H  H10  1  0.70904138  0.64538541  0.17503109  1  0.067066  -2.5e-05  0.93945  0.0  0.082084  -3e-05  1.005557  0.0  0.081827  -7e-06  1.006714  0.0  0.104123  0.082127  -5.7e-05  1.004899  0.0
H  H11  1  0.29094930  0.35462696  0.82496335  1  0.067044  -2.4e-05  0.939337  0.0  0.082087  -3e-05  1.005413  0.0  0.08184  -7e-06  1.006578  0.0  0.104101  0.08213  -5.7e-05  1.004763  0.0
H  H12  1  0.67607254  0.45070992  0.04282418  1  0.071822  4.5e-05  0.94785  0.0  0.087503  1.6e-05  1.014583  0.0  0.088489  2.7e-05  1.014475  0.0  0.091245  0.086722  1e-06  1.014727  0.0
H  H13  1  0.32392260  0.54929414  0.95718331  1  0.071836  3.9e-05  0.947922  0.0  0.087552  1.6e-05  1.014648  0.0  0.088536  2.7e-05  1.014535  0.0  0.09129  0.086772  1e-06  1.01479  0.0
H  H14  1  0.62767348  0.52301376  0.92107639  1  0.068329  2.4e-05  0.956177  0.0  0.085077  1.1e-05  1.02128  0.0  0.084546  6e-06  1.024687  0.0  0.089792  0.085386  1.6e-05  1.018983  0.0
H  H15  1  0.37231927  0.47698195  0.07892488  1  0.068314  1.8e-05  0.956276  0.0  0.085089  1.1e-05  1.021355  0.0  0.084554  6e-06  1.024761  0.0  0.089802  0.085397  1.5e-05  1.019057  0.0
H  H16  1  0.84757409  0.79986066  0.80073764  1  0.113869  -0.000124  0.974771  0.0  0.119802  -7e-05  1.042734  0.0  0.124204  0.0  1.038807  0.0  0.105949  0.116425  -0.000157  1.045745  0.0
H  H17  1  0.15244142  0.20013886  0.19926238  1  0.113974  -0.000122  0.974743  0.0  0.119808  -7e-05  1.042811  0.0  0.124209  0.0  1.038887  0.0  0.105992  0.116473  -0.000157  1.045779  0.0
H  H18  1  0.88296987  0.61625864  0.68911874  1  0.090455  -6.6e-05  0.948377  0.0  0.103321  -5.8e-05  1.005249  0.0  0.106557  -3.4e-05  1.003623  0.0  0.098337  0.100943  -8.6e-05  1.006604  0.0
H  H19  1  0.11703553  0.38373713  0.31087907  1  0.09043  -6.7e-05  0.94833  0.0  0.103278  -5.8e-05  1.005227  0.0  0.106528  -3.4e-05  1.003585  0.0  0.0983  0.100889  -8.6e-05  1.006595  0.0
H  H20  1  0.28562683  0.41406032  0.63951727  1  0.087058  -7.9e-05  0.969381  0.0  0.097722  -6.2e-05  1.031706  0.0  0.10056  -4.1e-05  1.031216  0.0  0.095353  0.095745  -8.5e-05  1.032111  0.0
H  H21  1  0.71437430  0.58594747  0.36048185  1  0.087073  -8.1e-05  0.969364  0.0  0.097712  -6.2e-05  1.031704  0.0  0.10055  -4.1e-05  1.031214  0.0  0.095338  0.095736  -8.5e-05  1.032106  0.0
H  H22  1  0.25320870  0.59806349  0.75624261  1  0.089857  -0.000156  0.954734  0.0  0.101028  -0.000115  1.015558  0.0  0.104926  -6.4e-05  1.011781  0.0  0.100856  0.098157  -0.000174  1.018373  0.0
H  H23  1  0.74680028  0.40194619  0.24375894  1  0.089834  -0.000155  0.954754  0.0  0.101009  -0.000115  1.015573  0.0  0.104906  -6.4e-05  1.011795  0.0  0.100856  0.098146  -0.000174  1.018379  0.0
H  H24  1  0.74421154  0.41278295  0.56762781  1  0.104469  4e-06  0.947155  0.0  0.126746  -4e-06  1.005905  0.0  0.128082  -2e-06  1.00594  0.0  0.089418  0.125748  -3e-06  1.005917  0.0
H  H25  1  0.25578210  0.58721462  0.43236890  1  0.104442  -1e-06  0.947155  0.0  0.126714  -3e-06  1.005915  0.0  0.12805  -2e-06  1.005951  0.0  0.089409  0.125716  -3e-06  1.005928  0.0
H  H26  1  0.48628774  0.34542637  0.51324863  1  0.108035  8.9e-05  0.9637  0.0  0.128857  4.4e-05  1.026171  0.0  0.12947  3.5e-05  1.027726  0.0  0.090449  0.128319  5.7e-05  1.025222  0.0
H  H27  1  0.51370675  0.65457305  0.48674925  1  0.108064  8.3e-05  0.963692  0.0  0.128842  4.3e-05  1.026216  0.0  0.129454  3.4e-05  1.027773  0.0  0.090468  0.128304  5.7e-05  1.025264  0.0
H  H28  1  0.62609883  0.31800840  0.64699515  1  0.102335  0.000159  0.96763  0.0  0.121664  7.8e-05  1.036805  0.0  0.122511  5.6e-05  1.037863  0.0  0.088524  0.121084  0.000108  1.036044  0.0
H  H29  1  0.37389833  0.68199381  0.35300431  1  0.102302  0.000148  0.967671  0.0  0.121664  7.8e-05  1.036808  0.0  0.12251  5.5e-05  1.037866  0.0  0.088525  0.121085  0.000108  1.036045  0.0
H  H30  1  0.65878394  0.85183532  0.33718404  1  0.092049  -7e-05  0.954023  0.0  0.103954  -7.4e-05  1.014707  0.0  0.10744  -4e-05  1.011754  0.0  0.100836  0.101419  -9.8e-05  1.016911  0.0
H  H31  1  0.34121318  0.14816690  0.66282115  1  0.092034  -6.9e-05  0.954052  0.0  0.103939  -7.4e-05  1.014729  0.0  0.107423  -4e-05  1.011787  0.0  0.100829  0.101406  -9.8e-05  1.016935  0.0
H  H32  1  0.86546901  0.79044187  0.50757525  1  0.087174  -8e-05  0.952231  0.0  0.100441  -6.3e-05  1.010565  0.0  0.102959  -4e-05  1.01055  0.0  0.096612  0.098666  -8.9e-05  1.010688  0.0
H  H33  1  0.13452740  0.20955572  0.49242687  1  0.087086  -8.2e-05  0.952202  0.0  0.100388  -6.3e-05  1.010511  0.0  0.102905  -4e-05  1.010496  0.0  0.096582  0.098623  -9e-05  1.01061  0.0
H  H34  1  0.37235929  0.93904832  0.40907295  1  0.089058  -6.3e-05  0.956856  0.0  0.102278  -5.5e-05  1.015324  0.0  0.104948  -3.5e-05  1.014774  0.0  0.098026  0.100376  -7.8e-05  1.015834  0.0
H  H35  1  0.62763271  0.06093349  0.59092264  1  0.089034  -6.2e-05  0.956859  0.0  0.102314  -5.5e-05  1.015259  0.0  0.104986  -3.5e-05  1.014703  0.0  0.098043  0.100401  -7.8e-05  1.015783  0.0
H  H36  1  0.16871411  0.00656208  0.24378988  1  0.110552  -0.000147  0.968478  0.0  0.118131  -0.000113  1.034314  0.0  0.121851  -3.5e-05  1.03124  0.0  0.10533  0.115333  -0.000204  1.036617  0.0
H  H37  1  0.83128214  0.99342902  0.75620908  1  0.110642  -0.000149  0.968488  0.0  0.118207  -0.000113  1.034343  0.0  0.121933  -3.6e-05  1.031254  0.0  0.10538  0.115406  -0.000204  1.036648  0.0
H  H38  1  0.40073940  0.82365832  0.56508960  1  0.107523  -3e-06  0.952375  0.0  0.130128  -3e-06  1.012388  0.0  0.131316  -0.0  1.012905  0.0  0.091052  0.129268  -5e-06  1.012034  0.0
H  H39  1  0.59925437  0.17633647  0.43490603  1  0.107574  -7e-06  0.952323  0.0  0.130141  -3e-06  1.012379  0.0  0.13133  -0.0  1.012893  0.0  0.091047  0.129277  -5e-06  1.012029  0.0
H  H40  1  0.18642308  0.73170209  0.58503360  1  0.101135  8.8e-05  0.953839  0.0  0.12191  5e-05  1.017107  0.0  0.1232  4.1e-05  1.016866  0.0  0.087126  0.120984  6.1e-05  1.017283  0.0
H  H41  1  0.81358073  0.26828719  0.41496489  1  0.101163  8.4e-05  0.953774  0.0  0.121953  5e-05  1.01702  0.0  0.123246  4.1e-05  1.016774  0.0  0.087124  0.121026  6e-05  1.017199  0.0
H  H42  1  0.28767605  0.88959611  0.65448054  1  0.122269  0.000285  0.949641  0.0  0.14457  0.000224  1.007352  0.0  0.145373  0.000198  1.007957  0.0  0.094683  0.143904  0.000247  1.00704  0.0
H  H43  1  0.71232202  0.11039592  0.34551885  1  0.122261  0.000278  0.94954  0.0  0.144548  0.000223  1.007283  0.0  0.145348  0.000198  1.007895  0.0  0.09466  0.143883  0.000247  1.006968  0.0
C  C44  1  0.99300496  0.79273386  0.05042848  1  0.163265  0.013826  3.608242  0.008  0.106426  0.004713  3.881767  0.002  0.121402  0.005705  3.897795  0.003  0.150641  0.096111  0.003492  3.871431  0.001
C  C45  1  0.00699685  0.20726930  0.94956946  1  0.163189  0.013852  3.608184  0.008  0.106365  0.004712  3.881728  0.002  0.121339  0.005705  3.897757  0.003  0.150668  0.096056  0.003491  3.871392  0.001
C  C46  1  0.22722834  0.71178998  0.12047908  1  0.003239  0.004627  3.735328  0.002  -0.027329  0.001445  4.008295  0.0  -0.022073  0.002102  4.02811  0.001  0.002072  -0.031228  0.000965  3.995401  0.0
C  C47  1  0.77276026  0.28821497  0.87952405  1  0.003244  0.004651  3.734967  0.002  -0.027315  0.001446  4.007919  0.0  -0.022052  0.002105  4.027714  0.001  0.002152  -0.031212  0.000967  3.995027  0.0
C  C48  1  0.06148332  0.63954615  0.13491770  1  -0.075831  -0.004566  3.686368  -0.006  -0.114966  -0.00203  3.940458  -0.003  -0.114067  -0.001673  3.959719  -0.002  -0.001284  -0.115519  -0.002345  3.927822  -0.003
C  C49  1  0.93852386  0.36046259  0.86508097  1  -0.076038  -0.00458  3.686294  -0.006  -0.11518  -0.002031  3.940393  -0.003  -0.114269  -0.001675  3.959643  -0.002  -0.001373  -0.115729  -0.002347  3.927751  -0.003
C  C50  1  0.71201206  0.64718188  0.08569635  1  0.001324  -0.001018  3.629703  -0.001  -0.059331  -0.000677  3.886693  -0.001  -0.054906  -0.000475  3.898641  -0.001  -0.053444  -0.062181  -0.000848  3.878659  -0.001
C  C51  1  0.28798221  0.35282310  0.91429879  1  0.001481  -0.001033  3.629504  -0.001  -0.059094  -0.000677  3.886362  -0.001  -0.054728  -0.000475  3.898377  -0.001  -0.053345  -0.061953  -0.000848  3.878343  -0.001
C  C52  1  0.60838533  0.51968620  0.00683014  1  -0.133524  -0.000217  3.702144  0.0  -0.174363  -0.000149  3.961435  0.0  -0.176331  -8e-05  3.976216  0.0  -0.167871  -0.172837  -0.000213  3.951211  0.0
C  C53  1  0.39160706  0.48031785  0.99317193  1  -0.13364  -0.000192  3.70233  0.0  -0.174597  -0.000149  3.961642  0.0  -0.176534  -8e-05  3.976421  0.0  -0.167929  -0.173068  -0.000213  3.951417  0.0
C  C54  1  0.52896315  0.81666192  0.86225087  1  0.620529  0.009713  3.896254  0.009  0.579341  0.000923  4.198892  0.001  0.618074  0.000902  4.194993  0.001  0.207531  0.552013  0.001162  4.200577  0.001
C  C55  1  0.47105350  0.18334316  0.13775238  1  0.620692  0.009711  3.89622  0.009  0.57948  0.000924  4.198926  0.001  0.618212  0.000901  4.19502  0.001  0.20764  0.552154  0.001162  4.200605  0.001
C  C56  1  0.54783632  0.70987015  0.78715524  1  -0.074227  -0.009743  3.761531  -0.012  -0.050375  -0.005154  3.99076  -0.007  -0.060396  -0.00371  4.013432  -0.005  -0.021737  -0.043843  -0.006524  3.975699  -0.008
C  C57  1  0.45217095  0.29013582  0.21284643  1  -0.074154  -0.00971  3.761358  -0.012  -0.050325  -0.005154  3.990633  -0.007  -0.060349  -0.00371  4.013297  -0.005  -0.021696  -0.043796  -0.006525  3.975586  -0.008
C  C58  1  0.72447093  0.71519574  0.76636526  1  -0.064236  0.002958  3.725738  0.002  -0.089516  0.000563  3.9763  0.0  -0.086591  0.000691  3.993539  0.0  -0.083565  -0.091244  0.000464  3.964812  0.0
C  C59  1  0.27553842  0.28480561  0.23363548  1  -0.064411  0.002891  3.725931  0.002  -0.089611  0.000563  3.976532  0.0  -0.086678  0.000691  3.993767  0.0  -0.083625  -0.091373  0.000464  3.96502  0.0
C  C60  1  0.74371354  0.61122611  0.70350614  1  -0.148392  -0.001339  3.74324  -0.002  -0.164268  -0.000364  3.988873  -0.001  -0.169674  -0.000329  4.009384  -0.001  -0.097549  -0.160649  -0.000416  3.974979  -0.001
C  C61  1  0.25629442  0.38877523  0.29649271  1  -0.148232  -0.001306  3.743227  -0.002  -0.164086  -0.000364  3.988814  -0.001  -0.169505  -0.000329  4.00932  -0.001  -0.097473  -0.16046  -0.000416  3.974939  -0.001
C  C62  1  0.58842379  0.50076681  0.65823826  1  0.154617  0.00378  3.7515  0.002  0.17986  0.001391  3.985587  0.001  0.183375  0.001223  4.009097  0.001  -0.005101  0.177578  0.001653  3.969462  0.001
C  C63  1  0.41157856  0.49923451  0.34176041  1  0.154478  0.003716  3.751517  0.002  0.179719  0.001391  3.985598  0.001  0.183234  0.001223  4.009113  0.001  -0.005189  0.17744  0.001653  3.969466  0.001
C  C64  1  0.40983585  0.49813730  0.67611409  1  -0.14738  -0.001309  3.741899  -0.002  -0.161386  -0.000366  3.9844  -0.001  -0.166848  -0.000336  4.005382  -0.001  -0.098096  -0.157738  -0.000415  3.970129  -0.001
C  C65  1  0.59016778  0.50186680  0.32388591  1  -0.147407  -0.001273  3.742009  -0.002  -0.16138  -0.000366  3.984498  -0.001  -0.166841  -0.000336  4.005475  -0.001  -0.098044  -0.157731  -0.000415  3.970222  -0.001
C  C66  1  0.39035278  0.60069391  0.74037282  1  -0.066245  0.002629  3.768985  0.001  -0.089187  0.000421  4.016067  0.0  -0.086281  0.000549  4.033959  0.0  -0.08536  -0.090899  0.000343  4.003946  0.0
C  C67  1  0.60965718  0.39931485  0.25962880  1  -0.066181  0.002564  3.768969  0.001  -0.089113  0.00042  4.01606  0.0  -0.086202  0.000547  4.033948  0.0  -0.085371  -0.09083  0.000343  4.003936  0.0
C  C68  1  0.61222810  0.38863572  0.59297720  1  -0.343641  -2.2e-05  3.740288  0.0  -0.425966  4e-05  3.976395  0.0  -0.429028  2.8e-05  3.987154  0.0  -0.241908  -0.423557  5.7e-05  3.968839  0.0
C  C69  1  0.38776963  0.61136464  0.40702053  1  -0.343585  -5e-06  3.740303  0.0  -0.425916  4.1e-05  3.976452  0.0  -0.428978  2.8e-05  3.987213  0.0  -0.241919  -0.423509  5.7e-05  3.968893  0.0
C  C70  1  0.77401843  0.96836808  0.17772499  1  0.616917  0.009253  3.894899  0.009  0.574994  0.001063  4.198867  0.001  0.614251  0.001173  4.194354  0.001  0.205165  0.547353  0.001006  4.200715  0.002
C  C71  1  0.22598205  0.03163230  0.82227897  1  0.616904  0.009248  3.895074  0.009  0.575025  0.001063  4.199032  0.001  0.61428  0.001175  4.194525  0.001  0.205179  0.547383  0.001005  4.200878  0.002
C  C72  1  0.90010296  0.93384628  0.28033746  1  -0.086214  -0.008948  3.780923  -0.012  -0.064316  -0.004946  4.015156  -0.006  -0.074519  -0.003545  4.037285  -0.005  -0.026703  -0.057642  -0.00633  4.000465  -0.008
C  C73  1  0.09989175  0.06614758  0.71966397  1  -0.086141  -0.008942  3.780825  -0.011  -0.06435  -0.004946  4.015192  -0.006  -0.07455  -0.003545  4.037325  -0.005  -0.026686  -0.057674  -0.00633  4.0005  -0.008
C  C74  1  0.81586175  0.87111293  0.35432570  1  -0.065321  0.002112  3.765452  0.001  -0.090366  0.000272  4.016857  0.0  -0.087687  0.000437  4.035626  0.0  -0.087136  -0.091817  0.000182  4.004019  0.0
C  C75  1  0.18413465  0.12888465  0.64567806  1  -0.065281  0.002089  3.765448  0.001  -0.090286  0.000272  4.016869  0.0  -0.08761  0.000437  4.035643  0.0  -0.087091  -0.091737  0.000182  4.004031  0.0
C  C76  1  0.93162618  0.83589750  0.44852663  1  -0.143653  -0.001166  3.755505  -0.002  -0.161  -0.000335  4.002068  -0.001  -0.167084  -0.000299  4.025142  0.0  -0.097472  -0.156996  -0.000394  3.986386  -0.001
C  C77  1  0.06836852  0.16409636  0.55147480  1  -0.143604  -0.00115  3.755498  -0.002  -0.160932  -0.000335  4.002063  -0.001  -0.167014  -0.000299  4.02514  0.0  -0.097439  -0.156924  -0.000395  3.986383  -0.001
C  C78  1  0.13377549  0.85997727  0.47023572  1  0.15343  0.003074  3.759254  0.002  0.179118  0.001168  3.992866  0.001  0.182112  0.001077  4.017334  0.001  -0.005712  0.177201  0.001311  3.976101  0.001
C  C79  1  0.86621765  0.14001011  0.52976229  1  0.153545  0.003051  3.759206  0.002  0.179091  0.001167  3.992998  0.001  0.182082  0.001077  4.017478  0.001  -0.005686  0.177178  0.001311  3.976227  0.001
C  C80  1  0.21598382  0.92121546  0.39471262  1  -0.141731  -0.001078  3.733114  -0.001  -0.159687  -0.000283  3.980284  0.0  -0.165577  -0.000268  4.002135  0.0  -0.09725  -0.155736  -0.000324  3.965349  -0.001
C  C81  1  0.78400750  0.07877098  0.60528415  1  -0.14168  -0.001078  3.733055  -0.001  -0.159617  -0.000283  3.980214  0.0  -0.165509  -0.000269  4.002078  0.0  -0.097236  -0.155657  -0.000324  3.965279  -0.001
C  C82  1  0.10222822  0.95960198  0.30180102  1  -0.057  0.002339  3.726807  0.001  -0.083477  0.000304  3.978002  0.0  -0.080033  0.000482  3.995856  0.0  -0.084504  -0.085514  0.00015  3.965963  0.0
C  C83  1  0.89776814  0.04038634  0.69819768  1  -0.057179  0.002346  3.726955  0.001  -0.083637  0.000304  3.978195  0.0  -0.080197  0.000482  3.99606  0.0  -0.084597  -0.085666  0.00015  3.966155  0.0
C  C84  1  0.25858601  0.82403466  0.57332596  1  -0.339666  6.9e-05  3.721314  0.0  -0.420806  0.000131  3.956362  0.0  -0.423143  0.00011  3.966079  0.0  -0.241845  -0.41892  0.000149  3.949569  0.0
C  C85  1  0.74141025  0.17595644  0.42667136  1  -0.339788  8.7e-05  3.721103  0.0  -0.42087  0.000131  3.956204  0.0  -0.423206  0.00011  3.965914  0.0  -0.241862  -0.418987  0.000149  3.949412  0.0
N  N86  1  0.18164268  0.80603814  0.06743156  1  -0.293296  -0.074642  3.293925  -0.114  -0.25987  -0.048032  3.603887  -0.076  -0.296027  -0.036637  3.626231  -0.062  -0.355058  -0.235719  -0.055384  3.589066  -0.083
N  N87  1  0.81836126  0.19396966  0.93256806  1  -0.293204  -0.074659  3.293696  -0.114  -0.259793  -0.048037  3.603661  -0.076  -0.295951  -0.03664  3.626016  -0.062  -0.355072  -0.235651  -0.055386  3.588846  -0.083
N  N88  1  0.91517755  0.69234282  0.09053482  1  -0.06299  -0.001372  3.590347  -0.003  0.031736  -0.001045  3.805709  -0.002  0.016444  -0.000591  3.832995  -0.002  -0.244381  0.041797  -0.001433  3.787422  -0.003
N  N89  1  0.08481962  0.30765939  0.90946301  1  -0.062964  -0.001377  3.590328  -0.003  0.031736  -0.001046  3.805674  -0.002  0.016458  -0.000592  3.832974  -0.002  -0.244426  0.0418  -0.001434  3.787387  -0.003
O  O90  1  0.38165361  0.79633535  0.89805188  1  -0.585347  -0.045124  2.091913  -0.076  -0.559891  -0.028764  2.362908  -0.05  -0.59924  -0.020782  2.354211  -0.038  -0.308722  -0.5309  -0.036055  2.368338  -0.06
O  O91  1  0.61836485  0.20367067  0.10195344  1  -0.585368  -0.045127  2.091831  -0.076  -0.55993  -0.028766  2.362895  -0.05  -0.599278  -0.020783  2.354201  -0.038  -0.308734  -0.530946  -0.036057  2.368324  -0.06
O  O92  1  0.66451444  0.91978621  0.88851014  1  -0.576567  -0.046341  2.1018  -0.078  -0.548228  -0.029324  2.376878  -0.05  -0.588232  -0.021105  2.368359  -0.038  -0.301053  -0.518824  -0.036909  2.382198  -0.061
O  O93  1  0.33550072  0.08022165  0.11148904  1  -0.576764  -0.046336  2.102079  -0.078  -0.548392  -0.029323  2.377132  -0.05  -0.588425  -0.021105  2.368676  -0.038  -0.30117  -0.518984  -0.03691  2.382455  -0.061
O  O94  1  0.58886830  0.91826427  0.14700806  1  -0.613646  -0.040673  2.095026  -0.068  -0.584504  -0.033303  2.370733  -0.056  -0.624275  -0.025633  2.362522  -0.046  -0.304797  -0.556143  -0.03917  2.37635  -0.064
O  O95  1  0.41112840  0.08173701  0.85299615  1  -0.613741  -0.040671  2.09517  -0.068  -0.584601  -0.033301  2.370854  -0.056  -0.624372  -0.025632  2.362647  -0.046  -0.304868  -0.556256  -0.039168  2.376493  -0.064
O  O96  1  0.85737117  0.04410736  0.12474141  1  -0.555779  -0.06077  2.070626  -0.099  -0.526627  -0.037002  2.339934  -0.062  -0.568337  -0.026312  2.332892  -0.047  -0.299876  -0.495182  -0.047226  2.342787  -0.076
O  O97  1  0.14263546  0.95589120  0.87526347  1  -0.555687  -0.060769  2.070715  -0.099  -0.52656  -0.037004  2.340041  -0.062  -0.56827  -0.026313  2.333003  -0.047  -0.299849  -0.495103  -0.047228  2.342883  -0.076
