# generated using pymatgen
data_Zn4H6C12O13
_symmetry_space_group_name_H-M   'P 1'
_cell_length_a   13.59002338
_cell_length_b   17.21663772
_cell_length_c   15.22337105
_cell_angle_alpha   119.81127655
_cell_angle_beta   119.53377750
_cell_angle_gamma   89.92201253
_symmetry_Int_Tables_number   1
_chemical_formula_structural   Zn4H6C12O13
_chemical_formula_sum   'Zn8 H12 C24 O26'
_cell_volume   2545.00285065
_cell_formula_units_Z   2
loop_
 _symmetry_equiv_pos_site_id
 _symmetry_equiv_pos_as_xyz
  1  'x, y, z'
loop_
 _atom_site_type_symbol
 _atom_site_label
 _atom_site_symmetry_multiplicity
 _atom_site_fract_x
 _atom_site_fract_y
 _atom_site_fract_z
 _atom_site_occupancy
 _atom_site_pbe_bader_charge
 _atom_site_pbe_bader_spin_density
 _atom_site_pbe_cm5_charge
 _atom_site_pbe_ddec_charge
 _atom_site_pbe_ddec_spin_density
 _atom_site_pbe_ddec_sum_bond_order
 _atom_site_pbe_magmom
Zn  Zn0  1  0.95188761  0.85975915  0.87625353  1  1.298094  0  0.673438  0.963569  0  2.368883  0
Zn  Zn1  1  0.95442353  0.04754769  0.87701745  1  1.319553  0  0.672963  0.965282  0  2.364035  0
Zn  Zn2  1  0.18547961  0.04292317  0.08371975  1  1.29861  0  0.669795  0.958062  0  2.383353  0
Zn  Zn3  1  0.95165682  0.04599099  0.08616350  1  1.307537  0  0.671316  0.961257  0  2.372339  0
Zn  Zn4  1  0.56735904  0.63698170  0.08048667  1  1.301541  0  0.673453  0.9641  0  2.367686  0
Zn  Zn5  1  0.56598738  0.45014675  0.08187820  1  1.321978  0  0.672953  0.965339  0  2.366044  0
Zn  Zn6  1  0.56590406  0.44989238  0.87038648  1  1.309553  0  0.671335  0.961813  0  2.372615  0
Zn  Zn7  1  0.33350300  0.45384380  0.87512401  1  1.302112  0  0.669668  0.958424  0  2.382439  0
H  H8  1  0.75035261  0.83514654  0.47031535  1  0.116137  0  0.119661  0.14117  0  0.971124  0
H  H9  1  0.77060378  0.66364106  0.48759598  1  0.137014  0  0.119967  0.142267  0  0.970496  0
H  H10  1  0.37306316  0.82852677  0.04366609  1  0.12222  0  0.120569  0.142765  0  0.970455  0
H  H11  1  0.14655385  0.66864005  0.91329058  1  0.094261  0  0.120477  0.142875  0  0.969954  0
H  H12  1  0.77585541  0.83289250  0.09418701  1  0.105732  0  0.120145  0.142586  0  0.971422  0
H  H13  1  0.74113614  0.66148892  0.85930534  1  0.138172  0  0.120106  0.142057  0  0.96911  0
H  H14  1  0.37138180  0.27035482  0.10254800  1  0.148815  0  0.12026  0.142157  0  0.970912  0
H  H15  1  0.15047006  0.22812275  0.86036125  1  0.122681  0  0.120335  0.142322  0  0.969495  0
H  H16  1  0.73365983  0.23656592  0.06016185  1  0.102466  0  0.120478  0.142538  0  0.972045  0
H  H17  1  0.78767602  0.26207221  0.89940983  1  0.117187  0  0.119625  0.141501  0  0.968603  0
H  H18  1  0.14694689  0.27616138  0.46838836  1  0.097402  0  0.120727  0.143151  0  0.970171  0
H  H19  1  0.36945044  0.21904449  0.48940599  1  0.125028  0  0.120467  0.142655  0  0.969172  0
C  C20  1  0.83834931  0.85414675  0.64909302  1  1.594803  0  0.227338  0.64438  0  4.160477  0
C  C21  1  0.77405947  0.79654740  0.51297276  1  -0.099311  0  -0.070084  -0.161879  0  3.858934  0
C  C22  1  0.74674855  0.70217170  0.44487279  1  -0.028759  0  -0.069971  -0.164083  0  3.859732  0
C  C23  1  0.68216675  0.64427720  0.30872674  1  1.588346  0  0.227019  0.644207  0  4.16054  0
C  C24  1  0.19780613  0.85035176  0.98314548  1  1.559677  0  0.225821  0.642516  0  4.164735  0
C  C25  1  0.27898569  0.79324352  0.99737717  1  0.054004  0  -0.070381  -0.163423  0  3.867048  0
C  C26  1  0.24064125  0.70385791  0.95955636  1  -0.083125  0  -0.070575  -0.163908  0  3.867129  0
C  C27  1  0.32179075  0.64672692  0.97405760  1  1.560566  0  0.226221  0.643008  0  4.168506  0
C  C28  1  0.84008510  0.85283532  0.99714679  1  1.555343  0  0.226781  0.644642  0  4.165075  0
C  C29  1  0.78104887  0.79455128  0.01490547  1  0.019981  0  -0.069892  -0.16449  0  3.865546  0
C  C30  1  0.73608085  0.69991228  0.93865734  1  -0.075783  0  -0.069791  -0.161546  0  3.861241  0
C  C31  1  0.67714539  0.64192235  0.95684646  1  1.568458  0  0.226382  0.643607  0  4.162493  0
C  C32  1  0.20068469  0.16301596  0.00249642  1  1.565263  0  0.225123  0.642625  0  4.163796  0
C  C33  1  0.27982303  0.23703200  0.02107115  1  -0.070207  0  -0.070311  -0.163629  0  3.865627  0
C  C34  1  0.24208208  0.26155615  0.94169649  1  -0.011466  0  -0.070499  -0.162783  0  3.86397  0
C  C35  1  0.32073200  0.33534465  0.95948972  1  1.564213  0  0.226073  0.644231  0  4.16652  0
C  C36  1  0.82966772  0.15279968  0.98748842  1  1.549632  0  0.22563  0.643096  0  4.167174  0
C  C37  1  0.76711512  0.22450516  0.00398147  1  -0.027084  0  -0.070823  -0.164362  0  3.866669  0
C  C38  1  0.75422616  0.27404288  0.95559908  1  0.010166  0  -0.070008  -0.161819  0  3.862354  0
C  C39  1  0.69102320  0.34534333  0.97164268  1  1.534414  0  0.225478  0.641979  0  4.163914  0
C  C40  1  0.32096108  0.34703568  0.64698141  1  1.567361  0  0.223273  0.640138  0  4.16986  0
C  C41  1  0.23971049  0.27770111  0.51180281  1  0.002007  0  -0.071058  -0.163938  0  3.868523  0
C  C42  1  0.27668915  0.21745173  0.44586689  1  -0.014307  0  -0.069867  -0.162049  0  3.867128  0
C  C43  1  0.19575130  0.14811888  0.31070591  1  1.55062  0  0.224639  0.640986  0  4.168173  0
O  O44  1  0.00965755  0.99853391  0.97939246  1  -1.192004  0  -0.57254  -1.034239  0  2.536085  0
O  O45  1  0.86133275  0.94347505  0.70130099  1  -1.148841  0  -0.31295  -0.542218  0  2.285452  0
O  O46  1  0.86481956  0.81074682  0.70141320  1  -1.164415  0  -0.313831  -0.547947  0  2.312068  0
O  O47  1  0.65985634  0.55505854  0.25714173  1  -1.170314  0  -0.313284  -0.542307  0  2.286898  0
O  O48  1  0.65464554  0.68720270  0.25577119  1  -1.169101  0  -0.313641  -0.547171  0  2.310276  0
O  O49  1  0.24979611  0.93811998  0.03938822  1  -1.155648  0  -0.314987  -0.541667  0  2.285416  0
O  O50  1  0.08566505  0.80882672  0.91874455  1  -1.168336  0  -0.313131  -0.548169  0  2.310669  0
O  O51  1  0.26983270  0.55916616  0.91886557  1  -1.152934  0  -0.314855  -0.542202  0  2.288213  0
O  O52  1  0.43387739  0.68810907  0.03778298  1  -1.174569  0  -0.313821  -0.548752  0  2.311589  0
O  O53  1  0.87525161  0.94222648  0.07582857  1  -1.148209  0  -0.313392  -0.542601  0  2.286486  0
O  O54  1  0.85070479  0.81034862  0.90722994  1  -1.168948  0  -0.315104  -0.548934  0  2.311371  0
O  O55  1  0.64062154  0.55250030  0.87768703  1  -1.16473  0  -0.312986  -0.541974  0  2.28386  0
O  O56  1  0.66799190  0.68475526  0.04773357  1  -1.171703  0  -0.315296  -0.550036  0  2.310512  0
O  O57  1  0.25197577  0.14151179  0.07991918  1  -1.148493  0  -0.313452  -0.541846  0  2.287182  0
O  O58  1  0.09089507  0.12731109  0.91285510  1  -1.181713  0  -0.314074  -0.549209  0  2.309147  0
O  O59  1  0.26863172  0.35675793  0.88204343  1  -1.158246  0  -0.314125  -0.542765  0  2.290205  0
O  O60  1  0.43084001  0.37088958  0.04838851  1  -1.175276  0  -0.314517  -0.550024  0  2.309882  0
O  O61  1  0.84465374  0.11817869  0.04882248  1  -1.162554  0  -0.314595  -0.542306  0  2.285759  0
O  O62  1  0.86322571  0.13234726  0.91584903  1  -1.162143  0  -0.313115  -0.548728  0  2.314658  0
O  O63  1  0.67491472  0.37939444  0.90946611  1  -1.152613  0  -0.314596  -0.543047  0  2.285967  0
O  O64  1  0.65782112  0.36586171  0.04358335  1  -1.154752  0  -0.313048  -0.547592  0  2.311155  0
O  O65  1  0.43208702  0.35635742  0.69860151  1  -1.177113  0  -0.314035  -0.548214  0  2.311173  0
O  O66  1  0.27078383  0.39114535  0.70038969  1  -1.161406  0  -0.315411  -0.543947  0  2.28358  0
O  O67  1  0.08460594  0.13867702  0.25869951  1  -1.174323  0  -0.314735  -0.548136  0  2.312344  0
O  O68  1  0.24628557  0.10411858  0.25769272  1  -1.163332  0  -0.316418  -0.544673  0  2.281222  0
O  O69  1  0.50933467  0.49819624  0.97840025  1  -1.199192  0  -0.572313  -1.034689  0  2.536781  0
