# generated using pymatgen
data_ZnH8C6N2O5
_symmetry_space_group_name_H-M   'P 1'
_cell_length_a   4.76566640
_cell_length_b   9.45435063
_cell_length_c   9.05943890
_cell_angle_alpha   90.00091394
_cell_angle_beta   92.91941970
_cell_angle_gamma   89.99898461
_symmetry_Int_Tables_number   1
_chemical_formula_structural   ZnH8C6N2O5
_chemical_formula_sum   'Zn2 H16 C12 N4 O10'
_cell_volume   407.65486448
_cell_formula_units_Z   2
loop_
 _symmetry_equiv_pos_site_id
 _symmetry_equiv_pos_as_xyz
  1  'x, y, z'
loop_
 _atom_site_type_symbol
 _atom_site_label
 _atom_site_symmetry_multiplicity
 _atom_site_fract_x
 _atom_site_fract_y
 _atom_site_fract_z
 _atom_site_occupancy
 _atom_site_hle17_bader_spin_density
 _atom_site_hle17_ddec_charge
 _atom_site_hle17_ddec_spin_density
 _atom_site_hle17_ddec_sum_bond_order
 _atom_site_hle17_magmom
 _atom_site_hse06_10hf_bader_spin_density
 _atom_site_hse06_10hf_ddec_charge
 _atom_site_hse06_10hf_ddec_spin_density
 _atom_site_hse06_10hf_ddec_sum_bond_order
 _atom_site_hse06_10hf_magmom
 _atom_site_hse06_bader_spin_density
 _atom_site_hse06_ddec_charge
 _atom_site_hse06_ddec_spin_density
 _atom_site_hse06_ddec_sum_bond_order
 _atom_site_hse06_magmom
 _atom_site_pbe_bader_spin_density
 _atom_site_pbe_cm5_charge
 _atom_site_pbe_ddec_charge
 _atom_site_pbe_ddec_spin_density
 _atom_site_pbe_ddec_sum_bond_order
 _atom_site_pbe_magmom
Zn  Zn0  1  0.81787849  0.99055250  0.76451148  1  0  1.106986  0  1.731625  0  0  0.934897  0  2.191699  0  0  0.983965  0  2.132957  0  0  0.689006  0.900246  0  2.232074  0
Zn  Zn1  1  0.18212406  0.49055503  0.23549014  1  0  1.106941  0  1.73161  0  0  0.934825  0  2.191721  0  0  0.983902  0  2.132978  0  0  0.68901  0.900182  0  2.232097  0
H  H2  1  0.70113223  0.08981012  0.49755059  1  0  0.308049  0  0.942317  0  0  0.292058  0  1.004917  0  0  0.300484  0  0.998171  0  0  0.282541  0.286065  0  1.009595  0
H  H3  1  0.29887322  0.58981244  0.50244868  1  0  0.307932  0  0.94225  0  0  0.291926  0  1.004909  0  0  0.300352  0  0.998166  0  0  0.282444  0.285933  0  1.009585  0
H  H4  1  0.42002414  0.00830651  0.56006133  1  0  0.301609  0  0.882339  0  0  0.295952  0  0.932304  0  0  0.301454  0  0.92896  0  0  0.305129  0.292153  0  0.934428  0
H  H5  1  0.57998416  0.50830750  0.43993445  1  0  0.301628  0  0.882284  0  0  0.295926  0  0.93231  0  0  0.301431  0  0.928962  0  0  0.305131  0.292126  0  0.934434  0
H  H6  1  0.25615284  0.19682348  0.68123744  1  0  0.111087  0  0.949693  0  0  0.123867  0  1.011672  0  0  0.126663  0  1.00997  0  0  0.117533  0.121953  0  1.012935  0
H  H7  1  0.74385127  0.69682118  0.31875921  1  0  0.111078  0  0.949693  0  0  0.12389  0  1.011631  0  0  0.126686  0  1.009932  0  0  0.117532  0.121973  0  1.012893  0
H  H8  1  0.41112188  0.28136687  0.53255059  1  0  0.100945  0  0.944581  0  0  0.116146  0  1.001684  0  0  0.118336  0  1.000929  0  0  0.111201  0.114481  0  1.002697  0
H  H9  1  0.58888562  0.78136820  0.46744874  1  0  0.10092  0  0.944615  0  0  0.116121  0  1.00171  0  0  0.118326  0  1.00094  0  0  0.111188  0.114454  0  1.002721  0
H  H10  1  0.40338644  0.46637007  0.73903503  1  0  0.31045  0  0.90589  0  0  0.29039  0  0.972037  0  0  0.298316  0  0.966486  0  0  0.31019  0.284837  0  0.975911  0
H  H11  1  0.59661698  0.96637242  0.26096510  1  0  0.310427  0  0.905887  0  0  0.290375  0  0.972036  0  0  0.298301  0  0.966486  0  0  0.310165  0.284822  0  0.97591  0
H  H12  1  0.96469174  0.44700207  0.90073795  1  0  0.096176  0  0.953751  0  0  0.097975  0  1.025659  0  0  0.101744  0  1.022237  0  0  0.121777  0.095153  0  1.028394  0
H  H13  1  0.03529978  0.94700165  0.09926028  1  0  0.096214  0  0.95368  0  0  0.097991  0  1.025622  0  0  0.101765  0  1.022202  0  0  0.121797  0.095168  0  1.028358  0
H  H14  1  0.57592507  0.70159831  0.84269312  1  0  0.114029  0  0.932748  0  0  0.126739  0  0.993785  0  0  0.129164  0  0.992794  0  0  0.102084  0.124862  0  0.994763  0
H  H15  1  0.42406828  0.20160068  0.15730540  1  0  0.113956  0  0.932655  0  0  0.126696  0  0.993709  0  0  0.129119  0  0.992715  0  0  0.102077  0.124819  0  0.994683  0
H  H16  1  0.89489763  0.70486922  0.95045632  1  0  0.136195  0  0.928419  0  0  0.148375  0  0.990486  0  0  0.15114  0  0.989208  0  0  0.110622  0.146191  0  0.991562  0
H  H17  1  0.10509356  0.20487067  0.04954107  1  0  0.13619  0  0.928264  0  0  0.148335  0  0.990419  0  0  0.151098  0  0.989139  0  0  0.110623  0.14615  0  0.991497  0
C  C18  1  0.45692235  0.21395188  0.62953206  1  0  -0.077475  0  3.653164  0  0  -0.132927  0  3.908639  0  0  -0.133601  0  3.916426  0  0  -0.072987  -0.132628  0  3.903674  0
C  C19  1  0.54307898  0.71395214  0.37046698  1  0  -0.077505  0  3.653174  0  0  -0.13297  0  3.908627  0  0  -0.133643  0  3.916403  0  0  -0.072995  -0.132659  0  3.903643  0
C  C20  1  0.65051901  0.28770734  0.74293783  1  0  0.578451  0  3.760818  0  0  0.531347  0  4.051466  0  0  0.560772  0  4.051269  0  0  0.247762  0.51133  0  4.051163  0
C  C21  1  0.34947552  0.78770866  0.25706442  1  0  0.578406  0  3.760872  0  0  0.531309  0  4.051543  0  0  0.56072  0  4.051374  0  0  0.247706  0.511287  0  4.05124  0
C  C22  1  0.75561877  0.49493325  0.89235751  1  0  0.055715  0  3.643641  0  0  0.031368  0  3.884501  0  0  0.031748  0  3.89545  0  0  0.008744  0.031009  0  3.877334  0
C  C23  1  0.24437953  0.99493745  0.10764181  1  0  0.055726  0  3.643639  0  0  0.031455  0  3.884448  0  0  0.031809  0  3.895429  0  0  0.008751  0.031097  0  3.877279  0
C  C24  1  0.62244411  0.48094545  0.04184041  1  0  0.669366  0  3.791261  0  0  0.618464  0  4.086766  0  0  0.652369  0  4.079479  0  0  0.227584  0.59531  0  4.09104  0
C  C25  1  0.37756082  0.98094553  0.95816224  1  0  0.669235  0  3.791559  0  0  0.618344  0  4.087027  0  0  0.652257  0  4.079742  0  0  0.227521  0.595193  0  4.091296  0
C  C26  1  0.78405233  0.65192194  0.85612026  1  0  -0.322443  0  3.647941  0  0  -0.364991  0  3.898514  0  0  -0.370653  0  3.904667  0  0  -0.166185  -0.361013  0  3.894447  0
C  C27  1  0.21593621  0.15192702  0.14388164  1  0  -0.32225  0  3.647502  0  0  -0.36487  0  3.898117  0  0  -0.370511  0  3.904253  0  0  -0.166156  -0.360893  0  3.89405  0
C  C28  1  0.94567944  0.68252091  0.71826011  1  0  0.727139  0  3.819457  0  0  0.675592  0  4.129892  0  0  0.709179  0  4.122208  0  0  0.211251  0.652777  0  4.134348  0
C  C29  1  0.05432883  0.18252739  0.28174860  1  0  0.726965  0  3.819633  0  0  0.675528  0  4.129981  0  0  0.709115  0  4.122295  0  0  0.211242  0.652714  0  4.134436  0
N  N30  1  0.57856697  0.07729542  0.58872350  1  0  -0.631144  0  3.150918  0  0  -0.578558  0  3.415803  0  0  -0.598023  0  3.409469  0  0  -0.621535  -0.56456  0  3.419599  0
N  N31  1  0.42143684  0.57729844  0.41127439  1  0  -0.630947  0  3.150756  0  0  -0.578308  0  3.415642  0  0  -0.597784  0  3.409331  0  0  -0.621424  -0.564316  0  3.41943  0
N  N32  1  0.59032984  0.42128870  0.77704922  1  0  -0.425734  0  3.30844  0  0  -0.376306  0  3.562599  0  0  -0.397567  0  3.571286  0  0  -0.411007  -0.361801  0  3.556533  0
N  N33  1  0.40966890  0.92129530  0.22294775  1  0  -0.425711  0  3.308391  0  0  -0.376327  0  3.562556  0  0  -0.397584  0  3.571265  0  0  -0.410935  -0.361821  0  3.556488  0
O  O34  1  0.85689522  0.22264160  0.80310227  1  0  -0.585027  0  2.020898  0  0  -0.520902  0  2.261768  0  0  -0.5461  0  2.253069  0  0  -0.292693  -0.503309  0  2.267205  0
O  O35  1  0.14310353  0.72264489  0.19690123  1  0  -0.585015  0  2.020938  0  0  -0.520885  0  2.261806  0  0  -0.546078  0  2.25312  0  0  -0.292684  -0.503294  0  2.267249  0
O  O36  1  0.35600896  0.46653103  0.03938086  1  0  -0.62688  0  2.086214  0  0  -0.55504  0  2.354163  0  0  -0.5841  0  2.341848  0  0  -0.307987  -0.534741  0  2.361994  0
O  O37  1  0.64399656  0.96653725  0.96061936  1  0  -0.626908  0  2.086384  0  0  -0.555075  0  2.354331  0  0  -0.58413  0  2.342011  0  0  -0.308015  -0.534772  0  2.362157  0
O  O38  1  0.77046710  0.48830739  0.16151930  1  0  -0.640399  0  2.113198  0  0  -0.570959  0  2.38925  0  0  -0.59947  0  2.374937  0  0  -0.312692  -0.551321  0  2.398565  0
O  O39  1  0.22954402  0.98830591  0.83848040  1  0  -0.640308  0  2.113215  0  0  -0.570891  0  2.389266  0  0  -0.599404  0  2.374952  0  0  -0.312614  -0.551252  0  2.398575  0
O  O40  1  0.91119122  0.80554546  0.65951795  1  0  -0.679165  0  2.009677  0  0  -0.614506  0  2.282452  0  0  -0.642721  0  2.26635  0  0  -0.342463  -0.595017  0  2.293223  0
O  O41  1  0.08880490  0.30555887  0.34048246  1  0  -0.679119  0  2.009965  0  0  -0.614514  0  2.282717  0  0  -0.642735  0  2.266622  0  0  -0.342413  -0.595023  0  2.293478  0
O  O42  1  0.10269513  0.58871771  0.66742630  1  0  -0.627921  0  1.933244  0  0  -0.568944  0  2.149797  0  0  -0.59307  0  2.14074  0  0  -0.317873  -0.551945  0  2.155212  0
O  O43  1  0.89728939  0.08872701  0.33257105  1  0  -0.627864  0  1.933216  0  0  -0.568915  0  2.14972  0  0  -0.593042  0  2.140671  0  0  -0.317952  -0.551918  0  2.155137  0
