# generated using pymatgen
data_ZnH17C23N3O4
_symmetry_space_group_name_H-M   'P 1'
_cell_length_a   7.67585806
_cell_length_b   9.79471294
_cell_length_c   15.45701331
_cell_angle_alpha   71.54958668
_cell_angle_beta   85.52284220
_cell_angle_gamma   75.69206167
_symmetry_Int_Tables_number   1
_chemical_formula_structural   ZnH17C23N3O4
_chemical_formula_sum   'Zn2 H34 C46 N6 O8'
_cell_volume   1068.17367971
_cell_formula_units_Z   2
loop_
 _symmetry_equiv_pos_site_id
 _symmetry_equiv_pos_as_xyz
  1  'x, y, z'
loop_
 _atom_site_type_symbol
 _atom_site_label
 _atom_site_symmetry_multiplicity
 _atom_site_fract_x
 _atom_site_fract_y
 _atom_site_fract_z
 _atom_site_occupancy
 _atom_site_hle17_bader_spin_density
 _atom_site_hle17_ddec_charge
 _atom_site_hle17_ddec_spin_density
 _atom_site_hle17_ddec_sum_bond_order
 _atom_site_hle17_magmom
 _atom_site_hse06_10hf_bader_spin_density
 _atom_site_hse06_10hf_ddec_charge
 _atom_site_hse06_10hf_ddec_spin_density
 _atom_site_hse06_10hf_ddec_sum_bond_order
 _atom_site_hse06_10hf_magmom
 _atom_site_hse06_bader_spin_density
 _atom_site_hse06_ddec_charge
 _atom_site_hse06_ddec_spin_density
 _atom_site_hse06_ddec_sum_bond_order
 _atom_site_hse06_magmom
 _atom_site_pbe_bader_spin_density
 _atom_site_pbe_cm5_charge
 _atom_site_pbe_ddec_charge
 _atom_site_pbe_ddec_spin_density
 _atom_site_pbe_ddec_sum_bond_order
 _atom_site_pbe_magmom
Zn  Zn0  1  0.82862453  0.95202168  0.19427057  1  0  0.987102  0  1.845068  0  0  0.801679  0  2.302514  0  0  0.853257  0  2.24738  0  0  0.675494  0.765681  0  2.340414  0
Zn  Zn1  1  0.32919028  0.14609310  0.80575812  1  0  0.987208  0  1.845004  0  0  0.801434  0  2.302838  0  0  0.85304  0  2.247634  0  0  0.675274  0.765419  0  2.340774  0
H  H2  1  0.77405026  0.52990911  0.39697169  1  0  0.089317  0  0.976249  0  0  0.097173  0  1.044245  0  0  0.100297  0  1.041999  0  0  0.099482  0.094794  0  1.046083  0
H  H3  1  0.27372246  0.92702296  0.60307093  1  0  0.089913  0  0.976478  0  0  0.097904  0  1.044265  0  0  0.101026  0  1.041994  0  0  0.099721  0.095522  0  1.046108  0
H  H4  1  0.63401872  0.32935163  0.49771204  1  0  0.090496  0  0.960187  0  0  0.101017  0  1.024175  0  0  0.103272  0  1.024526  0  0  0.099914  0.099447  0  1.024002  0
H  H5  1  0.13382451  0.82706447  0.50229258  1  0  0.091752  0  0.958438  0  0  0.102066  0  1.022524  0  0  0.104316  0  1.022886  0  0  0.100848  0.100498  0  1.022341  0
H  H6  1  0.11294246  0.59004513  0.39234970  1  0  0.09782  0  0.950279  0  0  0.108963  0  1.011617  0  0  0.112224  0  1.010183  0  0  0.098855  0.106529  0  1.012894  0
H  H7  1  0.61269111  0.98264991  0.60746801  1  0  0.097619  0  0.95045  0  0  0.10938  0  1.011208  0  0  0.112625  0  1.009793  0  0  0.099368  0.106956  0  1.012468  0
H  H8  1  0.25191896  0.79133107  0.29589216  1  0  0.109266  0  0.991036  0  0  0.113859  0  1.061215  0  0  0.118007  0  1.057901  0  0  0.097915  0.110826  0  1.063446  0
H  H9  1  0.75155250  0.08744607  0.70406675  1  0  0.108788  0  0.99191  0  0  0.114186  0  1.06096  0  0  0.118365  0  1.057628  0  0  0.098372  0.111053  0  1.063317  0
H  H10  1  0.38689567  0.23423191  0.55332774  1  0  0.099256  0  0.929063  0  0  0.115338  0  0.989988  0  0  0.117152  0  0.988907  0  0  0.09957  0.114208  0  0.990783  0
H  H11  1  0.88665917  0.78735197  0.44671854  1  0  0.099871  0  0.928816  0  0  0.116157  0  0.98982  0  0  0.117927  0  0.988677  0  0  0.099706  0.114982  0  0.990661  0
H  H12  1  0.17994014  0.36104416  0.55384115  1  0  0.099814  0  0.923824  0  0  0.116216  0  0.983819  0  0  0.117794  0  0.98312  0  0  0.100191  0.115251  0  0.984321  0
H  H13  1  0.67973647  0.91478122  0.44603162  1  0  0.099068  0  0.923473  0  0  0.115866  0  0.983511  0  0  0.117368  0  0.982763  0  0  0.100064  0.114897  0  0.984017  0
H  H14  1  0.31570293  0.05641389  0.29923543  1  0  0.106249  0  0.969292  0  0  0.113586  0  1.034356  0  0  0.117172  0  1.03191  0  0  0.099199  0.111014  0  1.035869  0
H  H15  1  0.81562475  0.35585744  0.70072803  1  0  0.104938  0  0.970261  0  0  0.112521  0  1.035027  0  0  0.11617  0  1.032506  0  0  0.09874  0.109909  0  1.036601  0
H  H16  1  0.45452469  0.16350613  0.39411809  1  0  0.100814  0  0.946305  0  0  0.113233  0  1.004633  0  0  0.116546  0  1.003156  0  0  0.100646  0.110786  0  1.005926  0
H  H17  1  0.95433300  0.55777878  0.60585054  1  0  0.101242  0  0.945895  0  0  0.113589  0  1.004262  0  0  0.116906  0  1.002771  0  0  0.100321  0.11113  0  1.005581  0
H  H18  1  0.93163096  0.33205839  0.49247536  1  0  0.08967  0  0.965362  0  0  0.10011  0  1.030261  0  0  0.102336  0  1.030491  0  0  0.09927  0.098619  0  1.030035  0
H  H19  1  0.43130916  0.82466927  0.50771079  1  0  0.089028  0  0.965306  0  0  0.099444  0  1.030266  0  0  0.101654  0  1.030524  0  0  0.098995  0.097972  0  1.029978  0
H  H20  1  0.79082864  0.23645103  0.38924458  1  0  0.091514  0  0.971648  0  0  0.099633  0  1.03859  0  0  0.102862  0  1.036307  0  0  0.099168  0.097232  0  1.040406  0
H  H21  1  0.29063275  0.62597034  0.61100443  1  0  0.09225  0  0.970689  0  0  0.099789  0  1.038332  0  0  0.10311  0  1.035933  0  0  0.099163  0.097342  0  1.040199  0
H  H22  1  0.07836027  0.62451277  0.21022862  1  0  0.094213  0  0.920831  0  0  0.103871  0  0.978762  0  0  0.106367  0  0.977014  0  0  0.126186  0.101944  0  0.980125  0
H  H23  1  0.57864500  0.83465638  0.78972283  1  0  0.094127  0  0.921137  0  0  0.104144  0  0.978779  0  0  0.106697  0  0.976978  0  0  0.126683  0.102223  0  0.980141  0
H  H24  1  0.23540513  0.49140835  0.10044002  1  0  0.101502  0  0.950883  0  0  0.112855  0  1.006966  0  0  0.116097  0  1.006293  0  0  0.108544  0.110522  0  1.007523  0
H  H25  1  0.73525246  0.59153216  0.89938350  1  0  0.102165  0  0.951671  0  0  0.113202  0  1.007981  0  0  0.116509  0  1.00724  0  0  0.108825  0.110821  0  1.008592  0
H  H26  1  0.20653630  0.62810787  0.93193550  1  0  0.096537  0  0.926597  0  0  0.111916  0  0.976088  0  0  0.114633  0  0.974678  0  0  0.113969  0.110302  0  0.976476  0
H  H27  1  0.70634490  0.55955998  0.06793276  1  0  0.096139  0  0.925865  0  0  0.111397  0  0.975621  0  0  0.114116  0  0.974207  0  0  0.113463  0.109778  0  0.976006  0
H  H28  1  0.02339897  0.88967954  0.88046304  1  0  0.122262  0  0.95773  0  0  0.132159  0  1.015251  0  0  0.13548  0  1.014319  0  0  0.113408  0.129666  0  1.01625  0
H  H29  1  0.52349022  0.76960081  0.11957051  1  0  0.12207  0  0.957416  0  0  0.131824  0  1.015168  0  0  0.135111  0  1.014279  0  0  0.113328  0.129327  0  1.01617  0
H  H30  1  0.63766420  0.36721301  0.87583234  1  0  0.110842  0  0.952252  0  0  0.121752  0  1.009834  0  0  0.123844  0  1.009445  0  0  0.127954  0.120302  0  1.009999  0
H  H31  1  0.13742089  0.24297856  0.12407303  1  0  0.111485  0  0.951797  0  0  0.122309  0  1.009323  0  0  0.124435  0  1.008896  0  0  0.12782  0.120856  0  1.009473  0
H  H32  1  0.58746502  0.30309822  0.06501717  1  0  0.102061  0  0.939727  0  0  0.114481  0  0.994623  0  0  0.116826  0  0.993999  0  0  0.120476  0.112873  0  0.994882  0
H  H33  1  0.08769952  0.36775686  0.93485622  1  0  0.103647  0  0.940692  0  0  0.11641  0  0.99498  0  0  0.118756  0  0.994379  0  0  0.121517  0.114793  0  0.995242  0
H  H34  1  0.85726211  0.13897092  0.85425216  1  0  0.340152  0  0.899841  0  0  0.317233  0  0.965706  0  0  0.326861  0  0.956638  0  0  0.318584  0.310242  0  0.972431  0
H  H35  1  0.35703875  0.99309827  0.14582505  1  0  0.34013  0  0.900695  0  0  0.316964  0  0.966865  0  0  0.326603  0  0.95779  0  0  0.318684  0.310048  0  0.973468  0
C  C36  1  0.61135385  0.78713180  0.28147597  1  0  0.636937  0  3.900109  0  0  0.590567  0  4.18397  0  0  0.625129  0  4.177023  0  0  0.201966  0.567026  0  4.188021  0
C  C37  1  0.11120037  0.06880416  0.71854990  1  0  0.637081  0  3.901681  0  0  0.59053  0  4.18568  0  0  0.625119  0  4.178714  0  0  0.202696  0.566989  0  4.189724  0
C  C38  1  0.52311455  0.67072965  0.33945046  1  0  -0.09289  0  3.805921  0  0  -0.068618  0  4.036328  0  0  -0.079571  0  4.061527  0  0  -0.030714  -0.061835  0  4.019391  0
C  C39  1  0.02280947  0.01041925  0.66053288  1  0  -0.092936  0  3.802723  0  0  -0.068992  0  4.0338  0  0  -0.080026  0  4.059121  0  0  -0.031027  -0.062211  0  4.016852  0
C  C40  1  0.62964156  0.54088083  0.39681619  1  0  -0.052716  0  3.757376  0  0  -0.077216  0  4.002059  0  0  -0.074913  0  4.022536  0  0  -0.083758  -0.078452  0  3.988533  0
C  C41  1  0.12930382  0.93790683  0.60315885  1  0  -0.05293  0  3.758583  0  0  -0.077433  0  4.00296  0  0  -0.075102  0  4.023457  0  0  -0.084055  -0.078673  0  3.989439  0
C  C42  1  0.55129335  0.42975228  0.45204715  1  0  -0.131749  0  3.745684  0  0  -0.14814  0  3.991027  0  0  -0.154096  0  4.014109  0  0  -0.092301  -0.144628  0  3.975768  0
C  C43  1  0.05105355  0.88188428  0.54792297  1  0  -0.13332  0  3.746362  0  0  -0.149671  0  3.991589  0  0  -0.155624  0  4.014669  0  0  -0.093513  -0.14617  0  3.97635  0
C  C44  1  0.36533969  0.44506666  0.45096778  1  0  0.127074  0  3.727417  0  0  0.146291  0  3.962661  0  0  0.148721  0  3.986835  0  0  0.001226  0.144906  0  3.946019  0
C  C45  1  0.86508948  0.89621127  0.54893371  1  0  0.127091  0  3.727284  0  0  0.147179  0  3.96217  0  0  0.149505  0  3.986283  0  0  0.002353  0.145807  0  3.945513  0
C  C46  1  0.25856478  0.57609247  0.39376050  1  0  -0.139812  0  3.734005  0  0  -0.156632  0  3.982542  0  0  -0.162382  0  4.004505  0  0  -0.097359  -0.152645  0  3.967333  0
C  C47  1  0.75830454  0.97015993  0.60608406  1  0  -0.141156  0  3.735448  0  0  -0.158895  0  3.984394  0  0  -0.164643  0  4.006374  0  0  -0.099068  -0.154908  0  3.969166  0
C  C48  1  0.33592913  0.68845267  0.33854603  1  0  -0.076202  0  3.744272  0  0  -0.101093  0  3.996472  0  0  -0.099359  0  4.016114  0  0  -0.092863  -0.101437  0  3.982319  0
C  C49  1  0.83560546  0.02725926  0.66139440  1  0  -0.074337  0  3.742721  0  0  -0.099616  0  3.994864  0  0  -0.097885  0  4.014485  0  0  -0.09182  -0.099889  0  3.980763  0
C  C50  1  0.28340785  0.32057820  0.50864132  1  0  -0.208534  0  3.71666  0  0  -0.259179  0  3.961419  0  0  -0.260487  0  3.971876  0  0  -0.155282  -0.258215  0  3.953957  0
C  C51  1  0.78314553  0.82922635  0.49131753  1  0  -0.207212  0  3.715231  0  0  -0.259347  0  3.961413  0  0  -0.26032  0  3.971452  0  0  -0.155602  -0.258354  0  3.953966  0
C  C52  1  0.95554777  0.07926485  0.28188728  1  0  0.616053  0  3.921429  0  0  0.571146  0  4.204379  0  0  0.605193  0  4.198999  0  0  0.18829  0.5479  0  4.207445  0
C  C53  1  0.45530550  0.36150312  0.71815970  1  0  0.614466  0  3.92237  0  0  0.569784  0  4.20518  0  0  0.603816  0  4.199797  0  0  0.187702  0.546549  0  4.208254  0
C  C54  1  0.04323805  0.14241511  0.33758030  1  0  -0.087858  0  3.806829  0  0  -0.064536  0  4.038911  0  0  -0.074891  0  4.063838  0  0  -0.030066  -0.057981  0  4.02216  0
C  C55  1  0.54309134  0.48022699  0.66254362  1  0  -0.087391  0  3.807588  0  0  -0.064304  0  4.039895  0  0  -0.074666  0  4.064881  0  0  -0.030528  -0.057752  0  4.023135  0
C  C56  1  0.23114932  0.12023756  0.33983205  1  0  -0.074905  0  3.744961  0  0  -0.097935  0  3.994354  0  0  -0.096076  0  4.013791  0  0  -0.091359  -0.098486  0  3.980444  0
C  C57  1  0.73099642  0.46028526  0.66021821  1  0  -0.074493  0  3.746208  0  0  -0.097735  0  3.995941  0  0  -0.09591  0  4.015306  0  0  -0.091187  -0.098269  0  3.982079  0
C  C58  1  0.30866478  0.17822332  0.39457533  1  0  -0.134831  0  3.73199  0  0  -0.15251  0  3.978554  0  0  -0.157816  0  3.999993  0  0  -0.096009  -0.148934  0  3.963765  0
C  C59  1  0.80844920  0.57300023  0.60548707  1  0  -0.134554  0  3.731226  0  0  -0.152175  0  3.977343  0  0  -0.157493  0  3.998814  0  0  -0.095175  -0.148593  0  3.962556  0
C  C60  1  0.20121063  0.25558143  0.44985851  1  0  0.123762  0  3.729617  0  0  0.143454  0  3.965891  0  0  0.145637  0  3.990089  0  0  0.000634  0.142235  0  3.94919  0
C  C61  1  0.70095751  0.70559453  0.55020265  1  0  0.120994  0  3.730972  0  0  0.141237  0  3.967379  0  0  0.143323  0  3.991528  0  0  -0.00094  0.140018  0  3.950671  0
C  C62  1  0.01458103  0.27507579  0.44793530  1  0  -0.137594  0  3.753963  0  0  -0.155296  0  4.001159  0  0  -0.160986  0  4.024313  0  0  -0.095448  -0.151681  0  3.985535  0
C  C63  1  0.51432086  0.72320282  0.55224189  1  0  -0.136348  0  3.755466  0  0  -0.153978  0  4.0022  0  0  -0.159665  0  4.025389  0  0  -0.094569  -0.150352  0  3.986573  0
C  C64  1  0.93591024  0.22103715  0.39164539  1  0  -0.057417  0  3.760844  0  0  -0.081452  0  4.005914  0  0  -0.079686  0  4.026627  0  0  -0.085418  -0.082372  0  3.992044  0
C  C65  1  0.43572666  0.61292406  0.60855156  1  0  -0.057485  0  3.761262  0  0  -0.081077  0  4.006204  0  0  -0.079376  0  4.026892  0  0  -0.085039  -0.081966  0  3.992366  0
C  C66  1  0.07073047  0.67819976  0.13660355  1  0  0.145531  0  3.692141  0  0  0.115628  0  3.941291  0  0  0.122976  0  3.957864  0  0  0.059189  0.11095  0  3.929988  0
C  C67  1  0.57099612  0.81460002  0.86336563  1  0  0.144818  0  3.695579  0  0  0.114294  0  3.944867  0  0  0.121589  0  3.961441  0  0  0.058482  0.109606  0  3.933557  0
C  C68  1  0.15682370  0.60514118  0.07516595  1  0  -0.137755  0  3.754069  0  0  -0.150312  0  4.005501  0  0  -0.156689  0  4.026166  0  0  -0.086388  -0.146195  0  3.991333  0
C  C69  1  0.65682618  0.67998177  0.92472379  1  0  -0.137988  0  3.757308  0  0  -0.150066  0  4.008555  0  0  -0.156504  0  4.029226  0  0  -0.086945  -0.145911  0  3.994407  0
C  C70  1  0.14043003  0.68141509  0.98188894  1  0  -0.009288  0  3.749318  0  0  -0.028689  0  4.003155  0  0  -0.025324  0  4.021641  0  0  -0.06822  -0.030663  0  3.990363  0
C  C71  1  0.64040707  0.66290734  0.01801979  1  0  -0.011581  0  3.748019  0  0  -0.030916  0  4.001671  0  0  -0.027566  0  4.020175  0  0  -0.069275  -0.032874  0  3.98885  0
C  C72  1  0.03891796  0.82691359  0.95256165  1  0  -0.130317  0  3.676821  0  0  -0.152723  0  3.929816  0  0  -0.158856  0  3.949715  0  0  -0.07877  -0.148825  0  3.916834  0
C  C73  1  0.53905221  0.77909002  0.04744316  1  0  -0.129459  0  3.676913  0  0  -0.151705  0  3.929421  0  0  -0.157833  0  3.949318  0  0  -0.077793  -0.147783  0  3.916452  0
C  C74  1  0.95705880  0.89250436  0.01856440  1  0  0.158997  0  3.785942  0  0  0.155119  0  4.035184  0  0  0.161534  0  4.054703  0  0  0.121972  0.150748  0  4.022103  0
C  C75  1  0.45737323  0.91079105  0.98150368  1  0  0.159907  0  3.788719  0  0  0.156786  0  4.037184  0  0  0.163273  0  4.056614  0  0  0.122181  0.152355  0  4.02416  0
C  C76  1  0.84457049  0.04231975  0.99898511  1  0  0.270996  0  3.753797  0  0  0.238029  0  4.017075  0  0  0.249361  0  4.034162  0  0  0.211258  0.230449  0  4.005563  0
C  C77  1  0.34482043  0.04102558  0.00107611  1  0  0.272744  0  3.75222  0  0  0.238531  0  4.016845  0  0  0.249825  0  4.033951  0  0  0.213447  0.231008  0  4.005287  0
C  C78  1  0.69158743  0.26983553  0.93201536  1  0  0.01678  0  3.670402  0  0  -0.026201  0  3.939598  0  0  -0.024682  0  3.959958  0  0  0.016526  -0.027492  0  3.926095  0
C  C79  1  0.19146843  0.20162447  0.06794604  1  0  0.016758  0  3.669925  0  0  -0.026119  0  3.938806  0  0  -0.024623  0  3.9592  0  0  0.015752  -0.027405  0  3.925305  0
C  C80  1  0.66734866  0.23624049  0.02543456  1  0  0.008636  0  3.74229  0  0  -0.027549  0  4.015036  0  0  -0.027192  0  4.037537  0  0  0.006163  -0.027691  0  3.999467  0
C  C81  1  0.16748067  0.26134622  0.97451060  1  0  0.005994  0  3.745249  0  0  -0.030494  0  4.018216  0  0  -0.030145  0  4.040717  0  0  0.004619  -0.030632  0  4.002653  0
N  N82  1  0.76233853  0.09438962  0.06610560  1  0  -0.404004  0  3.279349  0  0  -0.333118  0  3.571375  0  0  -0.353017  0  3.585976  0  0  -0.346939  -0.31955  0  3.561446  0
N  N83  1  0.26268208  0.16014302  0.93390393  1  0  -0.404475  0  3.280605  0  0  -0.333538  0  3.573544  0  0  -0.353426  0  3.588117  0  0  -0.347985  -0.31997  0  3.563581  0
N  N84  1  0.97437546  0.81833939  0.10886847  1  0  -0.337194  0  3.229309  0  0  -0.269626  0  3.492848  0  0  -0.286681  0  3.508159  0  0  -0.310312  -0.258141  0  3.482597  0
N  N85  1  0.47481127  0.92699262  0.89117661  1  0  -0.3358  0  3.229501  0  0  -0.268471  0  3.493463  0  0  -0.285529  0  3.508721  0  0  -0.310144  -0.256981  0  3.483273  0
N  N86  1  0.80269758  0.14667999  0.91704599  1  0  -0.28844  0  3.403558  0  0  -0.224377  0  3.633947  0  0  -0.239711  0  3.648227  0  0  -0.36014  -0.214128  0  3.624878  0
N  N87  1  0.30264653  0.06352563  0.08299211  1  0  -0.288804  0  3.402566  0  0  -0.224075  0  3.633352  0  0  -0.23942  0  3.647617  0  0  -0.359128  -0.213887  0  3.624203  0
O  O88  1  0.52246318  0.90294104  0.22336812  1  0  -0.65191  0  2.004373  0  0  -0.59602  0  2.244416  0  0  -0.620403  0  2.231472  0  0  -0.321295  -0.578685  0  2.252712  0
O  O89  1  0.02237068  0.12656307  0.77665372  1  0  -0.65147  0  2.004663  0  0  -0.595622  0  2.244554  0  0  -0.619966  0  2.231609  0  0  -0.321705  -0.578249  0  2.252776  0
O  O90  1  0.78195198  0.76795291  0.29021456  1  0  -0.620314  0  2.012508  0  0  -0.551007  0  2.266668  0  0  -0.580305  0  2.255159  0  0  -0.321201  -0.530734  0  2.273939  0
O  O91  1  0.28183396  0.05818902  0.70985347  1  0  -0.620989  0  2.014574  0  0  -0.551053  0  2.26845  0  0  -0.580399  0  2.256981  0  0  -0.321165  -0.530771  0  2.275741  0
O  O92  1  0.78470061  0.10752262  0.27631881  1  0  -0.620145  0  1.903194  0  0  -0.561611  0  2.1279  0  0  -0.587083  0  2.116703  0  0  -0.333859  -0.544058  0  2.135159  0
O  O93  1  0.28449783  0.38427891  0.72374257  1  0  -0.619294  0  1.902182  0  0  -0.56082  0  2.12632  0  0  -0.586245  0  2.115171  0  0  -0.333361  -0.543293  0  2.133549  0
O  O94  1  0.05502844  0.99371864  0.23954389  1  0  -0.639914  0  2.014799  0  0  -0.57152  0  2.266784  0  0  -0.599398  0  2.255238  0  0  -0.328567  -0.551722  0  2.274016  0
O  O95  1  0.55476925  0.23353439  0.76041655  1  0  -0.639137  0  2.015023  0  0  -0.570775  0  2.267353  0  0  -0.598793  0  2.256003  0  0  -0.327884  -0.550868  0  2.274437  0
