# generated using pymatgen
data_ZnPH5C5NO3
_symmetry_space_group_name_H-M   'P 1'
_cell_length_a   7.44077122
_cell_length_b   9.69148018
_cell_length_c   10.09188779
_cell_angle_alpha   99.59064627
_cell_angle_beta   90.00000989
_cell_angle_gamma   89.99991509
_symmetry_Int_Tables_number   1
_chemical_formula_structural   ZnPH5C5NO3
_chemical_formula_sum   'Zn4 P4 H20 C20 N4 O12'
_cell_volume   717.57554801
_cell_formula_units_Z   4
loop_
 _symmetry_equiv_pos_site_id
 _symmetry_equiv_pos_as_xyz
  1  'x, y, z'
loop_
 _atom_site_type_symbol
 _atom_site_label
 _atom_site_symmetry_multiplicity
 _atom_site_fract_x
 _atom_site_fract_y
 _atom_site_fract_z
 _atom_site_occupancy
 _atom_site_hle17_bader_spin_density
 _atom_site_hle17_ddec_charge
 _atom_site_hle17_ddec_spin_density
 _atom_site_hle17_ddec_sum_bond_order
 _atom_site_hle17_magmom
 _atom_site_hse06_10hf_bader_spin_density
 _atom_site_hse06_10hf_ddec_charge
 _atom_site_hse06_10hf_ddec_spin_density
 _atom_site_hse06_10hf_ddec_sum_bond_order
 _atom_site_hse06_10hf_magmom
 _atom_site_hse06_bader_spin_density
 _atom_site_hse06_ddec_charge
 _atom_site_hse06_ddec_spin_density
 _atom_site_hse06_ddec_sum_bond_order
 _atom_site_hse06_magmom
 _atom_site_pbe_bader_spin_density
 _atom_site_pbe_cm5_charge
 _atom_site_pbe_ddec_charge
 _atom_site_pbe_ddec_spin_density
 _atom_site_pbe_ddec_sum_bond_order
 _atom_site_pbe_magmom
Zn  Zn0  1  0.56560888  0.62643752  0.85928103  1  0  1.132474  0  1.853006  0  0  0.959282  0  2.333661  0  0  1.001849  0  2.275014  0  0  0.714617  0.92955  0  2.373671  0
Zn  Zn1  1  0.93439183  0.62643845  0.35928061  1  0  1.132462  0  1.853044  0  0  0.959264  0  2.333703  0  0  1.00183  0  2.275057  0  0  0.714595  0.929532  0  2.373715  0
Zn  Zn2  1  0.43439146  0.37356180  0.14071967  1  0  1.132462  0  1.853046  0  0  0.959264  0  2.333678  0  0  1.001824  0  2.275037  0  0  0.714602  0.929523  0  2.373689  0
Zn  Zn3  1  0.06560850  0.37356192  0.64071927  1  0  1.132448  0  1.853035  0  0  0.959256  0  2.333693  0  0  1.001819  0  2.275048  0  0  0.714609  0.929522  0  2.373703  0
P  P4  1  0.61486978  0.66317969  0.17662937  1  0  1.410221  0  5.000616  0  0  1.22886  0  5.502998  0  0  1.279079  0  5.467131  0  0  0.263982  1.19406  0  5.526615  0
P  P5  1  0.88513081  0.66317944  0.67662895  1  0  1.4102  0  5.00063  0  0  1.228835  0  5.503014  0  0  1.279055  0  5.46715  0  0  0.26398  1.194036  0  5.526629  0
P  P6  1  0.38513055  0.33682068  0.82337051  1  0  1.410149  0  5.00075  0  0  1.228774  0  5.503137  0  0  1.278996  0  5.467272  0  0  0.263938  1.193978  0  5.526751  0
P  P7  1  0.11486818  0.33682093  0.32337092  1  0  1.410153  0  5.000723  0  0  1.228777  0  5.503114  0  0  1.278997  0  5.467252  0  0  0.263954  1.193978  0  5.526732  0
H  H8  1  0.49035570  0.77296706  0.17317992  1  0  -0.16884  0  0.903242  0  0  -0.137041  0  0.990426  0  0  -0.141779  0  0.988373  0  0  0.073404  -0.133692  0  0.991062  0
H  H9  1  0.00964349  0.77296829  0.67317969  1  0  -0.168848  0  0.90325  0  0  -0.137052  0  0.990439  0  0  -0.141789  0  0.988387  0  0  0.073396  -0.133702  0  0.991074  0
H  H10  1  0.50964463  0.22703331  0.82681996  1  0  -0.168835  0  0.903255  0  0  -0.137037  0  0.990443  0  0  -0.141776  0  0.98839  0  0  0.073404  -0.133688  0  0.991079  0
H  H11  1  0.99035684  0.22703313  0.32682035  1  0  -0.168846  0  0.90327  0  0  -0.137047  0  0.990457  0  0  -0.141787  0  0.988407  0  0  0.073401  -0.133699  0  0.991095  0
H  H12  1  0.20143429  0.61144892  0.98179928  1  0  0.104712  0  0.93713  0  0  0.114287  0  0.993496  0  0  0.117015  0  0.991124  0  0  0.12618  0.112383  0  0.995133  0
H  H13  1  0.29856798  0.61144791  0.48179952  1  0  0.104708  0  0.937123  0  0  0.114282  0  0.993493  0  0  0.117013  0  0.991119  0  0  0.126181  0.11238  0  0.995129  0
H  H14  1  0.79856470  0.38855040  0.01819943  1  0  0.104725  0  0.937096  0  0  0.114293  0  0.99347  0  0  0.117022  0  0.991096  0  0  0.126184  0.11239  0  0.995106  0
H  H15  1  0.70143504  0.38855142  0.51819820  1  0  0.104695  0  0.937101  0  0  0.114291  0  0.993437  0  0  0.11702  0  0.991061  0  0  0.126192  0.112387  0  0.995074  0
H  H16  1  0.94969248  0.77115111  0.05303238  1  0  0.124535  0  0.969066  0  0  0.132674  0  1.029364  0  0  0.136324  0  1.02779  0  0  0.11336  0.129931  0  1.030892  0
H  H17  1  0.55030787  0.77115125  0.55303100  1  0  0.124567  0  0.969025  0  0  0.132709  0  1.029317  0  0  0.136359  0  1.027745  0  0  0.113377  0.129967  0  1.030845  0
H  H18  1  0.05030785  0.22884926  0.94696749  1  0  0.124505  0  0.969076  0  0  0.132663  0  1.029357  0  0  0.136312  0  1.027785  0  0  0.113363  0.12992  0  1.030885  0
H  H19  1  0.44969246  0.22884912  0.44696690  1  0  0.124526  0  0.969065  0  0  0.132679  0  1.029345  0  0  0.136328  0  1.027775  0  0  0.11337  0.129936  0  1.030874  0
H  H20  1  0.23964050  0.09097036  0.88534334  1  0  0.111331  0  0.990858  0  0  0.119464  0  1.056224  0  0  0.123052  0  1.05437  0  0  0.10924  0.116983  0  1.057525  0
H  H21  1  0.26036007  0.09097044  0.38534374  1  0  0.111297  0  0.990902  0  0  0.119465  0  1.056228  0  0  0.123054  0  1.054373  0  0  0.109239  0.116984  0  1.057529  0
H  H22  1  0.76035983  0.90903001  0.11465753  1  0  0.111348  0  0.99088  0  0  0.119478  0  1.056244  0  0  0.123066  0  1.054391  0  0  0.109247  0.116997  0  1.057545  0
H  H23  1  0.73964027  0.90903097  0.61465729  1  0  0.111308  0  0.9909  0  0  0.119475  0  1.056223  0  0  0.123063  0  1.054371  0  0  0.109243  0.116994  0  1.057525  0
H  H24  1  0.48133104  0.91554579  0.82217172  1  0  0.087955  0  0.937972  0  0  0.096644  0  1.000702  0  0  0.09895  0  0.999556  0  0  0.117668  0.095007  0  1.001515  0
H  H25  1  0.01866926  0.91554719  0.32217231  1  0  0.087929  0  0.938003  0  0  0.096616  0  1.00073  0  0  0.098919  0  0.9996  0  0  0.117661  0.094979  0  1.001542  0
H  H26  1  0.51866929  0.08445353  0.17782798  1  0  0.087936  0  0.937989  0  0  0.096626  0  1.00072  0  0  0.09893  0  0.999578  0  0  0.11766  0.094988  0  1.001532  0
H  H27  1  0.98133241  0.08445317  0.67782855  1  0  0.087935  0  0.93799  0  0  0.096615  0  1.000732  0  0  0.098926  0  0.999582  0  0  0.117656  0.094978  0  1.001541  0
C  C28  1  0.20497414  0.71945337  0.96420410  1  0  0.152263  0  3.665462  0  0  0.119938  0  3.918689  0  0  0.127636  0  3.935254  0  0  0.057232  0.114948  0  3.907351  0
C  C29  1  0.29502657  0.71945342  0.46420252  1  0  0.152273  0  3.665293  0  0  0.11995  0  3.918528  0  0  0.127648  0  3.935092  0  0  0.057224  0.114962  0  3.907189  0
C  C30  1  0.79502485  0.28054595  0.03579561  1  0  0.152179  0  3.665358  0  0  0.119867  0  3.918584  0  0  0.127564  0  3.935149  0  0  0.057204  0.114878  0  3.907246  0
C  C31  1  0.70497107  0.28054696  0.53579537  1  0  0.152223  0  3.665272  0  0  0.119912  0  3.918482  0  0  0.127611  0  3.935047  0  0  0.057222  0.114924  0  3.907144  0
C  C32  1  0.06449656  0.81118509  0.00445914  1  0  -0.136509  0  3.651565  0  0  -0.15412  0  3.896047  0  0  -0.161626  0  3.915998  0  0  -0.070261  -0.149482  0  3.883418  0
C  C33  1  0.43550386  0.81118479  0.50445773  1  0  -0.136557  0  3.651492  0  0  -0.154177  0  3.896002  0  0  -0.161684  0  3.915955  0  0  -0.070295  -0.14954  0  3.883373  0
C  C34  1  0.93550377  0.18881423  0.99554155  1  0  -0.13648  0  3.651445  0  0  -0.1541  0  3.895963  0  0  -0.161607  0  3.915917  0  0  -0.070289  -0.149463  0  3.883334  0
C  C35  1  0.56449647  0.18881454  0.49553999  1  0  -0.136469  0  3.651515  0  0  -0.154083  0  3.896028  0  0  -0.161587  0  3.91598  0  0  -0.070267  -0.149444  0  3.8834  0
C  C36  1  0.07285724  0.94913026  0.97913896  1  0  0.09986  0  3.732016  0  0  0.111292  0  3.959427  0  0  0.115623  0  3.980486  0  0  0.01869  0.108609  0  3.945194  0
C  C37  1  0.42714438  0.94913015  0.47913936  1  0  0.099866  0  3.731976  0  0  0.111293  0  3.95941  0  0  0.115624  0  3.980467  0  0  0.018686  0.10861  0  3.945177  0
C  C38  1  0.92714309  0.05086906  0.02086074  1  0  0.099951  0  3.731928  0  0  0.111306  0  3.959417  0  0  0.115636  0  3.980477  0  0  0.018696  0.108623  0  3.945184  0
C  C39  1  0.57285864  0.05086918  0.52086035  1  0  0.099904  0  3.731975  0  0  0.111248  0  3.95948  0  0  0.115577  0  3.98054  0  0  0.018669  0.108563  0  3.945249  0
C  C40  1  0.22538439  0.98688697  0.91101553  1  0  -0.154416  0  3.695784  0  0  -0.173335  0  3.94136  0  0  -0.181093  0  3.962352  0  0  -0.080207  -0.168238  0  3.927029  0
C  C41  1  0.27461579  0.98688598  0.41101576  1  0  -0.154417  0  3.695857  0  0  -0.173358  0  3.941419  0  0  -0.181116  0  3.96241  0  0  -0.080211  -0.168261  0  3.927089  0
C  C42  1  0.77461594  0.01311340  0.08898534  1  0  -0.154467  0  3.695906  0  0  -0.173358  0  3.94148  0  0  -0.181115  0  3.962471  0  0  -0.080197  -0.168262  0  3.92715  0
C  C43  1  0.72538454  0.01311438  0.58898510  1  0  -0.154412  0  3.695944  0  0  -0.173327  0  3.941511  0  0  -0.181085  0  3.962503  0  0  -0.080191  -0.16823  0  3.927181  0
C  C44  1  0.36056805  0.88971555  0.87424533  1  0  0.120757  0  3.72308  0  0  0.090828  0  3.974929  0  0  0.097109  0  3.994697  0  0  0.044267  0.086612  0  3.961669  0
C  C45  1  0.13943231  0.88971786  0.37424608  1  0  0.120838  0  3.723112  0  0  0.090911  0  3.974964  0  0  0.097187  0  3.994733  0  0  0.044304  0.086694  0  3.961705  0
C  C46  1  0.63943228  0.11028273  0.12575421  1  0  0.120789  0  3.723237  0  0  0.090852  0  3.975082  0  0  0.097133  0  3.994849  0  0  0.04429  0.086637  0  3.961821  0
C  C47  1  0.86056533  0.11028356  0.62575396  1  0  0.120741  0  3.723164  0  0  0.090824  0  3.975019  0  0  0.097102  0  3.994791  0  0  0.044273  0.086609  0  3.961758  0
N  N48  1  0.35170216  0.75818954  0.90118259  1  0  -0.354744  0  3.324113  0  0  -0.274213  0  3.60869  0  0  -0.293154  0  3.622668  0  0  -0.331208  -0.261444  0  3.598999  0
N  N49  1  0.14829846  0.75818976  0.40118102  1  0  -0.354768  0  3.323999  0  0  -0.274237  0  3.608577  0  0  -0.293178  0  3.622559  0  0  -0.331209  -0.261465  0  3.598882  0
N  N50  1  0.64829817  0.24180978  0.09881811  1  0  -0.354702  0  3.32411  0  0  -0.274169  0  3.608671  0  0  -0.293109  0  3.622652  0  0  -0.331196  -0.261396  0  3.598974  0
N  N51  1  0.85170187  0.24181062  0.59881687  1  0  -0.35467  0  3.323896  0  0  -0.274177  0  3.608496  0  0  -0.293118  0  3.622472  0  0  -0.3312  -0.261408  0  3.598805  0
O  O52  1  0.67707708  0.61094484  0.03165148  1  0  -0.855007  0  2.069684  0  0  -0.756054  0  2.370052  0  0  -0.78365  0  2.343264  0  0  -0.384277  -0.736618  0  2.387633  0
O  O53  1  0.82292358  0.61094466  0.53165107  1  0  -0.855034  0  2.069682  0  0  -0.756074  0  2.370035  0  0  -0.78367  0  2.343248  0  0  -0.384287  -0.736639  0  2.387618  0
O  O54  1  0.32292191  0.38905553  0.96834839  1  0  -0.855051  0  2.069706  0  0  -0.756075  0  2.37005  0  0  -0.783671  0  2.343263  0  0  -0.384293  -0.736639  0  2.387629  0
O  O55  1  0.17707675  0.38905466  0.46834864  1  0  -0.855009  0  2.069691  0  0  -0.756049  0  2.370055  0  0  -0.783646  0  2.34327  0  0  -0.384284  -0.736614  0  2.387638  0
O  O56  1  0.51798209  0.55067822  0.24053896  1  0  -0.834504  0  2.028862  0  0  -0.735985  0  2.325238  0  0  -0.76434  0  2.300198  0  0  -0.383495  -0.716434  0  2.341997  0
O  O57  1  0.98202007  0.55067891  0.74053970  1  0  -0.83446  0  2.028887  0  0  -0.735939  0  2.325255  0  0  -0.764295  0  2.300215  0  0  -0.383477  -0.716388  0  2.342011  0
O  O58  1  0.48201824  0.44932006  0.75946057  1  0  -0.834449  0  2.028928  0  0  -0.735934  0  2.325305  0  0  -0.764292  0  2.300267  0  0  -0.383461  -0.716385  0  2.342063  0
O  O59  1  0.01798160  0.44932146  0.25946116  1  0  -0.834452  0  2.028933  0  0  -0.735927  0  2.325296  0  0  -0.764282  0  2.300259  0  0  -0.383463  -0.716377  0  2.342055  0
O  O60  1  0.77061702  0.73276528  0.26357445  1  0  -0.840096  0  2.023712  0  0  -0.74251  0  2.322215  0  0  -0.77098  0  2.298046  0  0  -0.389184  -0.722164  0  2.337878  0
O  O61  1  0.72938345  0.73276521  0.76357405  1  0  -0.840071  0  2.023683  0  0  -0.74249  0  2.322196  0  0  -0.770959  0  2.298018  0  0  -0.389174  -0.722145  0  2.337859  0
O  O62  1  0.22938331  0.26723509  0.73642641  1  0  -0.84007  0  2.02371  0  0  -0.742477  0  2.322212  0  0  -0.770949  0  2.29804  0  0  -0.38918  -0.722132  0  2.337872  0
O  O63  1  0.27061688  0.26723516  0.23642682  1  0  -0.840042  0  2.023732  0  0  -0.742448  0  2.322239  0  0  -0.770915  0  2.298062  0  0  -0.389153  -0.7221  0  2.337899  0
