# generated using pymatgen
data_ZnH26C22S4(NO)6
_symmetry_space_group_name_H-M   'P 1'
_cell_length_a   11.15608126
_cell_length_b   11.29400019
_cell_length_c   13.54020000
_cell_angle_alpha   100.09176134
_cell_angle_beta   107.57500082
_cell_angle_gamma   115.59286959
_symmetry_Int_Tables_number   1
_chemical_formula_structural   ZnH26C22S4(NO)6
_chemical_formula_sum   'Zn2 H52 C44 S8 N12 O12'
_cell_volume   1370.99561004
_cell_formula_units_Z   2
loop_
 _symmetry_equiv_pos_site_id
 _symmetry_equiv_pos_as_xyz
  1  'x, y, z'
loop_
 _atom_site_type_symbol
 _atom_site_label
 _atom_site_symmetry_multiplicity
 _atom_site_fract_x
 _atom_site_fract_y
 _atom_site_fract_z
 _atom_site_occupancy
 _atom_site_hle17_bader_spin_density
 _atom_site_hle17_ddec_charge
 _atom_site_hle17_ddec_spin_density
 _atom_site_hle17_ddec_sum_bond_order
 _atom_site_hle17_magmom
 _atom_site_hse06_10hf_bader_spin_density
 _atom_site_hse06_10hf_ddec_charge
 _atom_site_hse06_10hf_ddec_spin_density
 _atom_site_hse06_10hf_ddec_sum_bond_order
 _atom_site_hse06_10hf_magmom
 _atom_site_hse06_bader_spin_density
 _atom_site_hse06_ddec_charge
 _atom_site_hse06_ddec_spin_density
 _atom_site_hse06_ddec_sum_bond_order
 _atom_site_hse06_magmom
 _atom_site_pbe_bader_charge
 _atom_site_pbe_bader_spin_density
 _atom_site_pbe_cm5_charge
 _atom_site_pbe_ddec_charge
 _atom_site_pbe_ddec_spin_density
 _atom_site_pbe_ddec_sum_bond_order
 _atom_site_pbe_magmom
Zn  Zn0  1  0.50000135  0.50000033  0.50000098  1  0  1.039714  0  1.751217  0  0  0.864505  0  2.178199  0  0  0.912349  0  2.12728  0  1.300301  0  0.664656  0.831183  0  2.21296  0
Zn  Zn1  1  0.50000098  0.00000210  0.00000066  1  0  1.03965  0  1.742887  0  0  0.864251  0  2.168863  0  0  0.912449  0  2.117852  0  1.30555  0  0.662345  0.830624  0  2.203617  0
H  H2  1  0.33013310  0.18469420  0.86511961  1  0  0.140391  0  0.944709  0  0  0.158614  0  1.005467  0  0  0.161471  0  1.00368  0  0.087094  0  0.099304  0.156492  0  1.006782  0
H  H3  1  0.81747654  0.46604516  0.63503496  1  0  0.141879  0  0.943846  0  0  0.160934  0  1.003503  0  0  0.163697  0  1.001847  0  0.095306  0  0.10051  0.15892  0  1.004692  0
H  H4  1  0.66986715  0.81530541  0.13487937  1  0  0.140392  0  0.944717  0  0  0.158619  0  1.005465  0  0  0.161476  0  1.003678  0  0.08707  0  0.099294  0.156498  0  1.006779  0
H  H5  1  0.18252391  0.53395655  0.36496437  1  0  0.141893  0  0.943802  0  0  0.160953  0  1.003457  0  0  0.163715  0  1.001802  0  0.095264  0  0.100509  0.158939  0  1.004646  0
H  H6  1  0.27847163  0.26081736  0.76527907  1  0  0.127248  0  0.986189  0  0  0.141515  0  1.057932  0  0  0.143865  0  1.056547  0  0.088207  0  0.087797  0.139751  0  1.059033  0
H  H7  1  0.99654609  0.51512875  0.73398874  1  0  0.127523  0  0.988174  0  0  0.141786  0  1.059635  0  0  0.144154  0  1.058238  0  0.100131  0  0.088366  0.140016  0  1.060727  0
H  H8  1  0.72152655  0.73918015  0.23472056  1  0  0.127276  0  0.986209  0  0  0.141535  0  1.05795  0  0  0.143885  0  1.056563  0  0.088187  0  0.087807  0.139774  0  1.059046  0
H  H9  1  0.00345436  0.48487296  0.26601133  1  0  0.127524  0  0.988134  0  0  0.141822  0  1.059563  0  0  0.14419  0  1.058164  0  0.100022  0  0.088381  0.140052  0  1.060654  0
H  H10  1  0.43469800  0.24578032  0.78967750  1  0  0.141314  0  0.944489  0  0  0.155187  0  1.014117  0  0  0.157636  0  1.013143  0  0.098847  0  0.097768  0.153316  0  1.014965  0
H  H11  1  0.95597270  0.64523755  0.71155095  1  0  0.141909  0  0.941597  0  0  0.156813  0  1.009514  0  0  0.159288  0  1.008486  0  0.074041  0  0.098132  0.154966  0  1.010353  0
H  H12  1  0.56530018  0.75421719  0.21032065  1  0  0.141321  0  0.944478  0  0  0.155198  0  1.014098  0  0  0.157647  0  1.013123  0  0.098839  0  0.097763  0.153328  0  1.014946  0
H  H13  1  0.04402681  0.35476417  0.28844666  1  0  0.14192  0  0.941601  0  0  0.156829  0  1.009511  0  0  0.159304  0  1.008484  0  0.074098  0  0.098151  0.154982  0  1.010351  0
H  H14  1  0.84755801  0.47989633  0.34579289  1  0  0.135923  0  0.916343  0  0  0.153995  0  0.967576  0  0  0.156187  0  0.966723  0  0.086448  0  0.112836  0.152382  0  0.968357  0
H  H15  1  0.63151810  0.49824832  0.15342952  1  0  0.135999  0  0.915994  0  0  0.154188  0  0.967044  0  0  0.1564  0  0.966198  0  0.097418  0  0.112428  0.152576  0  0.967826  0
H  H16  1  0.15243960  0.52010013  0.65420718  1  0  0.135894  0  0.916304  0  0  0.153983  0  0.967511  0  0  0.156185  0  0.966663  0  0.086654  0  0.112832  0.15237  0  0.968293  0
H  H17  1  0.36847822  0.50175444  0.84656820  1  0  0.136016  0  0.915998  0  0  0.154173  0  0.967076  0  0  0.156386  0  0.966234  0  0.097554  0  0.112413  0.15256  0  0.967858  0
H  H18  1  0.94043635  0.55310892  0.49325816  1  0  0.129405  0  0.944691  0  0  0.14162  0  1.006245  0  0  0.144268  0  1.00467  0  0.126153  0  0.108356  0.139773  0  1.007406  0
H  H19  1  0.55651105  0.44201699  0.00601575  1  0  0.131035  0  0.94391  0  0  0.14279  0  1.006153  0  0  0.145437  0  1.004669  0  0.103703  0  0.109455  0.14093  0  1.007319  0
H  H20  1  0.05956013  0.44688544  0.50674132  1  0  0.129421  0  0.944626  0  0  0.141593  0  1.006237  0  0  0.144267  0  1.004647  0  0.126394  0  0.10836  0.139746  0  1.007399  0
H  H21  1  0.44349127  0.55797947  0.99398106  1  0  0.13101  0  0.943947  0  0  0.142769  0  1.006173  0  0  0.145418  0  1.004686  0  0.103516  0  0.109458  0.140909  0  1.007339  0
H  H22  1  0.48176689  0.41530409  0.26677855  1  0  0.072121  0  0.957175  0  0  0.081212  0  1.022767  0  0  0.083345  0  1.020741  0  0.099415  0  0.113408  0.079512  0  1.024387  0
H  H23  1  0.64621482  0.21526090  0.23419772  1  0  0.071775  0  0.956101  0  0  0.081102  0  1.021297  0  0  0.083231  0  1.019272  0  0.08438  0  0.113023  0.079442  0  1.022859  0
H  H24  1  0.51823807  0.58469552  0.73322233  1  0  0.072178  0  0.95716  0  0  0.081264  0  1.022752  0  0  0.083384  0  1.020751  0  0.099384  0  0.113447  0.07957  0  1.024358  0
H  H25  1  0.35377772  0.78473662  0.76579903  1  0  0.071777  0  0.956075  0  0  0.0811  0  1.021276  0  0  0.083225  0  1.019252  0  0.084306  0  0.11302  0.079439  0  1.02284  0
H  H26  1  0.32095074  0.21453929  0.08676192  1  0  0.12245  0  0.937098  0  0  0.133359  0  0.995156  0  0  0.136939  0  0.993976  0  0.122771  0  0.108824  0.130651  0  0.996317  0
H  H27  1  0.62706909  0.23334084  0.41404257  1  0  0.121941  0  0.934959  0  0  0.132626  0  0.993601  0  0  0.136274  0  0.992326  0  0.123193  0  0.108333  0.129937  0  0.994736  0
H  H28  1  0.67905197  0.78546137  0.91323781  1  0  0.122396  0  0.937152  0  0  0.133354  0  0.995148  0  0  0.136924  0  0.993979  0  0.122911  0  0.108829  0.130651  0  0.996301  0
H  H29  1  0.37292496  0.76665772  0.58595396  1  0  0.121935  0  0.934894  0  0  0.132591  0  0.993582  0  0  0.136236  0  0.992307  0  0.12314  0  0.10833  0.129903  0  0.994716  0
H  H30  1  0.20885413  0.22444529  0.41121228  1  0  0.074674  0  0.960264  0  0  0.081471  0  1.028793  0  0  0.083272  0  1.027575  0  0.111825  0  0.112605  0.080104  0  1.0297  0
H  H31  1  0.31275457  0.79746285  0.08834032  1  0  0.073587  0  0.963133  0  0  0.079976  0  1.032515  0  0  0.081884  0  1.031184  0  0.096672  0  0.111325  0.078516  0  1.033536  0
H  H32  1  0.79115402  0.77555327  0.58878998  1  0  0.074578  0  0.960387  0  0  0.081495  0  1.028789  0  0  0.083296  0  1.027571  0  0.111834  0  0.112656  0.080132  0  1.029682  0
H  H33  1  0.68724267  0.20253466  0.91165833  1  0  0.07357  0  0.963141  0  0  0.079954  0  1.032542  0  0  0.081861  0  1.031212  0  0.096635  0  0.111287  0.078495  0  1.03356  0
H  H34  1  0.03204276  0.01961138  0.23596407  1  0  0.106864  0  0.953648  0  0  0.11652  0  1.014689  0  0  0.11955  0  1.014273  0  0.073174  0  0.103049  0.114326  0  1.01509  0
H  H35  1  0.28457134  0.79508692  0.26321509  1  0  0.107361  0  0.95326  0  0  0.116792  0  1.014686  0  0  0.119892  0  1.01422  0  0.084098  0  0.103415  0.114593  0  1.015084  0
H  H36  1  0.96796276  0.98038928  0.76403784  1  0  0.106857  0  0.953646  0  0  0.116532  0  1.014657  0  0  0.119551  0  1.014251  0  0.073119  0  0.103056  0.11435  0  1.015046  0
H  H37  1  0.71542383  0.20490849  0.73678422  1  0  0.107363  0  0.953198  0  0  0.116796  0  1.014627  0  0  0.119896  0  1.014161  0  0.084166  0  0.103408  0.114596  0  1.015027  0
H  H38  1  0.11150780  0.95633066  0.99282872  1  0  0.097739  0  0.951486  0  0  0.111902  0  1.01505  0  0  0.113993  0  1.013707  0  0.098782  0  0.092171  0.110281  0  1.01617  0
H  H39  1  0.46361525  0.11769138  0.50732082  1  0  0.096026  0  0.952661  0  0  0.110336  0  1.016138  0  0  0.112467  0  1.014738  0  0.103474  0  0.091966  0.108664  0  1.017307  0
H  H40  1  0.88849490  0.04367000  0.00717323  1  0  0.09774  0  0.951501  0  0  0.111887  0  1.015085  0  0  0.113978  0  1.013743  0  0.098797  0  0.092173  0.110267  0  1.016203  0
H  H41  1  0.53638200  0.88230614  0.49267709  1  0  0.096064  0  0.952628  0  0  0.110366  0  1.01607  0  0  0.112499  0  1.014671  0  0.103451  0  0.091965  0.108696  0  1.017241  0
H  H42  1  0.98626086  0.88766720  0.05227457  1  0  0.065167  0  0.962728  0  0  0.078358  0  1.033106  0  0  0.079279  0  1.033069  0  0.041433  0  0.082784  0.077767  0  1.032967  0
H  H43  1  0.33312860  0.93425932  0.44634771  1  0  0.063677  0  0.967984  0  0  0.076844  0  1.038886  0  0  0.077771  0  1.038848  0  0.039386  0  0.08139  0.076184  0  1.03883  0
H  H44  1  0.01374261  0.11233661  0.94772729  1  0  0.065138  0  0.962727  0  0  0.078325  0  1.033123  0  0  0.079245  0  1.033086  0  0.041403  0  0.082769  0.077734  0  1.032985  0
H  H45  1  0.66687035  0.06574134  0.55365256  1  0  0.063703  0  0.967986  0  0  0.076853  0  1.038883  0  0  0.077779  0  1.038845  0  0.039391  0  0.081399  0.07619  0  1.03883  0
H  H46  1  0.42225488  0.61913176  0.34973153  1  0  0.380209  0  0.939708  0  0  0.339483  0  1.022764  0  0  0.350314  0  1.007483  0  0.627962  0  0.27759  0.331962  0  1.033341  0
H  H47  1  0.77033930  0.07408124  0.15168158  1  0  0.383856  0  0.933789  0  0  0.34294  0  1.017249  0  0  0.353855  0  1.00186  0  0.641232  0  0.279332  0.335351  0  1.027915  0
H  H48  1  0.57774350  0.38086785  0.65026919  1  0  0.380208  0  0.939723  0  0  0.339487  0  1.022761  0  0  0.350318  0  1.007479  0  0.627963  0  0.277603  0.331966  0  1.033338  0
H  H49  1  0.22966172  0.92592152  0.84831952  1  0  0.383851  0  0.933825  0  0  0.342934  0  1.017266  0  0  0.353848  0  1.001877  0  0.641228  0  0.279316  0.335345  0  1.027931  0
H  H50  1  0.59009141  0.66307696  0.40126218  1  0  0.39591  0  0.928439  0  0  0.364083  0  0.995574  0  0  0.375711  0  0.978786  0  0.639758  0  0.27502  0.355867  0  1.007429  0
H  H51  1  0.76360926  0.18998069  0.10119808  1  0  0.396535  0  0.926777  0  0  0.364988  0  0.993377  0  0  0.376618  0  0.976594  0  0.630975  0  0.275935  0.35676  0  1.005249  0
H  H52  1  0.40990696  0.33692265  0.59874002  1  0  0.395894  0  0.928454  0  0  0.364039  0  0.995616  0  0  0.375666  0  0.978829  0  0.639824  0  0.275018  0.355824  0  1.007469  0
H  H53  1  0.23639591  0.81002627  0.89880615  1  0  0.396592  0  0.926717  0  0  0.365046  0  0.993311  0  0  0.376673  0  0.976532  0  0.631079  0  0.27595  0.356818  0  1.005184  0
C  C54  1  0.32283994  0.19380823  0.78457121  1  0  -0.377605  0  3.713398  0  0  -0.457313  0  3.956344  0  0  -0.461695  0  3.962172  0  -0.065837  0  -0.245005  -0.453939  0  3.952371  0
C  C55  1  0.90894331  0.53936699  0.71567044  1  0  -0.379302  0  3.711754  0  0  -0.460183  0  3.953885  0  0  -0.464579  0  3.95967  0  -0.054458  0  -0.246283  -0.456839  0  3.949909  0
C  C56  1  0.67715918  0.80618928  0.21542717  1  0  -0.377622  0  3.713317  0  0  -0.457307  0  3.956267  0  0  -0.461686  0  3.962093  0  -0.065808  0  -0.244951  -0.453933  0  3.952291  0
C  C57  1  0.09105620  0.46063473  0.28432866  1  0  -0.379324  0  3.711693  0  0  -0.460228  0  3.953791  0  0  -0.464624  0  3.959577  0  -0.054482  0  -0.24631  -0.456883  0  3.949815  0
C  C58  1  0.22850635  0.05261177  0.69705692  1  0  0.241382  0  3.688673  0  0  0.236943  0  3.974233  0  0  0.248265  0  3.989211  0  0.454799  0  0.135719  0.229235  0  3.963937  0
C  C59  1  0.85567097  0.53196506  0.80344220  1  0  0.241464  0  3.687666  0  0  0.237562  0  3.972863  0  0  0.248887  0  3.987801  0  0.455424  0  0.13582  0.229871  0  3.962578  0
C  C60  1  0.77149183  0.94738574  0.30294123  1  0  0.241387  0  3.688536  0  0  0.236912  0  3.974154  0  0  0.248235  0  3.98913  0  0.454765  0  0.135714  0.229206  0  3.963856  0
C  C61  1  0.14432798  0.46803560  0.19655660  1  0  0.241467  0  3.687672  0  0  0.237573  0  3.972872  0  0  0.248898  0  3.987811  0  0.455545  0  0.135818  0.229883  0  3.962585  0
C  C62  1  0.09291337  0.84396779  0.53460115  1  0  0.05961  0  3.845889  0  0  0.053246  0  4.167534  0  0  0.063045  0  4.182373  0  0.32851  0  0.111209  0.046518  0  4.157364  0
C  C63  1  0.80927119  0.55620645  0.96587851  1  0  0.05872  0  3.847134  0  0  0.052668  0  4.168572  0  0  0.062502  0  4.183353  0  0.31631  0  0.111443  0.045873  0  4.15856  0
C  C64  1  0.90708519  0.15602867  0.46539842  1  0  0.059637  0  3.845893  0  0  0.053245  0  4.167575  0  0  0.063046  0  4.18241  0  0.328463  0  0.111181  0.046516  0  4.157408  0
C  C65  1  0.19072813  0.44379316  0.03412097  1  0  0.05869  0  3.847189  0  0  0.05265  0  4.168607  0  0  0.062481  0  4.183392  0  0.316258  0  0.111438  0.045855  0  4.158595  0
C  C66  1  0.88604709  0.56941375  0.41936267  1  0  -0.288792  0  3.595658  0  0  -0.324759  0  3.855129  0  0  -0.328222  0  3.858695  0  -0.158183  0  -0.145799  -0.322476  0  3.852689  0
C  C67  1  0.64794150  0.46257685  0.08018471  1  0  -0.29126  0  3.594355  0  0  -0.32657  0  3.853271  0  0  -0.33017  0  3.857056  0  -0.14716  0  -0.146599  -0.324279  0  3.850736  0
C  C68  1  0.11395052  0.43058271  0.58063814  1  0  -0.288611  0  3.595423  0  0  -0.324593  0  3.854924  0  0  -0.328119  0  3.858552  0  -0.158856  0  -0.145777  -0.322312  0  3.852485  0
C  C69  1  0.35206159  0.53742801  0.91981648  1  0  -0.291274  0  3.59441  0  0  -0.326549  0  3.853298  0  0  -0.330139  0  3.857058  0  -0.147256  0  -0.146576  -0.324256  0  3.850762  0
C  C70  1  0.75415591  0.57819481  0.42402109  1  0  0.686609  0  3.88832  0  0  0.636659  0  4.195871  0  0  0.669438  0  4.189714  0  1.608187  0  0.199684  0.614523  0  4.199031  0
C  C71  1  0.65252704  0.32776031  0.07580486  1  0  0.691233  0  3.887518  0  0  0.641089  0  4.195088  0  0  0.67393  0  4.188881  0  1.601534  0  0.202707  0.618924  0  4.198247  0
C  C72  1  0.24584170  0.42180166  0.57597972  1  0  0.686444  0  3.888528  0  0  0.636517  0  4.196028  0  0  0.669307  0  4.189875  0  1.608167  0  0.199643  0.614382  0  4.199187  0
C  C73  1  0.34747907  0.67224665  0.92419886  1  0  0.691177  0  3.887645  0  0  0.641062  0  4.195174  0  0  0.673904  0  4.188973  0  1.601653  0  0.202617  0.618896  0  4.198334  0
C  C74  1  0.38136709  0.32461132  0.25652025  1  0  0.134136  0  3.720713  0  0  0.099771  0  3.978157  0  0  0.107217  0  3.997525  0  0.516563  0  0.04383  0.094999  0  3.96497  0
C  C75  1  0.56643671  0.12465320  0.24394614  1  0  0.135716  0  3.723742  0  0  0.10138  0  3.981877  0  0  0.10891  0  4.001101  0  0.483126  0  0.044242  0.096545  0  3.968804  0
C  C76  1  0.61863900  0.67539040  0.74348048  1  0  0.134093  0  3.720828  0  0  0.09975  0  3.978287  0  0  0.107199  0  3.997655  0  0.51668  0  0.043821  0.094985  0  3.965108  0
C  C77  1  0.43355546  0.87534536  0.75605067  1  0  0.135734  0  3.723659  0  0  0.101421  0  3.981787  0  0  0.108948  0  4.001003  0  0.483326  0  0.044262  0.096586  0  3.968714  0
C  C78  1  0.28979298  0.21337234  0.15579871  1  0  -0.16953  0  3.680309  0  0  -0.188317  0  3.931397  0  0  -0.197289  0  3.953686  0  -0.077111  0  -0.08578  -0.182456  0  3.916344  0
C  C79  1  0.55681242  0.13332292  0.34470807  1  0  -0.170315  0  3.67792  0  0  -0.189521  0  3.929309  0  0  -0.198498  0  3.951505  0  -0.074598  0  -0.08571  -0.183722  0  3.914344  0
C  C80  1  0.71021067  0.78662832  0.84420200  1  0  -0.169519  0  3.680308  0  0  -0.188347  0  3.931367  0  0  -0.19731  0  3.953657  0  -0.07726  0  -0.085821  -0.182491  0  3.916308  0
C  C81  1  0.44318012  0.86667459  0.65528867  1  0  -0.170336  0  3.677864  0  0  -0.189523  0  3.929252  0  0  -0.198495  0  3.951444  0  -0.074721  0  -0.085764  -0.183724  0  3.914288  0
C  C82  1  0.22928579  0.21901700  0.33726980  1  0  0.142411  0  3.707202  0  0  0.111888  0  3.956781  0  0  0.11955  0  3.975675  0  0.430758  0  0.044951  0.106997  0  3.943838  0
C  C83  1  0.38131960  0.89177938  0.16252841  1  0  0.139607  0  3.712259  0  0  0.109446  0  3.962399  0  0  0.116921  0  3.981426  0  0.437327  0  0.043679  0.104679  0  3.949475  0
C  C84  1  0.77072181  0.78098576  0.66273368  1  0  0.142447  0  3.707277  0  0  0.111816  0  3.956894  0  0  0.119478  0  3.975785  0  0.430531  0  0.044843  0.106932  0  3.943958  0
C  C85  1  0.61867539  0.10821918  0.83747058  1  0  0.139638  0  3.71221  0  0  0.109491  0  3.962358  0  0  0.116958  0  3.981381  0  0.436907  0  0.043701  0.104723  0  3.949437  0
C  C86  1  0.13140174  0.10458911  0.23928480  1  0  -0.17928  0  3.70775  0  0  -0.195856  0  3.951996  0  0  -0.204548  0  3.973545  0  0.00546  0  -0.088569  -0.19013  0  3.93738  0
C  C87  1  0.36564625  0.89142226  0.26045278  1  0  -0.179803  0  3.710575  0  0  -0.196733  0  3.954768  0  0  -0.205507  0  3.976408  0  0.029636  0  -0.090039  -0.19107  0  3.940129  0
C  C88  1  0.86860342  0.89541260  0.76071718  1  0  -0.17925  0  3.707807  0  0  -0.195832  0  3.952066  0  0  -0.204513  0  3.97362  0  0.005869  0  -0.088568  -0.190119  0  3.937444  0
C  C89  1  0.63434911  0.10857525  0.73954688  1  0  -0.179815  0  3.710523  0  0  -0.196751  0  3.954705  0  0  -0.205525  0  3.976347  0  0.029636  0  -0.090053  -0.191088  0  3.940069  0
C  C90  1  0.15986086  0.10030887  0.14525055  1  0  0.166357  0  3.712187  0  0  0.183404  0  3.946795  0  0  0.188809  0  3.969463  0  -0.021102  0  0.014107  0.179994  0  3.931187  0
C  C91  1  0.45523752  0.01380601  0.35492353  1  0  0.166153  0  3.711997  0  0  0.184121  0  3.945326  0  0  0.189475  0  3.968141  0  -0.028866  0  0.014586  0.180791  0  3.929576  0
C  C92  1  0.84014261  0.89969494  0.85474983  1  0  0.166308  0  3.712179  0  0  0.183382  0  3.946743  0  0  0.188787  0  3.969406  0  -0.021094  0  0.014113  0.179972  0  3.931138  0
C  C93  1  0.54475878  0.98619150  0.64507415  1  0  0.166186  0  3.712042  0  0  0.184153  0  3.945332  0  0  0.189507  0  3.968148  0  -0.02865  0  0.014639  0.180823  0  3.929581  0
C  C94  1  0.05245270  0.98164027  0.03686154  1  0  -0.165543  0  3.689768  0  0  -0.204303  0  3.931752  0  0  -0.206528  0  3.943486  0  -0.038969  0  -0.161825  -0.20255  0  3.923405  0
C  C95  1  0.44451628  0.01523450  0.46293531  1  0  -0.163008  0  3.690945  0  0  -0.201819  0  3.931467  0  0  -0.204104  0  3.943438  0  -0.039814  0  -0.160968  -0.199962  0  3.922972  0
C  C96  1  0.94754963  0.01836144  0.96313973  1  0  -0.165473  0  3.689797  0  0  -0.20426  0  3.931814  0  0  -0.206482  0  3.943544  0  -0.059975  0  -0.161812  -0.202507  0  3.923465  0
C  C97  1  0.55548153  0.98476406  0.53706290  1  0  -0.163144  0  3.690987  0  0  -0.20188  0  3.931443  0  0  -0.204166  0  3.943415  0  -0.056724  0  -0.160991  -0.200025  0  3.922953  0
S  S98  1  0.18852607  0.02240430  0.55770529  1  0  0.100932  0  2.483935  0  0  0.103175  0  2.806955  0  0  0.103066  0  2.807597  0  0.258722  0  0.128149  0.102645  0  2.806955  0
S  S99  1  0.96640527  0.63134646  0.94320211  1  0  0.100054  0  2.486094  0  0  0.101436  0  2.810117  0  0  0.101399  0  2.810745  0  0.250951  0  0.126798  0.100872  0  2.810179  0
S  S100  1  0.81147061  0.97759216  0.44229381  1  0  0.100877  0  2.483805  0  0  0.103152  0  2.806841  0  0  0.103038  0  2.807491  0  0.258737  0  0.128128  0.102621  0  2.806842  0
S  S101  1  0.03359499  0.36865315  0.05679686  1  0  0.100084  0  2.486116  0  0  0.101461  0  2.810134  0  0  0.101424  0  2.810762  0  0.250938  0  0.126804  0.100897  0  2.810196  0
S  S102  1  0.01778413  0.72092375  0.40353843  1  0  0.049752  0  2.443069  0  0  0.039102  0  2.78809  0  0  0.035937  0  2.786034  0  0.148019  0  0.027146  0.04149  0  2.7896  0
S  S103  1  0.81766705  0.60973204  0.09729527  1  0  0.05041  0  2.441654  0  0  0.039281  0  2.78621  0  0  0.036144  0  2.784233  0  0.15541  0  0.026766  0.041806  0  2.787564  0
S  S104  1  0.98221329  0.27907061  0.59646128  1  0  0.049644  0  2.44307  0  0  0.039008  0  2.788099  0  0  0.035853  0  2.786078  0  0.148454  0  0.027111  0.041403  0  2.7896  0
S  S105  1  0.18233041  0.39027283  0.90270377  1  0  0.050425  0  2.441678  0  0  0.039292  0  2.786204  0  0  0.036156  0  2.784227  0  0.155464  0  0.026754  0.041818  0  2.787557  0
N  N106  1  0.16691288  0.93552817  0.71601086  1  0  -0.251683  0  3.126114  0  0  -0.204901  0  3.39238  0  0  -0.216815  0  3.407972  0  -0.748081  0  -0.208081  -0.196754  0  3.381715  0
N  N107  1  0.71813908  0.44985062  0.78411626  1  0  -0.250002  0  3.124371  0  0  -0.20338  0  3.390036  0  0  -0.215279  0  3.405535  0  -0.745653  0  -0.207224  -0.195173  0  3.379386  0
N  N108  1  0.83308587  0.06447040  0.28398832  1  0  -0.2516  0  3.125986  0  0  -0.204802  0  3.392261  0  0  -0.216715  0  3.407853  0  -0.748066  0  -0.208066  -0.196653  0  3.381594  0
N  N109  1  0.28186118  0.55014899  0.21588271  1  0  -0.250022  0  3.124422  0  0  -0.203404  0  3.390085  0  0  -0.215301  0  3.405585  0  -0.745641  0  -0.207219  -0.195196  0  3.379435  0
N  N110  1  0.08919213  0.81579488  0.62443442  1  0  -0.22364  0  3.03345  0  0  -0.207212  0  3.318179  0  0  -0.216193  0  3.334575  0  -0.692323  0  -0.224942  -0.201094  0  3.307132  0
N  N111  1  0.68976726  0.46218191  0.87557426  1  0  -0.222352  0  3.032206  0  0  -0.20545  0  3.316166  0  0  -0.214459  0  3.332485  0  -0.681446  0  -0.224626  -0.199318  0  3.305283  0
N  N112  1  0.91080794  0.18420263  0.37556715  1  0  -0.223678  0  3.033405  0  0  -0.207251  0  3.31815  0  0  -0.216233  0  3.334548  0  -0.692273  0  -0.224944  -0.201134  0  3.307104  0
N  N113  1  0.31023300  0.53781770  0.12442545  1  0  -0.222363  0  3.032229  0  0  -0.205457  0  3.316173  0  0  -0.214468  0  3.332493  0  -0.681445  0  -0.22464  -0.199324  0  3.305289  0
N  N114  1  0.35224226  0.32864262  0.34617013  1  0  -0.333232  0  3.279873  0  0  -0.250883  0  3.539268  0  0  -0.271036  0  3.557608  0  -1.242124  0  -0.326675  -0.237411  0  3.526736  0
N  N115  1  0.48101894  0.00615409  0.15385448  1  0  -0.331073  0  3.275045  0  0  -0.249731  0  3.534732  0  0  -0.269753  0  3.55307  0  -1.22095  0  -0.32365  -0.236407  0  3.522234  0
N  N116  1  0.64776326  0.67135804  0.65383252  1  0  -0.333162  0  3.27987  0  0  -0.250851  0  3.539334  0  0  -0.271003  0  3.557674  0  -1.242327  0  -0.326637  -0.237402  0  3.526824  0
N  N117  1  0.51897510  0.99384447  0.84614354  1  0  -0.331084  0  3.274927  0  0  -0.249788  0  3.534645  0  0  -0.269788  0  3.552957  0  -1.220438  0  -0.323641  -0.236463  0  3.522148  0
O  O118  1  0.72149275  0.65654683  0.37992191  1  0  -0.649018  0  2.019433  0  0  -0.593193  0  2.254937  0  0  -0.618953  0  2.247107  0  -1.197628  0  -0.325601  -0.575168  0  2.259745  0
O  O119  1  0.77704049  0.34044453  0.12038329  1  0  -0.651915  0  2.028914  0  0  -0.595621  0  2.265389  0  0  -0.621552  0  2.257687  0  -1.196645  0  -0.32534  -0.57742  0  2.270079  0
O  O120  1  0.27850487  0.34344963  0.62007890  1  0  -0.649045  0  2.019659  0  0  -0.593127  0  2.255066  0  0  -0.618888  0  2.247232  0  -1.197702  0  -0.32555  -0.5751  0  2.259864  0
O  O121  1  0.22296656  0.65956243  0.87961771  1  0  -0.651864  0  2.028861  0  0  -0.595548  0  2.265286  0  0  -0.62148  0  2.257589  0  -1.196709  0  -0.325262  -0.577347  0  2.269977  0
O  O122  1  0.68669408  0.50228278  0.47041902  1  0  -0.632252  0  1.994225  0  0  -0.56727  0  2.245674  0  0  -0.594754  0  2.236176  0  -1.17247  0  -0.312111  -0.547863  0  2.251234  0
O  O123  1  0.52882880  0.21399521  0.02936219  1  0  -0.633139  0  1.989763  0  0  -0.568446  0  2.240363  0  0  -0.596021  0  2.231176  0  -1.174841  0  -0.312964  -0.548966  0  2.245778  0
O  O124  1  0.31330504  0.49771474  0.52958380  1  0  -0.632208  0  1.994258  0  0  -0.567237  0  2.2457  0  0  -0.594715  0  2.236185  0  -1.172355  0  -0.312117  -0.547832  0  2.25126  0
O  O125  1  0.47117768  0.78601071  0.97064369  1  0  -0.633068  0  1.989752  0  0  -0.56849  0  2.240437  0  0  -0.596061  0  2.231243  0  -1.174983  0  -0.312963  -0.549009  0  2.245853  0
O  O126  1  0.50777586  0.65403961  0.42235382  1  0  -0.822008  0  1.940749  0  0  -0.762244  0  2.153653  0  0  -0.78376  0  2.119623  0  -1.280175  0  -0.58619  -0.74695  0  2.177208  0
O  O127  1  0.73356296  0.08756584  0.07969301  1  0  -0.821983  0  1.945446  0  0  -0.761296  0  2.159348  0  0  -0.782998  0  2.125076  0  -1.282275  0  -0.585456  -0.745783  0  2.183013  0
O  O128  1  0.49222252  0.34596000  0.57764764  1  0  -0.821961  0  1.940747  0  0  -0.762178  0  2.153691  0  0  -0.783692  0  2.119656  0  -1.280247  0  -0.586187  -0.746885  0  2.177244  0
O  O129  1  0.26643788  0.91244008  0.92030925  1  0  -0.822023  0  1.945478  0  0  -0.761342  0  2.159376  0  0  -0.783043  0  2.125106  0  -1.282364  0  -0.585452  -0.745821  0  2.183024  0
