# generated using pymatgen
data_NaH7C4O7
_symmetry_space_group_name_H-M   'P 1'
_cell_length_a   7.18866486
_cell_length_b   8.62602283
_cell_length_c   10.66170304
_cell_angle_alpha   90.00016672
_cell_angle_beta   90.00001072
_cell_angle_gamma   89.99979182
_symmetry_Int_Tables_number   1
_chemical_formula_structural   NaH7C4O7
_chemical_formula_sum   'Na4 H28 C16 O28'
_cell_volume   661.12780463
_cell_formula_units_Z   4
loop_
 _symmetry_equiv_pos_site_id
 _symmetry_equiv_pos_as_xyz
  1  'x, y, z'
loop_
 _atom_site_type_symbol
 _atom_site_label
 _atom_site_symmetry_multiplicity
 _atom_site_fract_x
 _atom_site_fract_y
 _atom_site_fract_z
 _atom_site_occupancy
 _atom_site_hle17_bader_spin_density
 _atom_site_hle17_ddec_charge
 _atom_site_hle17_ddec_spin_density
 _atom_site_hle17_ddec_sum_bond_order
 _atom_site_hle17_magmom
 _atom_site_hse06_10hf_bader_spin_density
 _atom_site_hse06_10hf_ddec_charge
 _atom_site_hse06_10hf_ddec_spin_density
 _atom_site_hse06_10hf_ddec_sum_bond_order
 _atom_site_hse06_10hf_magmom
 _atom_site_hse06_bader_spin_density
 _atom_site_hse06_ddec_charge
 _atom_site_hse06_ddec_spin_density
 _atom_site_hse06_ddec_sum_bond_order
 _atom_site_hse06_magmom
 _atom_site_pbe_bader_spin_density
 _atom_site_pbe_cm5_charge
 _atom_site_pbe_ddec_charge
 _atom_site_pbe_ddec_spin_density
 _atom_site_pbe_ddec_sum_bond_order
 _atom_site_pbe_magmom
Na  Na0  1  0.91213267  0.28986554  0.56548511  1  0  0.904142  0  0.345537  0  0  0.850059  0  0.502929  0  0  0.862089  0  0.480883  0  0  0.640757  0.840858  0  0.519283  0
Na  Na1  1  0.58786701  0.71013414  0.06548385  1  0  0.904143  0  0.345527  0  0  0.850061  0  0.502905  0  0  0.862094  0  0.480861  0  0  0.640748  0.840863  0  0.519262  0
Na  Na2  1  0.08786730  0.78986380  0.93451394  1  0  0.90415  0  0.345524  0  0  0.850057  0  0.50291  0  0  0.862092  0  0.480865  0  0  0.640747  0.840859  0  0.519267  0
Na  Na3  1  0.41213455  0.21013523  0.43451622  1  0  0.904144  0  0.345534  0  0  0.850062  0  0.50292  0  0  0.862091  0  0.480875  0  0  0.640754  0.840861  0  0.519275  0
H  H4  1  0.93860208  0.94178819  0.56597267  1  0  0.412951  0  0.886815  0  0  0.381524  0  0.957859  0  0  0.391508  0  0.943219  0  0  0.295146  0.374356  0  0.968393  0
H  H5  1  0.56139898  0.05821034  0.06597268  1  0  0.412963  0  0.886819  0  0  0.381533  0  0.957854  0  0  0.391518  0  0.943214  0  0  0.295144  0.374367  0  0.968386  0
H  H6  1  0.06139861  0.44178686  0.93402579  1  0  0.412926  0  0.88684  0  0  0.38149  0  0.957901  0  0  0.391475  0  0.943261  0  0  0.29514  0.374326  0  0.968431  0
H  H7  1  0.43860046  0.55821101  0.43402516  1  0  0.412944  0  0.886834  0  0  0.381506  0  0.957885  0  0  0.391492  0  0.943244  0  0  0.295142  0.374339  0  0.968419  0
H  H8  1  0.78569875  0.98718923  0.46228009  1  0  0.424726  0  0.878306  0  0  0.3941  0  0.942152  0  0  0.404694  0  0.926748  0  0  0.294528  0.386643  0  0.952955  0
H  H9  1  0.71430243  0.01280839  0.96227972  1  0  0.424716  0  0.878321  0  0  0.394075  0  0.942188  0  0  0.404671  0  0.92678  0  0  0.294521  0.386618  0  0.95299  0
H  H10  1  0.21430299  0.48718834  0.03771783  1  0  0.424718  0  0.878317  0  0  0.394091  0  0.942163  0  0  0.404687  0  0.926755  0  0  0.294535  0.386635  0  0.952965  0
H  H11  1  0.28569735  0.51281043  0.53771772  1  0  0.424707  0  0.878334  0  0  0.394077  0  0.942185  0  0  0.404673  0  0.926777  0  0  0.294527  0.38662  0  0.952987  0
H  H12  1  0.75932628  0.55925580  0.86109860  1  0  0.393151  0  0.825627  0  0  0.37558  0  0.885633  0  0  0.383673  0  0.876502  0  0  0.332168  0.369222  0  0.893084  0
H  H13  1  0.74067349  0.44074493  0.36109954  1  0  0.393161  0  0.825631  0  0  0.375588  0  0.885639  0  0  0.383679  0  0.876509  0  0  0.332181  0.369228  0  0.89309  0
H  H14  1  0.24067609  0.05925751  0.63890083  1  0  0.393187  0  0.825593  0  0  0.375613  0  0.885597  0  0  0.383705  0  0.876467  0  0  0.332183  0.369253  0  0.893049  0
H  H15  1  0.25932707  0.94074510  0.13890108  1  0  0.393138  0  0.825633  0  0  0.375561  0  0.885651  0  0  0.383653  0  0.876521  0  0  0.332157  0.369202  0  0.893103  0
H  H16  1  0.58843233  0.49904474  0.58564159  1  0  0.376638  0  0.924044  0  0  0.352673  0  0.993539  0  0  0.36301  0  0.982631  0  0  0.292759  0.34538  0  1.001147  0
H  H17  1  0.91156875  0.50095502  0.08564175  1  0  0.376638  0  0.924074  0  0  0.352677  0  0.993561  0  0  0.363013  0  0.982653  0  0  0.292779  0.345384  0  1.00117  0
H  H18  1  0.41156951  0.99904426  0.91435701  1  0  0.376658  0  0.924044  0  0  0.352693  0  0.993535  0  0  0.363031  0  0.982626  0  0  0.292773  0.345399  0  1.001144  0
H  H19  1  0.08843233  0.00095585  0.41435876  1  0  0.376601  0  0.924174  0  0  0.352701  0  0.993551  0  0  0.363038  0  0.982643  0  0  0.292795  0.345407  0  1.001159  0
H  H20  1  0.27033230  0.78808354  0.66078469  1  0  0.391075  0  0.907136  0  0  0.355753  0  0.99279  0  0  0.369423  0  0.978457  0  0  0.299701  0.346149  0  1.002857  0
H  H21  1  0.22966947  0.21191568  0.16078696  1  0  0.391259  0  0.907028  0  0  0.355954  0  0.992632  0  0  0.369622  0  0.978302  0  0  0.299773  0.346352  0  1.002701  0
H  H22  1  0.72966350  0.28808448  0.83921434  1  0  0.391169  0  0.907003  0  0  0.355811  0  0.992715  0  0  0.369483  0  0.978378  0  0  0.29973  0.346211  0  1.002781  0
H  H23  1  0.77033347  0.71191501  0.33921406  1  0  0.391134  0  0.907075  0  0  0.355757  0  0.992806  0  0  0.369427  0  0.978475  0  0  0.299691  0.346154  0  1.002873  0
H  H24  1  0.75099165  0.86019501  0.75453437  1  0  0.10046  0  0.910503  0  0  0.108398  0  0.9692  0  0  0.110809  0  0.967868  0  0  0.130615  0.106303  0  0.970897  0
H  H25  1  0.74900947  0.13980535  0.25453459  1  0  0.100444  0  0.91052  0  0  0.108428  0  0.969198  0  0  0.110838  0  0.967867  0  0  0.130627  0.106332  0  0.970896  0
H  H26  1  0.24900244  0.36019591  0.74546671  1  0  0.100439  0  0.910524  0  0  0.108387  0  0.969201  0  0  0.110798  0  0.967868  0  0  0.130607  0.10629  0  0.970903  0
H  H27  1  0.25099518  0.63980476  0.24546531  1  0  0.100458  0  0.910518  0  0  0.108386  0  0.969226  0  0  0.110797  0  0.967893  0  0  0.130607  0.10629  0  0.970927  0
H  H28  1  0.72778872  0.72578512  0.55481096  1  0  0.072271  0  0.945275  0  0  0.079388  0  1.011076  0  0  0.081442  0  1.009888  0  0  0.116349  0.077881  0  1.012065  0
H  H29  1  0.77221235  0.27421337  0.05481150  1  0  0.072274  0  0.945277  0  0  0.079396  0  1.011083  0  0  0.08145  0  1.009896  0  0  0.116355  0.077891  0  1.01207  0
H  H30  1  0.27220874  0.22578435  0.94518887  1  0  0.072276  0  0.945291  0  0  0.079409  0  1.011051  0  0  0.081462  0  1.009864  0  0  0.11635  0.077901  0  1.012042  0
H  H31  1  0.22779172  0.77421472  0.44518779  1  0  0.072295  0  0.945271  0  0  0.079415  0  1.011061  0  0  0.081468  0  1.009874  0  0  0.116358  0.077908  0  1.01205  0
C  C32  1  0.49296765  0.73613939  0.76039444  1  0  0.655159  0  3.774309  0  0  0.606533  0  4.077441  0  0  0.638466  0  4.068349  0  0  0.230602  0.584836  0  4.082901  0
C  C33  1  0.00703415  0.26386365  0.26039868  1  0  0.655171  0  3.774381  0  0  0.606558  0  4.077547  0  0  0.63849  0  4.068454  0  0  0.230543  0.584865  0  4.083001  0
C  C34  1  0.50702698  0.23614298  0.73960636  1  0  0.655075  0  3.774583  0  0  0.606477  0  4.077669  0  0  0.638407  0  4.068576  0  0  0.230532  0.584782  0  4.083124  0
C  C35  1  0.99296718  0.76386080  0.23960434  1  0  0.655236  0  3.774332  0  0  0.606594  0  4.077462  0  0  0.638522  0  4.068368  0  0  0.230552  0.584909  0  4.082903  0
C  C36  1  0.70563857  0.73839271  0.75506697  1  0  0.048597  0  3.63709  0  0  0.022564  0  3.887045  0  0  0.023548  0  3.893766  0  0  -0.004952  0.021872  0  3.882618  0
C  C37  1  0.79436116  0.26160881  0.25506937  1  0  0.04863  0  3.636955  0  0  0.022491  0  3.887057  0  0  0.023476  0  3.893779  0  0  -0.004981  0.021799  0  3.882628  0
C  C38  1  0.29435606  0.23839464  0.74493195  1  0  0.048596  0  3.637245  0  0  0.022569  0  3.887135  0  0  0.023556  0  3.893855  0  0  -0.004957  0.021875  0  3.882707  0
C  C39  1  0.20564157  0.76160720  0.24493271  1  0  0.048548  0  3.637168  0  0  0.022546  0  3.887065  0  0  0.023533  0  3.893787  0  0  -0.004955  0.02185  0  3.882635  0
C  C40  1  0.99050247  0.65949475  0.63162602  1  0  0.656493  0  3.837219  0  0  0.597027  0  4.155023  0  0  0.630142  0  4.145231  0  0  0.217667  0.57441  0  4.160896  0
C  C41  1  0.50949862  0.34050285  0.13162669  1  0  0.656525  0  3.837315  0  0  0.597122  0  4.155068  0  0  0.630238  0  4.145274  0  0  0.217696  0.574505  0  4.160944  0
C  C42  1  0.00949389  0.15949334  0.86837365  1  0  0.656577  0  3.837007  0  0  0.597043  0  4.154893  0  0  0.630161  0  4.145096  0  0  0.217737  0.574434  0  4.160764  0
C  C43  1  0.49050516  0.84050545  0.36837276  1  0  0.656569  0  3.837198  0  0  0.59707  0  4.155054  0  0  0.63019  0  4.145258  0  0  0.217702  0.574454  0  4.160926  0
C  C44  1  0.77693013  0.65750459  0.63564506  1  0  0.052704  0  3.684457  0  0  0.027501  0  3.937411  0  0  0.028927  0  3.944175  0  0  -0.012018  0.02643  0  3.932707  0
C  C45  1  0.72307096  0.34249418  0.13564670  1  0  0.052683  0  3.684466  0  0  0.027453  0  3.937498  0  0  0.028879  0  3.944262  0  0  -0.012026  0.026382  0  3.932796  0
C  C46  1  0.22306624  0.15750484  0.86435461  1  0  0.052692  0  3.684387  0  0  0.027497  0  3.937339  0  0  0.028924  0  3.944103  0  0  -0.012038  0.026428  0  3.932631  0
C  C47  1  0.27693142  0.84249626  0.36435463  1  0  0.052653  0  3.684455  0  0  0.02744  0  3.937433  0  0  0.028867  0  3.944196  0  0  -0.012057  0.026369  0  3.932729  0
O  O48  1  0.78358089  0.67075095  0.86538417  1  0  -0.579478  0  2.083076  0  0  -0.53744  0  2.313221  0  0  -0.549616  0  2.300404  0  0  -0.442213  -0.528666  0  2.32293  0
O  O49  1  0.71641749  0.32925095  0.36538578  1  0  -0.579472  0  2.083017  0  0  -0.537438  0  2.313245  0  0  -0.549613  0  2.300429  0  0  -0.442219  -0.528664  0  2.322953  0
O  O50  1  0.21641682  0.17075157  0.63461459  1  0  -0.579486  0  2.083053  0  0  -0.537471  0  2.31324  0  0  -0.549646  0  2.300422  0  0  -0.442204  -0.528695  0  2.322945  0
O  O51  1  0.28358077  0.82924988  0.13461552  1  0  -0.579441  0  2.083135  0  0  -0.537414  0  2.313273  0  0  -0.549592  0  2.30046  0  0  -0.44218  -0.52864  0  2.322983  0
O  O52  1  0.07736655  0.53592930  0.61115347  1  0  -0.627313  0  1.992753  0  0  -0.575345  0  2.230797  0  0  -0.59777  0  2.218685  0  0  -0.335779  -0.559267  0  2.239049  0
O  O53  1  0.42263381  0.46406626  0.11115168  1  0  -0.627329  0  1.99272  0  0  -0.575375  0  2.230732  0  0  -0.5978  0  2.218616  0  0  -0.335797  -0.559298  0  2.238986  0
O  O54  1  0.92263313  0.03592868  0.88884590  1  0  -0.627351  0  1.992726  0  0  -0.575294  0  2.230726  0  0  -0.59772  0  2.21861  0  0  -0.335775  -0.559217  0  2.238977  0
O  O55  1  0.57736803  0.96407216  0.38884619  1  0  -0.627334  0  1.992667  0  0  -0.575367  0  2.230734  0  0  -0.597791  0  2.21862  0  0  -0.335795  -0.55929  0  2.238986  0
O  O56  1  0.40700049  0.68683307  0.85224461  1  0  -0.602408  0  1.954307  0  0  -0.566564  0  2.190218  0  0  -0.585364  0  2.179809  0  0  -0.332652  -0.553592  0  2.197337  0
O  O57  1  0.09299577  0.31317030  0.35224711  1  0  -0.602455  0  1.954572  0  0  -0.566574  0  2.190447  0  0  -0.585372  0  2.180044  0  0  -0.332636  -0.553602  0  2.197564  0
O  O58  1  0.59299436  0.18684071  0.64775325  1  0  -0.602412  0  1.954415  0  0  -0.566531  0  2.190254  0  0  -0.585342  0  2.179871  0  0  -0.332637  -0.553557  0  2.19737  0
O  O59  1  0.90700395  0.81316275  0.14775884  1  0  -0.602433  0  1.95444  0  0  -0.566559  0  2.190311  0  0  -0.585375  0  2.179949  0  0  -0.332606  -0.553591  0  2.197424  0
O  O60  1  0.90528218  0.02017220  0.50184204  1  0  -0.854415  0  1.889093  0  0  -0.803597  0  2.072453  0  0  -0.822894  0  2.042325  0  0  -0.621916  -0.789748  0  2.09353  0
O  O61  1  0.59471748  0.97982725  0.00184050  1  0  -0.854424  0  1.889049  0  0  -0.803583  0  2.072434  0  0  -0.822882  0  2.042308  0  0  -0.621919  -0.789734  0  2.093513  0
O  O62  1  0.09471896  0.52017067  0.99815636  1  0  -0.854389  0  1.889078  0  0  -0.803536  0  2.07245  0  0  -0.822836  0  2.042322  0  0  -0.62192  -0.789686  0  2.093523  0
O  O63  1  0.40528152  0.47982859  0.49815741  1  0  -0.854407  0  1.889091  0  0  -0.803547  0  2.07246  0  0  -0.822846  0  2.04233  0  0  -0.621915  -0.789698  0  2.093537  0
O  O64  1  0.41673361  0.79283405  0.65752257  1  0  -0.557288  0  2.125895  0  0  -0.508184  0  2.362067  0  0  -0.531273  0  2.347649  0  0  -0.330117  -0.492055  0  2.37165  0
O  O65  1  0.08326816  0.20716631  0.15752574  1  0  -0.557432  0  2.125793  0  0  -0.508334  0  2.361973  0  0  -0.531421  0  2.347547  0  0  -0.330154  -0.492209  0  2.371562  0
O  O66  1  0.58326356  0.29283661  0.84247742  1  0  -0.557297  0  2.125919  0  0  -0.508223  0  2.362143  0  0  -0.531313  0  2.347727  0  0  -0.330109  -0.492092  0  2.371722  0
O  O67  1  0.91673480  0.70716637  0.34247902  1  0  -0.557373  0  2.125853  0  0  -0.508226  0  2.362058  0  0  -0.531316  0  2.347643  0  0  -0.330098  -0.492101  0  2.371636  0
O  O68  1  0.71356126  0.50284475  0.62863567  1  0  -0.610121  0  2.153159  0  0  -0.564786  0  2.391107  0  0  -0.58026  0  2.380212  0  0  -0.453296  -0.553825  0  2.398666  0
O  O69  1  0.78643982  0.49715399  0.12863581  1  0  -0.610127  0  2.153225  0  0  -0.564774  0  2.39116  0  0  -0.580249  0  2.380268  0  0  -0.453299  -0.553813  0  2.39872  0
O  O70  1  0.28643857  0.00284484  0.87136269  1  0  -0.610152  0  2.153161  0  0  -0.564819  0  2.391094  0  0  -0.580297  0  2.380199  0  0  -0.453297  -0.553859  0  2.398655  0
O  O71  1  0.21356187  0.99715397  0.37136401  1  0  -0.610104  0  2.153282  0  0  -0.564798  0  2.391152  0  0  -0.580273  0  2.380256  0  0  -0.453321  -0.553838  0  2.398711  0
O  O72  1  0.06519267  0.79370751  0.64931560  1  0  -0.657296  0  2.034856  0  0  -0.595195  0  2.269228  0  0  -0.620561  0  2.257189  0  0  -0.317343  -0.577197  0  2.277625  0
O  O73  1  0.43480910  0.20629051  0.14931788  1  0  -0.657337  0  2.035002  0  0  -0.595267  0  2.269371  0  0  -0.620632  0  2.257331  0  0  -0.317337  -0.57727  0  2.277768  0
O  O74  1  0.93480311  0.29370556  0.85068251  1  0  -0.657422  0  2.034776  0  0  -0.595257  0  2.26915  0  0  -0.620621  0  2.257104  0  0  -0.317402  -0.577278  0  2.277562  0
O  O75  1  0.56519526  0.70629282  0.35068125  1  0  -0.657371  0  2.034959  0  0  -0.595192  0  2.269312  0  0  -0.620556  0  2.257271  0  0  -0.317356  -0.577197  0  2.277712  0
