# generated using pymatgen
data_CdH8C14N2O9
_symmetry_space_group_name_H-M   'P 1'
_cell_length_a   6.88116773
_cell_length_b   11.26082612
_cell_length_c   17.93398075
_cell_angle_alpha   89.99977764
_cell_angle_beta   90.00020357
_cell_angle_gamma   90.00009157
_symmetry_Int_Tables_number   1
_chemical_formula_structural   CdH8C14N2O9
_chemical_formula_sum   'Cd4 H32 C56 N8 O36'
_cell_volume   1389.66172389
_cell_formula_units_Z   4
loop_
 _symmetry_equiv_pos_site_id
 _symmetry_equiv_pos_as_xyz
  1  'x, y, z'
loop_
 _atom_site_type_symbol
 _atom_site_label
 _atom_site_symmetry_multiplicity
 _atom_site_fract_x
 _atom_site_fract_y
 _atom_site_fract_z
 _atom_site_occupancy
 _atom_site_hle17_bader_spin_density
 _atom_site_hle17_ddec_charge
 _atom_site_hle17_ddec_spin_density
 _atom_site_hle17_ddec_sum_bond_order
 _atom_site_hle17_magmom
 _atom_site_hse06_10hf_bader_spin_density
 _atom_site_hse06_10hf_ddec_charge
 _atom_site_hse06_10hf_ddec_spin_density
 _atom_site_hse06_10hf_ddec_sum_bond_order
 _atom_site_hse06_10hf_magmom
 _atom_site_hse06_bader_spin_density
 _atom_site_hse06_ddec_charge
 _atom_site_hse06_ddec_spin_density
 _atom_site_hse06_ddec_sum_bond_order
 _atom_site_hse06_magmom
 _atom_site_pbe_bader_spin_density
 _atom_site_pbe_cm5_charge
 _atom_site_pbe_ddec_charge
 _atom_site_pbe_ddec_spin_density
 _atom_site_pbe_ddec_sum_bond_order
 _atom_site_pbe_magmom
Cd  Cd0  1  0.67872058  0.18391042  0.59039008  1  0  1.194005  0  1.683362  0  0  1.007256  0  2.13397  0  0  1.061291  0  2.07994  0  0  0.795657  0.968536  0  2.171308  0
Cd  Cd1  1  0.32127979  0.81609187  0.09038797  1  0  1.194002  0  1.683434  0  0  1.00721  0  2.134125  0  0  1.061243  0  2.080094  0  0  0.795656  0.96849  0  2.171466  0
Cd  Cd2  1  0.17872196  0.81609292  0.59038953  1  0  1.194004  0  1.683358  0  0  1.007224  0  2.134017  0  0  1.061263  0  2.079984  0  0  0.795655  0.968506  0  2.171357  0
Cd  Cd3  1  0.82128277  0.18390848  0.09038965  1  0  1.193992  0  1.683389  0  0  1.007227  0  2.134028  0  0  1.061263  0  2.079997  0  0  0.795653  0.968509  0  2.171369  0
H  H4  1  0.32873469  0.25648063  0.51780018  1  0  0.437922  0  0.829405  0  0  0.409256  0  0.898248  0  0  0.41897  0  0.883897  0  0  0.307052  0.402288  0  0.908558  0
H  H5  1  0.67126647  0.74351944  0.01779929  1  0  0.437913  0  0.829373  0  0  0.409242  0  0.898259  0  0  0.418957  0  0.883908  0  0  0.307042  0.402273  0  0.908572  0
H  H6  1  0.82873185  0.74352064  0.51779882  1  0  0.437827  0  0.829496  0  0  0.409158  0  0.898373  0  0  0.418873  0  0.884022  0  0  0.306973  0.40219  0  0.908684  0
H  H7  1  0.17126640  0.25648032  0.01779786  1  0  0.437896  0  0.82942  0  0  0.409228  0  0.898277  0  0  0.418942  0  0.883926  0  0  0.307031  0.402261  0  0.908587  0
H  H8  1  0.29298342  0.12299389  0.54109799  1  0  0.433387  0  0.866459  0  0  0.400364  0  0.932692  0  0  0.411751  0  0.916191  0  0  0.29134  0.392292  0  0.944361  0
H  H9  1  0.70701795  0.87700693  0.04109794  1  0  0.43338  0  0.866463  0  0  0.400365  0  0.932696  0  0  0.411754  0  0.916193  0  0  0.291346  0.392293  0  0.944364  0
H  H10  1  0.79298238  0.87700809  0.54109798  1  0  0.433378  0  0.866465  0  0  0.400359  0  0.932704  0  0  0.411748  0  0.916201  0  0  0.291333  0.392286  0  0.944373  0
H  H11  1  0.20702044  0.12299273  0.04109684  1  0  0.433371  0  0.866474  0  0  0.400364  0  0.932692  0  0  0.411753  0  0.91619  0  0  0.291347  0.392291  0  0.944361  0
H  H12  1  0.78779694  0.33879053  0.95151337  1  0  0.424357  0  0.856967  0  0  0.389245  0  0.939791  0  0  0.402644  0  0.92511  0  0  0.313217  0.379808  0  0.950016  0
H  H13  1  0.21220236  0.66121130  0.45151260  1  0  0.424399  0  0.856929  0  0  0.389277  0  0.939764  0  0  0.402679  0  0.925078  0  0  0.313245  0.379838  0  0.949988  0
H  H14  1  0.28779937  0.66120801  0.95151207  1  0  0.424382  0  0.856908  0  0  0.389262  0  0.939741  0  0  0.402662  0  0.925057  0  0  0.313233  0.379823  0  0.949964  0
H  H15  1  0.71220429  0.33878938  0.45151222  1  0  0.424399  0  0.856898  0  0  0.38928  0  0.939729  0  0  0.40268  0  0.925047  0  0  0.313249  0.379841  0  0.949953  0
H  H16  1  0.34977992  0.43818528  0.96881752  1  0  0.397215  0  0.888537  0  0  0.364862  0  0.968805  0  0  0.378559  0  0.954093  0  0  0.30315  0.355107  0  0.979322  0
H  H17  1  0.65021954  0.56181645  0.46881871  1  0  0.397237  0  0.888547  0  0  0.364883  0  0.968805  0  0  0.37858  0  0.954093  0  0  0.303164  0.355127  0  0.979327  0
H  H18  1  0.84977371  0.56181500  0.96881604  1  0  0.397295  0  0.888396  0  0  0.364924  0  0.968696  0  0  0.378628  0  0.953971  0  0  0.303176  0.355158  0  0.979237  0
H  H19  1  0.15022866  0.43818495  0.46881573  1  0  0.397209  0  0.888451  0  0  0.364842  0  0.968753  0  0  0.378547  0  0.954027  0  0  0.303149  0.355075  0  0.979295  0
H  H20  1  0.58217187  0.83813174  0.79007941  1  0  0.132329  0  0.929106  0  0  0.13986  0  0.989477  0  0  0.144068  0  0.986991  0  0  0.115412  0.136838  0  0.991368  0
H  H21  1  0.41783468  0.16186843  0.29007624  1  0  0.132274  0  0.929138  0  0  0.139801  0  0.989509  0  0  0.144002  0  0.987035  0  0  0.115402  0.136779  0  0.991398  0
H  H22  1  0.08216429  0.16186583  0.79007877  1  0  0.132321  0  0.929054  0  0  0.139851  0  0.989426  0  0  0.14405  0  0.986951  0  0  0.115434  0.136831  0  0.991317  0
H  H23  1  0.91783209  0.83812989  0.29007743  1  0  0.132281  0  0.929161  0  0  0.139811  0  0.989541  0  0  0.144018  0  0.987047  0  0  0.115411  0.136792  0  0.991432  0
H  H24  1  0.63935179  0.96462924  0.90300793  1  0  0.132551  0  0.920787  0  0  0.141638  0  0.977037  0  0  0.145687  0  0.973763  0  0  0.12313  0.138686  0  0.979449  0
H  H25  1  0.36064852  0.03537378  0.40300499  1  0  0.132498  0  0.920773  0  0  0.141627  0  0.976997  0  0  0.145677  0  0.973721  0  0  0.123119  0.138674  0  0.979411  0
H  H26  1  0.13934534  0.03536946  0.90300704  1  0  0.132482  0  0.920764  0  0  0.141616  0  0.976977  0  0  0.145665  0  0.973703  0  0  0.123109  0.138663  0  0.979395  0
H  H27  1  0.86065497  0.96462557  0.40300755  1  0  0.13256  0  0.920788  0  0  0.141652  0  0.977026  0  0  0.1457  0  0.973754  0  0  0.12311  0.138699  0  0.97944  0
H  H28  1  0.45914019  0.58916054  0.80961126  1  0  0.121829  0  0.937251  0  0  0.127982  0  1.002548  0  0  0.131609  0  1.000128  0  0  0.114963  0.125346  0  1.004347  0
H  H29  1  0.54085637  0.41084217  0.30961267  1  0  0.121798  0  0.937282  0  0  0.127988  0  1.002554  0  0  0.131625  0  1.000107  0  0  0.114979  0.125352  0  1.004353  0
H  H30  1  0.95913649  0.41083905  0.80961071  1  0  0.12186  0  0.937221  0  0  0.127969  0  1.002562  0  0  0.131597  0  1.000128  0  0  0.114955  0.125334  0  1.004361  0
H  H31  1  0.04085861  0.58915921  0.30961155  1  0  0.121818  0  0.937324  0  0  0.12799  0  1.002597  0  0  0.131622  0  1.000165  0  0  0.114975  0.125355  0  1.004397  0
H  H32  1  0.58506596  0.63539473  0.68011913  1  0  0.140847  0  0.944668  0  0  0.145636  0  1.009543  0  0  0.150143  0  1.006683  0  0  0.114776  0.142376  0  1.011751  0
H  H33  1  0.41493523  0.36460611  0.18012104  1  0  0.140781  0  0.94468  0  0  0.145566  0  1.009575  0  0  0.150073  0  1.006716  0  0  0.114745  0.142304  0  1.011785  0
H  H34  1  0.08506326  0.36460529  0.68011800  1  0  0.140847  0  0.944718  0  0  0.145639  0  1.009589  0  0  0.150145  0  1.00673  0  0  0.114781  0.142379  0  1.011797  0
H  H35  1  0.91493066  0.63539378  0.18011938  1  0  0.140829  0  0.944677  0  0  0.145618  0  1.009557  0  0  0.150126  0  1.006698  0  0  0.114772  0.142358  0  1.011765  0
C  C36  1  0.57604880  0.92349626  0.64448920  1  0  0.623986  0  3.920595  0  0  0.566492  0  4.225551  0  0  0.600414  0  4.217071  0  0  0.210113  0.543388  0  4.230522  0
C  C37  1  0.42395496  0.07650303  0.14448792  1  0  0.624071  0  3.920694  0  0  0.566582  0  4.225624  0  0  0.600502  0  4.217143  0  0  0.210154  0.543477  0  4.230597  0
C  C38  1  0.07604972  0.07650398  0.64448710  1  0  0.623991  0  3.920599  0  0  0.566516  0  4.22548  0  0  0.600438  0  4.217  0  0  0.210096  0.543412  0  4.230452  0
C  C39  1  0.92395114  0.92349797  0.14448835  1  0  0.623944  0  3.920586  0  0  0.566402  0  4.22561  0  0  0.600322  0  4.217133  0  0  0.210064  0.543298  0  4.23058  0
C  C40  1  0.57661599  0.99149371  0.71708427  1  0  0.114608  0  3.761226  0  0  0.113447  0  4.014415  0  0  0.115988  0  4.033489  0  0  0.114151  0.111576  0  4.001745  0
C  C41  1  0.42338118  0.00850602  0.21708204  1  0  0.114581  0  3.761271  0  0  0.113431  0  4.014425  0  0  0.115973  0  4.033501  0  0  0.114155  0.111559  0  4.001754  0
C  C42  1  0.07661383  0.00850519  0.71708289  1  0  0.114531  0  3.761304  0  0  0.113454  0  4.014348  0  0  0.115996  0  4.033422  0  0  0.114164  0.111582  0  4.001679  0
C  C43  1  0.92338334  0.99149365  0.21708453  1  0  0.114599  0  3.761267  0  0  0.113488  0  4.014415  0  0  0.116029  0  4.03349  0  0  0.114123  0.111616  0  4.001746  0
C  C44  1  0.58658256  0.93443374  0.78593632  1  0  -0.097275  0  3.669256  0  0  -0.124076  0  3.931359  0  0  -0.128912  0  3.950393  0  0  -0.071661  -0.121117  0  3.91899  0
C  C45  1  0.41342395  0.06556733  0.28593449  1  0  -0.097168  0  3.669321  0  0  -0.123944  0  3.931428  0  0  -0.128776  0  3.950458  0  0  -0.071608  -0.120986  0  3.919057  0
C  C46  1  0.08657473  0.06556474  0.78593536  1  0  -0.097194  0  3.669181  0  0  -0.124007  0  3.931281  0  0  -0.128838  0  3.950311  0  0  -0.071646  -0.121051  0  3.918914  0
C  C47  1  0.91342597  0.93443190  0.28593601  1  0  -0.097145  0  3.669326  0  0  -0.123954  0  3.931421  0  0  -0.128782  0  3.950453  0  0  -0.071613  -0.120997  0  3.919052  0
C  C48  1  0.61729300  0.00496091  0.84831961  1  0  0.008945  0  3.639631  0  0  -0.020501  0  3.892928  0  0  -0.016064  0  3.908841  0  0  -0.049367  -0.023226  0  3.882316  0
C  C49  1  0.38270827  0.99503801  0.34831659  1  0  0.008993  0  3.639747  0  0  -0.02052  0  3.893046  0  0  -0.016085  0  3.908966  0  0  -0.049403  -0.023245  0  3.882432  0
C  C50  1  0.11728758  0.99503633  0.84831806  1  0  0.009048  0  3.639631  0  0  -0.020448  0  3.892921  0  0  -0.016015  0  3.90884  0  0  -0.049356  -0.023174  0  3.882311  0
C  C51  1  0.88271079  0.00495992  0.34831926  1  0  0.008825  0  3.639795  0  0  -0.020628  0  3.893089  0  0  -0.016192  0  3.909003  0  0  -0.049399  -0.023353  0  3.882478  0
C  C52  1  0.62615209  0.12907705  0.84186635  1  0  -0.125145  0  3.658595  0  0  -0.108717  0  3.899305  0  0  -0.119254  0  3.920053  0  0  0.002518  -0.1021  0  3.885718  0
C  C53  1  0.37384766  0.87092280  0.34186306  1  0  -0.125323  0  3.658819  0  0  -0.108802  0  3.899549  0  0  -0.11934  0  3.920302  0  0  0.002547  -0.10218  0  3.885954  0
C  C54  1  0.12615216  0.87092291  0.84186454  1  0  -0.125261  0  3.658756  0  0  -0.108773  0  3.899512  0  0  -0.119304  0  3.920264  0  0  0.002543  -0.102153  0  3.885922  0
C  C55  1  0.87385050  0.12907605  0.34186543  1  0  -0.125147  0  3.658813  0  0  -0.108689  0  3.899518  0  0  -0.11922  0  3.920271  0  0  0.002558  -0.102068  0  3.885927  0
C  C56  1  0.59222736  0.18095977  0.77090712  1  0  0.206883  0  3.655808  0  0  0.188737  0  3.908784  0  0  0.198229  0  3.925774  0  0  0.141648  0.182323  0  3.89738  0
C  C57  1  0.40777320  0.81904052  0.27090400  1  0  0.20694  0  3.65563  0  0  0.188712  0  3.908702  0  0  0.198207  0  3.925691  0  0  0.141583  0.182299  0  3.897301  0
C  C58  1  0.09223020  0.81903881  0.77090432  1  0  0.206983  0  3.655723  0  0  0.188756  0  3.908809  0  0  0.19825  0  3.925798  0  0  0.141653  0.182341  0  3.897406  0
C  C59  1  0.90777617  0.18095969  0.27090568  1  0  0.206934  0  3.655851  0  0  0.188763  0  3.908833  0  0  0.198258  0  3.925819  0  0  0.14165  0.182348  0  3.897429  0
C  C60  1  0.57588138  0.31061638  0.75122476  1  0  0.190422  0  3.667137  0  0  0.17903  0  3.912214  0  0  0.18648  0  3.929656  0  0  0.13999  0.173986  0  3.90051  0
C  C61  1  0.42411319  0.68938314  0.25122366  1  0  0.190511  0  3.66701  0  0  0.179118  0  3.912115  0  0  0.186569  0  3.929556  0  0  0.139986  0.174067  0  3.900423  0
C  C62  1  0.07588679  0.68938142  0.75122451  1  0  0.190453  0  3.667064  0  0  0.179068  0  3.912183  0  0  0.18652  0  3.929624  0  0  0.139967  0.174022  0  3.900479  0
C  C63  1  0.92411214  0.31061543  0.25122558  1  0  0.190568  0  3.667222  0  0  0.179178  0  3.912302  0  0  0.186631  0  3.929741  0  0  0.140061  0.174133  0  3.900596  0
C  C64  1  0.50092786  0.40117350  0.79745415  1  0  -0.107635  0  3.682172  0  0  -0.093672  0  3.923544  0  0  -0.102082  0  3.943384  0  0  0.00297  -0.088459  0  3.910549  0
C  C65  1  0.49906568  0.59882839  0.29745616  1  0  -0.107641  0  3.682114  0  0  -0.093648  0  3.92352  0  0  -0.102059  0  3.943359  0  0  0.002959  -0.088433  0  3.910527  0
C  C66  1  0.00093013  0.59882749  0.79745524  1  0  -0.107405  0  3.681986  0  0  -0.093456  0  3.923349  0  0  -0.101869  0  3.943187  0  0  0.003011  -0.08824  0  3.910354  0
C  C67  1  0.99906632  0.40116996  0.29745563  1  0  -0.107633  0  3.682314  0  0  -0.093665  0  3.923693  0  0  -0.102078  0  3.943532  0  0  0.002951  -0.088448  0  3.910697  0
C  C68  1  0.51135781  0.51897311  0.77286662  1  0  -0.012345  0  3.658487  0  0  -0.04347  0  3.918972  0  0  -0.040818  0  3.936744  0  0  -0.061778  -0.045014  0  3.906963  0
C  C69  1  0.48863841  0.48102894  0.27286890  1  0  -0.012293  0  3.658374  0  0  -0.043462  0  3.918854  0  0  -0.040813  0  3.936645  0  0  -0.061751  -0.045004  0  3.90684  0
C  C70  1  0.01135833  0.48102538  0.77286687  1  0  -0.012386  0  3.658296  0  0  -0.043464  0  3.918769  0  0  -0.040803  0  3.936537  0  0  -0.061735  -0.04501  0  3.90676  0
C  C71  1  0.98863935  0.51897223  0.27286752  1  0  -0.01237  0  3.65845  0  0  -0.043509  0  3.918925  0  0  -0.040857  0  3.936704  0  0  -0.061763  -0.045055  0  3.906917  0
C  C72  1  0.57992292  0.54488887  0.70169504  1  0  -0.10011  0  3.664423  0  0  -0.125272  0  3.923003  0  0  -0.129552  0  3.941935  0  0  -0.072476  -0.122443  0  3.910422  0
C  C73  1  0.42007701  0.45511184  0.20169561  1  0  -0.100004  0  3.66442  0  0  -0.12515  0  3.923036  0  0  -0.12943  0  3.941967  0  0  -0.072441  -0.122323  0  3.910452  0
C  C74  1  0.07992191  0.45511013  0.70169424  1  0  -0.100096  0  3.664557  0  0  -0.125276  0  3.923116  0  0  -0.129556  0  3.942046  0  0  -0.07246  -0.122446  0  3.910535  0
C  C75  1  0.92007511  0.54488792  0.20169418  1  0  -0.100025  0  3.664435  0  0  -0.125221  0  3.923029  0  0  -0.129504  0  3.941961  0  0  -0.072442  -0.122388  0  3.91045  0
C  C76  1  0.63314175  0.44948307  0.65649441  1  0  0.103201  0  3.752606  0  0  0.103141  0  4.00141  0  0  0.104913  0  4.02066  0  0  0.115286  0.10169  0  3.988574  0
C  C77  1  0.36686067  0.55051526  0.15649356  1  0  0.103122  0  3.752625  0  0  0.103029  0  4.001521  0  0  0.104802  0  4.02077  0  0  0.115243  0.10158  0  3.988676  0
C  C78  1  0.13314099  0.55051448  0.65649338  1  0  0.103214  0  3.752648  0  0  0.103206  0  4.001393  0  0  0.104981  0  4.020637  0  0  0.115306  0.101754  0  3.988555  0
C  C79  1  0.86685852  0.44948384  0.15649403  1  0  0.103211  0  3.752611  0  0  0.103218  0  4.001339  0  0  0.104994  0  4.020583  0  0  0.115254  0.101758  0  3.988516  0
C  C80  1  0.68587373  0.46674052  0.57524252  1  0  0.641233  0  3.863408  0  0  0.583483  0  4.167663  0  0  0.616661  0  4.160735  0  0  0.223235  0.561018  0  4.171651  0
C  C81  1  0.31412795  0.53326009  0.07524220  1  0  0.641277  0  3.863487  0  0  0.583425  0  4.167916  0  0  0.616601  0  4.160991  0  0  0.223204  0.560966  0  4.171891  0
C  C82  1  0.18587874  0.53325848  0.57524154  1  0  0.641175  0  3.86358  0  0  0.583378  0  4.167875  0  0  0.616563  0  4.160939  0  0  0.223186  0.560913  0  4.17186  0
C  C83  1  0.81411858  0.46674124  0.07524263  1  0  0.641121  0  3.863617  0  0  0.583366  0  4.167853  0  0  0.616551  0  4.160915  0  0  0.223218  0.5609  0  4.17184  0
C  C84  1  0.39453632  0.37472135  0.86830007  1  0  0.649506  0  3.868472  0  0  0.595515  0  4.175069  0  0  0.628347  0  4.166739  0  0  0.223632  0.573205  0  4.180115  0
C  C85  1  0.60545641  0.62528188  0.36830216  1  0  0.649549  0  3.868371  0  0  0.59545  0  4.175117  0  0  0.628284  0  4.166788  0  0  0.223573  0.573142  0  4.180163  0
C  C86  1  0.89454771  0.62527071  0.86829844  1  0  0.649149  0  3.868073  0  0  0.595158  0  4.17473  0  0  0.627997  0  4.166402  0  0  0.223466  0.572846  0  4.179773  0
C  C87  1  0.10545374  0.37472275  0.36829933  1  0  0.649357  0  3.868359  0  0  0.595352  0  4.175009  0  0  0.62819  0  4.166681  0  0  0.22356  0.573039  0  4.180051  0
C  C88  1  0.68464838  0.19229425  0.91165952  1  0  0.677903  0  3.789524  0  0  0.621828  0  4.087354  0  0  0.655799  0  4.079785  0  0  0.242002  0.598703  0  4.092115  0
C  C89  1  0.31534911  0.80771049  0.41165798  1  0  0.678028  0  3.789457  0  0  0.621854  0  4.087414  0  0  0.655824  0  4.079849  0  0  0.242057  0.598728  0  4.092174  0
C  C90  1  0.18464538  0.80770711  0.91165843  1  0  0.678006  0  3.789294  0  0  0.621856  0  4.087244  0  0  0.655812  0  4.079699  0  0  0.242033  0.598728  0  4.092003  0
C  C91  1  0.81535356  0.19229053  0.41165907  1  0  0.677891  0  3.789718  0  0  0.621769  0  4.087607  0  0  0.655723  0  4.080064  0  0  0.241979  0.59864  0  4.092367  0
N  N92  1  0.57612363  0.10997936  0.71105601  1  0  -0.384987  0  3.266545  0  0  -0.329045  0  3.527811  0  0  -0.347303  0  3.54683  0  0  -0.317899  -0.316474  0  3.514799  0
N  N93  1  0.42387348  0.89002129  0.21105218  1  0  -0.384938  0  3.266431  0  0  -0.328971  0  3.527726  0  0  -0.347231  0  3.546745  0  0  -0.31784  -0.316401  0  3.514715  0
N  N94  1  0.07612665  0.89001957  0.71105304  1  0  -0.38502  0  3.266594  0  0  -0.329089  0  3.527889  0  0  -0.34735  0  3.54691  0  0  -0.317919  -0.316518  0  3.514878  0
N  N95  1  0.92387482  0.10997841  0.21105404  1  0  -0.385032  0  3.266547  0  0  -0.329096  0  3.527822  0  0  -0.347356  0  3.546841  0  0  -0.317888  -0.316525  0  3.514811  0
N  N96  1  0.63449469  0.33755426  0.68184642  1  0  -0.355796  0  3.253652  0  0  -0.297613  0  3.506211  0  0  -0.314035  0  3.52435  0  0  -0.30953  -0.2862  0  3.493737  0
N  N97  1  0.36550506  0.66244480  0.18184474  1  0  -0.35587  0  3.253636  0  0  -0.29764  0  3.506172  0  0  -0.31406  0  3.524309  0  0  -0.309525  -0.286227  0  3.493698  0
N  N98  1  0.13449567  0.66244314  0.68184567  1  0  -0.35589  0  3.253652  0  0  -0.297716  0  3.506191  0  0  -0.314138  0  3.524325  0  0  -0.309553  -0.286302  0  3.493716  0
N  N99  1  0.86549971  0.33755414  0.18184715  1  0  -0.355881  0  3.253615  0  0  -0.297723  0  3.506158  0  0  -0.314146  0  3.524295  0  0  -0.309543  -0.286307  0  3.493686  0
O  O100  1  0.39302602  0.17934866  0.52144257  1  0  -0.825726  0  1.847625  0  0  -0.764758  0  2.046642  0  0  -0.786502  0  2.012763  0  0  -0.58107  -0.749303  0  2.070216  0
O  O101  1  0.60697663  0.82065139  0.02144195  1  0  -0.825715  0  1.847601  0  0  -0.764731  0  2.046596  0  0  -0.786475  0  2.012718  0  0  -0.58106  -0.749281  0  2.07019  0
O  O102  1  0.89302483  0.82065265  0.52144213  1  0  -0.82562  0  1.847695  0  0  -0.764627  0  2.046664  0  0  -0.786373  0  2.012787  0  0  -0.580967  -0.749177  0  2.070256  0
O  O103  1  0.10697781  0.17934828  0.02144239  1  0  -0.825663  0  1.847654  0  0  -0.76469  0  2.046636  0  0  -0.786435  0  2.012759  0  0  -0.581032  -0.749238  0  2.070229  0
O  O104  1  0.65790246  0.97409578  0.58900626  1  0  -0.618087  0  2.045092  0  0  -0.545309  0  2.281293  0  0  -0.57451  0  2.27086  0  0  -0.304184  -0.524645  0  2.28774  0
O  O105  1  0.34210662  0.02590385  0.08900443  1  0  -0.618163  0  2.045223  0  0  -0.545424  0  2.281471  0  0  -0.574621  0  2.271028  0  0  -0.304282  -0.52476  0  2.287922  0
O  O106  1  0.15790615  0.02590577  0.58900484  1  0  -0.618096  0  2.045123  0  0  -0.54535  0  2.281336  0  0  -0.57455  0  2.270903  0  0  -0.304177  -0.524688  0  2.287785  0
O  O107  1  0.84209566  0.97409475  0.08900529  1  0  -0.618085  0  2.045092  0  0  -0.545298  0  2.281329  0  0  -0.574497  0  2.270896  0  0  -0.304179  -0.524634  0  2.287776  0
O  O108  1  0.49918090  0.82174258  0.64434374  1  0  -0.616893  0  1.990626  0  0  -0.565072  0  2.245467  0  0  -0.589663  0  2.233007  0  0  -0.321431  -0.547513  0  2.253377  0
O  O109  1  0.50082286  0.17825582  0.14434343  1  0  -0.616893  0  1.990577  0  0  -0.565062  0  2.245399  0  0  -0.589653  0  2.232944  0  0  -0.321395  -0.547502  0  2.253311  0
O  O110  1  0.99918096  0.17825807  0.64434320  1  0  -0.616862  0  1.990572  0  0  -0.565069  0  2.245421  0  0  -0.589653  0  2.232947  0  0  -0.321411  -0.54751  0  2.253332  0
O  O111  1  0.00081990  0.82174477  0.14434342  1  0  -0.616846  0  1.99061  0  0  -0.565017  0  2.245475  0  0  -0.589611  0  2.233027  0  0  -0.321391  -0.547458  0  2.253385  0
O  O112  1  0.66140254  0.14431799  0.97315009  1  0  -0.541353  0  1.994948  0  0  -0.482011  0  2.227539  0  0  -0.505534  0  2.217106  0  0  -0.273536  -0.465872  0  2.234464  0
O  O113  1  0.33859115  0.85568815  0.47314735  1  0  -0.541394  0  1.99484  0  0  -0.482045  0  2.227498  0  0  -0.505566  0  2.217069  0  0  -0.273611  -0.465907  0  2.234424  0
O  O114  1  0.16140548  0.85568385  0.97315278  1  0  -0.541463  0  1.994646  0  0  -0.482102  0  2.227291  0  0  -0.505621  0  2.216866  0  0  -0.273624  -0.46596  0  2.234214  0
O  O115  1  0.83859838  0.14431430  0.47314968  1  0  -0.54137  0  1.994974  0  0  -0.482022  0  2.227586  0  0  -0.505539  0  2.217164  0  0  -0.273566  -0.465882  0  2.234509  0
O  O116  1  0.76694845  0.29706994  0.90111801  1  0  -0.547716  0  2.141307  0  0  -0.494181  0  2.368992  0  0  -0.517499  0  2.355625  0  0  -0.312832  -0.477957  0  2.377801  0
O  O117  1  0.23304894  0.70293398  0.40111772  1  0  -0.547769  0  2.141293  0  0  -0.49418  0  2.368996  0  0  -0.5175  0  2.35563  0  0  -0.312862  -0.477954  0  2.377806  0
O  O118  1  0.26694808  0.70293512  0.90111828  1  0  -0.547695  0  2.141264  0  0  -0.494139  0  2.368988  0  0  -0.517451  0  2.355631  0  0  -0.312822  -0.477913  0  2.377794  0
O  O119  1  0.73305076  0.29706525  0.40111801  1  0  -0.547699  0  2.141306  0  0  -0.494137  0  2.368995  0  0  -0.517451  0  2.355639  0  0  -0.312831  -0.477913  0  2.377803  0
O  O120  1  0.29162347  0.28590541  0.87552382  1  0  -0.548409  0  1.913451  0  0  -0.507198  0  2.128511  0  0  -0.528324  0  2.122051  0  0  -0.286253  -0.492212  0  2.132416  0
O  O121  1  0.70836642  0.71410044  0.37552696  1  0  -0.548405  0  1.913386  0  0  -0.507181  0  2.128524  0  0  -0.528317  0  2.122078  0  0  -0.286199  -0.492193  0  2.132422  0
O  O122  1  0.79160893  0.71410781  0.87552699  1  0  -0.548328  0  1.912613  0  0  -0.507084  0  2.127622  0  0  -0.528229  0  2.121185  0  0  -0.286152  -0.492092  0  2.131518  0
O  O123  1  0.20838677  0.28589360  0.37552657  1  0  -0.548412  0  1.91295  0  0  -0.507168  0  2.127972  0  0  -0.528309  0  2.12153  0  0  -0.286222  -0.492181  0  2.131874  0
O  O124  1  0.42011371  0.45802770  0.91913142  1  0  -0.53272  0  2.12748  0  0  -0.47995  0  2.350822  0  0  -0.502215  0  2.336751  0  0  -0.323634  -0.464338  0  2.360228  0
O  O125  1  0.57988529  0.54197344  0.41913257  1  0  -0.532787  0  2.127486  0  0  -0.479926  0  2.350803  0  0  -0.502191  0  2.336733  0  0  -0.323627  -0.464314  0  2.36021  0
O  O126  1  0.92011035  0.54197384  0.91913166  1  0  -0.532708  0  2.127721  0  0  -0.479874  0  2.350977  0  0  -0.502141  0  2.336892  0  0  -0.323631  -0.464258  0  2.360401  0
O  O127  1  0.07989156  0.45802375  0.41913121  1  0  -0.532625  0  2.12767  0  0  -0.479821  0  2.350975  0  0  -0.502089  0  2.336893  0  0  -0.323612  -0.464202  0  2.360396  0
O  O128  1  0.70629181  0.57143008  0.55123658  1  0  -0.57937  0  1.96378  0  0  -0.530765  0  2.18749  0  0  -0.553871  0  2.177362  0  0  -0.299427  -0.514675  0  2.194145  0
O  O129  1  0.29371692  0.42857068  0.05123649  1  0  -0.579418  0  1.963811  0  0  -0.530736  0  2.187529  0  0  -0.553841  0  2.177403  0  0  -0.299429  -0.514648  0  2.19418  0
O  O130  1  0.20631108  0.42856909  0.55123753  1  0  -0.579315  0  1.963716  0  0  -0.530675  0  2.187422  0  0  -0.553787  0  2.177287  0  0  -0.29938  -0.514581  0  2.194082  0
O  O131  1  0.79368748  0.57142989  0.05123834  1  0  -0.57932  0  1.963747  0  0  -0.530695  0  2.187426  0  0  -0.553804  0  2.177291  0  0  -0.299401  -0.514599  0  2.194085  0
O  O132  1  0.70014427  0.37287897  0.53564129  1  0  -0.637588  0  2.114129  0  0  -0.566216  0  2.362083  0  0  -0.595474  0  2.351665  0  0  -0.309205  -0.545669  0  2.368523  0
O  O133  1  0.29986142  0.62712277  0.03564184  1  0  -0.637564  0  2.114284  0  0  -0.56614  0  2.362272  0  0  -0.595396  0  2.351854  0  0  -0.309171  -0.545597  0  2.368709  0
O  O134  1  0.20014370  0.62712028  0.53564063  1  0  -0.637585  0  2.114336  0  0  -0.5662  0  2.362296  0  0  -0.595463  0  2.351877  0  0  -0.309188  -0.545649  0  2.368732  0
O  O135  1  0.79985907  0.37287968  0.03564082  1  0  -0.637554  0  2.114273  0  0  -0.566204  0  2.362235  0  0  -0.595465  0  2.351815  0  0  -0.3092  -0.545649  0  2.368669  0
