# generated using pymatgen
data_ZnH22C20(SN3)2
_symmetry_space_group_name_H-M   'P 1'
_cell_length_a   9.93494061
_cell_length_b   10.88958649
_cell_length_c   11.44500000
_cell_angle_alpha   71.52031919
_cell_angle_beta   74.31488225
_cell_angle_gamma   85.95861762
_symmetry_Int_Tables_number   1
_chemical_formula_structural   ZnH22C20(SN3)2
_chemical_formula_sum   'Zn2 H44 C40 S4 N12'
_cell_volume   1130.47037478
_cell_formula_units_Z   2
loop_
 _symmetry_equiv_pos_site_id
 _symmetry_equiv_pos_as_xyz
  1  'x, y, z'
loop_
 _atom_site_type_symbol
 _atom_site_label
 _atom_site_symmetry_multiplicity
 _atom_site_fract_x
 _atom_site_fract_y
 _atom_site_fract_z
 _atom_site_occupancy
 _atom_site_hle17_bader_spin_density
 _atom_site_hle17_ddec_charge
 _atom_site_hle17_ddec_spin_density
 _atom_site_hle17_ddec_sum_bond_order
 _atom_site_hle17_magmom
 _atom_site_hse06_10hf_bader_spin_density
 _atom_site_hse06_10hf_ddec_charge
 _atom_site_hse06_10hf_ddec_spin_density
 _atom_site_hse06_10hf_ddec_sum_bond_order
 _atom_site_hse06_10hf_magmom
 _atom_site_hse06_bader_spin_density
 _atom_site_hse06_ddec_charge
 _atom_site_hse06_ddec_spin_density
 _atom_site_hse06_ddec_sum_bond_order
 _atom_site_hse06_magmom
 _atom_site_pbe_bader_charge
 _atom_site_pbe_bader_spin_density
 _atom_site_pbe_cm5_charge
 _atom_site_pbe_ddec_charge
 _atom_site_pbe_ddec_spin_density
 _atom_site_pbe_ddec_sum_bond_order
 _atom_site_pbe_magmom
Zn  Zn0  1  0.33176073  0.25349186  0.32211382  1  0  0.998983  0  2.027354  0  0  0.804395  0  2.539068  0  0  0.844735  0  2.488415  0  1.260181  0  0.764853  0.777167  0  2.573371  0
Zn  Zn1  1  0.66823891  0.74650880  0.67788441  1  0  0.998944  0  2.027316  0  0  0.80438  0  2.539013  0  0  0.844723  0  2.488361  0  1.260166  0  0.764839  0.777158  0  2.573318  0
H  H2  1  0.91823607  0.22360703  0.41654276  1  0  0.091044  0  0.955497  0  0  0.104776  0  1.011151  0  0  0.106988  0  1.01099  0  0.059613  0  0.100035  0.102909  0  1.011879  0
H  H3  1  0.08176564  0.77639266  0.58345877  1  0  0.091067  0  0.955503  0  0  0.104781  0  1.011177  0  0  0.106992  0  1.011018  0  0.05973  0  0.100031  0.102914  0  1.011905  0
H  H4  1  0.85337650  0.04847170  0.34689434  1  0  0.087155  0  0.953754  0  0  0.102172  0  1.008804  0  0  0.104425  0  1.008609  0  0.031337  0  0.100791  0.100425  0  1.008902  0
H  H5  1  0.14662415  0.95152702  0.65310773  1  0  0.087149  0  0.953771  0  0  0.10217  0  1.008819  0  0  0.104426  0  1.008618  0  0.031333  0  0.100785  0.100423  0  1.008917  0
H  H6  1  0.06657726  0.30145517  0.51501356  1  0  0.091905  0  0.939284  0  0  0.105549  0  1.002744  0  0  0.106314  0  1.002049  0  0.110296  0  0.112832  0.105294  0  1.002938  0
H  H7  1  0.93342338  0.69854258  0.48498706  1  0  0.092031  0  0.939253  0  0  0.105719  0  1.002694  0  0  0.10646  0  1.002007  0  0.110262  0  0.112889  0.105467  0  1.002897  0
H  H8  1  0.99576789  0.20704986  0.67520381  1  0  0.088541  0  0.956144  0  0  0.099473  0  1.030058  0  0  0.100173  0  1.030141  0  0.111405  0  0.107907  0.098484  0  1.030634  0
H  H9  1  0.00423381  0.79294886  0.32479801  1  0  0.088515  0  0.956164  0  0  0.099492  0  1.030081  0  0  0.100179  0  1.030164  0  0.111399  0  0.107886  0.098511  0  1.030659  0
H  H10  1  0.07275316  0.20611732  0.86213242  1  0  0.121658  0  0.969607  0  0  0.13925  0  1.035189  0  0  0.141803  0  1.033587  0  0.102506  0  0.087503  0.137443  0  1.036355  0
H  H11  1  0.92724748  0.79388043  0.13786558  1  0  0.121617  0  0.969623  0  0  0.13922  0  1.035196  0  0  0.141773  0  1.033594  0  0.102584  0  0.087492  0.137414  0  1.03636  0
H  H12  1  0.17841021  0.07658733  0.92672716  1  0  0.124711  0  0.95324  0  0  0.143701  0  1.014692  0  0  0.145232  0  1.014903  0  0.066096  0  0.094241  0.142529  0  1.014675  0
H  H13  1  0.82159252  0.92341042  0.07327034  1  0  0.124724  0  0.953155  0  0  0.143723  0  1.014598  0  0  0.145253  0  1.01481  0  0.066166  0  0.094273  0.142552  0  1.014579  0
H  H14  1  0.05150782  0.05044427  0.85229255  1  0  0.121476  0  0.944042  0  0  0.139884  0  1.006454  0  0  0.14186  0  1.005933  0  0.063559  0  0.0959  0.138676  0  1.006488  0
H  H15  1  0.94849699  0.94955348  0.14770359  1  0  0.121426  0  0.944113  0  0  0.139836  0  1.006533  0  0  0.141813  0  1.006011  0  0.063528  0  0.095857  0.138627  0  1.006567  0
H  H16  1  0.44550529  0.10970748  0.76816500  1  0  0.1397  0  0.967077  0  0  0.148063  0  1.028788  0  0  0.151154  0  1.028701  0  0.090252  0  0.104573  0.145822  0  1.028865  0
H  H17  1  0.55449747  0.89029221  0.23183366  1  0  0.139692  0  0.967102  0  0  0.148105  0  1.02876  0  0  0.151196  0  1.028672  0  0.090237  0  0.104574  0.145864  0  1.028839  0
H  H18  1  0.61539675  0.06757472  0.50222736  1  0  0.12243  0  0.955012  0  0  0.139882  0  1.02028  0  0  0.141064  0  1.021257  0  0.063483  0  0.09322  0.139075  0  1.01935  0
H  H19  1  0.38460608  0.93242884  0.49776924  1  0  0.122513  0  0.954975  0  0  0.139981  0  1.020216  0  0  0.141165  0  1.021187  0  0.06346  0  0.093265  0.139172  0  1.019291  0
H  H20  1  0.65287655  0.21344206  0.52390572  1  0  0.124318  0  0.948151  0  0  0.143715  0  1.008603  0  0  0.145122  0  1.009145  0  0.061867  0  0.095501  0.142453  0  1.008653  0
H  H21  1  0.34712520  0.78655957  0.47609347  1  0  0.124302  0  0.94816  0  0  0.143734  0  1.008579  0  0  0.145129  0  1.009132  0  0.061847  0  0.095495  0.142471  0  1.008631  0
H  H22  1  0.59546953  0.21926874  0.38827957  1  0  0.112283  0  0.978298  0  0  0.12962  0  1.044085  0  0  0.13146  0  1.043627  0  0.027258  0  0.091171  0.128217  0  1.0445  0
H  H23  1  0.40453224  0.78073386  0.61171845  1  0  0.112321  0  0.978299  0  0  0.129666  0  1.044082  0  0  0.131502  0  1.043627  0  0.027289  0  0.091193  0.128263  0  1.044497  0
H  H24  1  0.25195934  0.52961644  0.49182752  1  0  0.089841  0  0.949884  0  0  0.09865  0  1.013536  0  0  0.101482  0  1.012389  0  0.06369  0  0.096182  0.096553  0  1.014593  0
H  H25  1  0.74803614  0.47038519  0.50817314  1  0  0.089798  0  0.949941  0  0  0.098622  0  1.013586  0  0  0.101455  0  1.012437  0  0.063752  0  0.096153  0.096525  0  1.014643  0
H  H26  1  0.31027205  0.48522447  0.69578145  1  0  0.083646  0  1.002186  0  0  0.092718  0  1.070891  0  0  0.094887  0  1.07067  0  0.074574  0  0.088729  0.090973  0  1.071331  0
H  H27  1  0.68972342  0.51477715  0.30422009  1  0  0.083635  0  1.002198  0  0  0.092697  0  1.070922  0  0  0.094869  0  1.070695  0  0.074615  0  0.088744  0.090971  0  1.071342  0
H  H28  1  0.32191401  0.53510903  0.26934077  1  0  0.092854  0  0.957333  0  0  0.106605  0  1.020578  0  0  0.107298  0  1.020073  0  0.109212  0  0.113088  0.105956  0  1.021108  0
H  H29  1  0.67808352  0.46489066  0.73065912  1  0  0.092848  0  0.957314  0  0  0.10661  0  1.020562  0  0  0.107313  0  1.02006  0  0.109244  0  0.113107  0.105962  0  1.021091  0
H  H30  1  0.44643211  0.66307897  0.20335885  1  0  0.090886  0  0.936025  0  0  0.106139  0  1.002046  0  0  0.106742  0  1.001896  0  0.105356  0  0.113098  0.105592  0  1.002208  0
H  H31  1  0.55356542  0.33692071  0.79664191  1  0  0.090895  0  0.93602  0  0  0.106137  0  1.002062  0  0  0.106752  0  1.001916  0  0.10534  0  0.113102  0.105592  0  1.002223  0
H  H32  1  0.59960450  0.73967018  0.00178836  1  0  0.12012  0  0.956256  0  0  0.138072  0  1.022573  0  0  0.139689  0  1.02231  0  0.069416  0  0.096365  0.136921  0  1.022885  0
H  H33  1  0.40039510  0.26032854  0.99821308  1  0  0.120153  0  0.956258  0  0  0.138125  0  1.022544  0  0  0.139732  0  1.022293  0  0.069408  0  0.096374  0.136971  0  1.022861  0
H  H34  1  0.77342628  0.69070073  0.94898670  1  0  0.137976  0  0.929806  0  0  0.162269  0  0.978995  0  0  0.163512  0  0.979296  0  0.080715  0  0.104212  0.161436  0  0.978697  0
H  H35  1  0.22657439  0.30929896  0.05101332  1  0  0.137986  0  0.929807  0  0  0.162282  0  0.978993  0  0  0.163523  0  0.979294  0  0.080717  0  0.104218  0.161449  0  0.978695  0
H  H36  1  0.71092505  0.70445350  0.10542036  1  0  0.120299  0  0.954092  0  0  0.142903  0  1.013827  0  0  0.14414  0  1.014317  0  0.058763  0  0.095671  0.141984  0  1.013578  0
H  H37  1  0.28907352  0.29554618  0.89458016  1  0  0.120316  0  0.95408  0  0  0.142902  0  1.013842  0  0  0.144138  0  1.014331  0  0.058755  0  0.095669  0.141985  0  1.013585  0
H  H38  1  0.80145684  0.43155940  0.97515695  1  0  0.133808  0  0.998209  0  0  0.140021  0  1.065122  0  0  0.14317  0  1.064941  0  0.115141  0  0.09733  0.137894  0  1.065134  0
H  H39  1  0.19854278  0.56844028  0.02484332  1  0  0.133795  0  0.998258  0  0  0.140007  0  1.065171  0  0  0.143157  0  1.064989  0  0.115128  0  0.097313  0.137879  0  1.065184  0
H  H40  1  0.60255274  0.11729755  0.22374172  1  0  0.114029  0  0.978273  0  0  0.132138  0  1.044647  0  0  0.133556  0  1.045224  0  0.074358  0  0.091581  0.13105  0  1.044331  0
H  H41  1  0.39744584  0.88270213  0.77625792  1  0  0.114019  0  0.978294  0  0  0.13213  0  1.044663  0  0  0.133548  0  1.04524  0  0.074357  0  0.091586  0.131045  0  1.044343  0
H  H42  1  0.75653624  0.16947424  0.09648856  1  0  0.124042  0  0.926733  0  0  0.15084  0  0.973534  0  0  0.152318  0  0.973318  0  0.050099  0  0.098102  0.149688  0  0.973808  0
H  H43  1  0.24346232  0.83052448  0.90351138  1  0  0.124031  0  0.926711  0  0  0.150826  0  0.973516  0  0  0.152304  0  0.9733  0  0.050085  0  0.098095  0.149673  0  0.97379  0
H  H44  1  0.59450371  0.15832734  0.06392069  1  0  0.120546  0  0.956996  0  0  0.137835  0  1.023691  0  0  0.139896  0  1.022902  0  0.072392  0  0.08948  0.13634  0  1.024306  0
H  H45  1  0.40549591  0.84167234  0.93607958  1  0  0.120567  0  0.956924  0  0  0.137848  0  1.023627  0  0  0.139907  0  1.022841  0  0.072409  0  0.089486  0.136351  0  1.024245  0
C  C46  1  0.95366428  0.12535148  0.45390379  1  0  -0.098292  0  3.745364  0  0  -0.115209  0  3.987613  0  0  -0.118284  0  4.010514  0  -0.040891  0  -0.087794  -0.113528  0  3.972509  0
C  C47  1  0.04633637  0.87464724  0.54609653  1  0  -0.098326  0  3.745337  0  0  -0.115227  0  3.987593  0  0  -0.118302  0  4.010493  0  -0.041051  0  -0.087796  -0.113545  0  3.972486  0
C  C48  1  0.91814444  0.02676475  0.41402354  1  0  -0.105403  0  3.745551  0  0  -0.126472  0  3.993816  0  0  -0.128679  0  4.015627  0  -0.001175  0  -0.091856  -0.124628  0  3.978633  0
C  C49  1  0.08185621  0.97323397  0.58597678  1  0  -0.105422  0  3.745584  0  0  -0.126502  0  3.993864  0  0  -0.128709  0  4.015673  0  -0.001047  0  -0.091862  -0.124659  0  3.978683  0
C  C50  1  0.03585978  0.09946698  0.54042884  1  0  0.061921  0  3.75949  0  0  0.079842  0  4.005159  0  0  0.078969  0  4.029452  0  -0.02221  0  -0.016462  0.080463  0  3.988931  0
C  C51  1  0.96413982  0.90053174  0.45957260  1  0  0.061942  0  3.759454  0  0  0.079897  0  4.00516  0  0  0.079015  0  4.029428  0  -0.022048  0  -0.01647  0.080527  0  3.988941  0
C  C52  1  0.07129828  0.20654824  0.58521152  1  0  -0.071942  0  3.685356  0  0  -0.141635  0  3.93896  0  0  -0.137437  0  3.949479  0  0.259071  0  -0.049463  -0.144398  0  3.932202  0
C  C53  1  0.92870550  0.79345048  0.41478982  1  0  -0.071961  0  3.685397  0  0  -0.141851  0  3.939226  0  0  -0.137586  0  3.949673  0  0.259081  0  -0.049478  -0.144651  0  3.932513  0
C  C54  1  0.12992722  0.11953352  0.84773859  1  0  -0.371472  0  3.729512  0  0  -0.445657  0  3.964066  0  0  -0.449187  0  3.969988  0  -0.092582  0  -0.237201  -0.44301  0  3.959724  0
C  C55  1  0.87007446  0.88046423  0.15226091  1  0  -0.371412  0  3.729453  0  0  -0.445625  0  3.964032  0  0  -0.449156  0  3.969954  0  -0.092716  0  -0.237204  -0.442982  0  3.9597  0
C  C56  1  0.23953171  0.15059201  0.72400844  1  0  0.236086  0  3.721546  0  0  0.222248  0  3.992576  0  0  0.233819  0  4.01003  0  0.373446  0  0.10549  0.214909  0  3.979948  0
C  C57  1  0.76047104  0.84940767  0.27599022  1  0  0.236152  0  3.721549  0  0  0.222322  0  3.992565  0  0  0.233893  0  4.010019  0  0.373559  0  0.1055  0.214982  0  3.979934  0
C  C58  1  0.38415660  0.13934635  0.69880145  1  0  -0.330713  0  3.704221  0  0  -0.354173  0  3.960704  0  0  -0.366072  0  3.979936  0  0.00999  0  -0.119475  -0.345887  0  3.947009  0
C  C59  1  0.61584720  0.86065334  0.30119696  1  0  -0.330792  0  3.704293  0  0  -0.354317  0  3.960762  0  0  -0.366215  0  3.979992  0  0.009842  0  -0.119529  -0.346028  0  3.947068  0
C  C60  1  0.43542555  0.17209852  0.56546173  1  0  0.297859  0  3.761609  0  0  0.292873  0  4.026441  0  0  0.305037  0  4.043615  0  0.449415  0  0.104768  0.284789  0  4.014824  0
C  C61  1  0.56457721  0.82790117  0.43453606  1  0  0.297913  0  3.761603  0  0  0.292957  0  4.026419  0  0  0.305122  0  4.043589  0  0.449655  0  0.104809  0.284873  0  4.014802  0
C  C62  1  0.58231513  0.16830058  0.48996992  1  0  -0.361516  0  3.705955  0  0  -0.437245  0  3.938669  0  0  -0.441049  0  3.945835  0  -0.02814  0  -0.239681  -0.43404  0  3.933363  0
C  C63  1  0.41768662  0.83170105  0.51002840  1  0  -0.361645  0  3.706039  0  0  -0.437433  0  3.93873  0  0  -0.441224  0  3.945907  0  -0.028297  0  -0.239747  -0.434228  0  3.933425  0
C  C64  1  0.36134325  0.51738691  0.49421600  1  0  -0.109315  0  3.75971  0  0  -0.127067  0  4.007861  0  0  -0.129506  0  4.0293  0  -0.074423  0  -0.092816  -0.12579  0  3.994117  0
C  C65  1  0.63865325  0.48261375  0.50578471  1  0  -0.109254  0  3.759651  0  0  -0.127018  0  4.00776  0  0  -0.129458  0  4.029198  0  -0.074331  0  -0.092811  -0.125743  0  3.994024  0
C  C66  1  0.39447686  0.49067251  0.61038942  1  0  -0.111216  0  3.752075  0  0  -0.134104  0  4.00292  0  0  -0.136604  0  4.025632  0  -0.007896  0  -0.098028  -0.132337  0  3.988205  0
C  C67  1  0.60551861  0.50932911  0.38961124  1  0  -0.111201  0  3.752192  0  0  -0.134083  0  4.00307  0  0  -0.136583  0  4.025789  0  -0.007977  0  -0.098032  -0.132328  0  3.988341  0
C  C68  1  0.46696775  0.52741921  0.38228796  1  0  0.064368  0  3.748674  0  0  0.085657  0  3.987989  0  0  0.084501  0  4.012341  0  -0.042523  0  -0.015686  0.08648  0  3.971842  0
C  C69  1  0.53302769  0.47258048  0.61771329  1  0  0.064344  0  3.74852  0  0  0.085694  0  3.987785  0  0  0.08455  0  4.012145  0  -0.042491  0  -0.015583  0.086519  0  3.971634  0
C  C70  1  0.43160745  0.55902483  0.25553331  1  0  -0.066965  0  3.666853  0  0  -0.136282  0  3.917442  0  0  -0.131501  0  3.927168  0  0.27121  0  -0.048245  -0.139267  0  3.910897  0
C  C71  1  0.56839111  0.44097389  0.74446750  1  0  -0.066905  0  3.666776  0  0  -0.136298  0  3.917481  0  0  -0.131565  0  3.927258  0  0.271227  0  -0.048315  -0.139286  0  3.910936  0
C  C72  1  0.68240899  0.67513517  0.03163779  1  0  -0.358851  0  3.71288  0  0  -0.438137  0  3.948407  0  0  -0.441082  0  3.955112  0  -0.062809  0  -0.231442  -0.435774  0  3.943495  0
C  C73  1  0.31759166  0.32486355  0.96836166  1  0  -0.358955  0  3.712889  0  0  -0.438228  0  3.948415  0  0  -0.441164  0  3.955128  0  -0.062821  0  -0.231476  -0.435862  0  3.94351  0
C  C74  1  0.63826056  0.53650057  0.07934225  1  0  0.244625  0  3.715096  0  0  0.230237  0  3.989144  0  0  0.242337  0  4.0056  0  0.432733  0  0.107396  0.222384  0  3.977835  0
C  C75  1  0.36173802  0.46349912  0.92065914  1  0  0.244709  0  3.714973  0  0  0.230268  0  3.989087  0  0  0.242368  0  4.005538  0  0.433033  0  0.107409  0.222416  0  3.977774  0
C  C76  1  0.70345695  0.43058716  0.04609843  1  0  -0.321547  0  3.703539  0  0  -0.349823  0  3.96276  0  0  -0.361571  0  3.981631  0  -0.037557  0  -0.122072  -0.342273  0  3.949966  0
C  C77  1  0.29654163  0.56941253  0.95390296  1  0  -0.321586  0  3.703549  0  0  -0.349838  0  3.962776  0  0  -0.361587  0  3.981647  0  -0.037553  0  -0.122064  -0.342288  0  3.949979  0
C  C78  1  0.61934098  0.32194198  0.12487378  1  0  0.287116  0  3.7747  0  0  0.282394  0  4.040489  0  0  0.294274  0  4.057576  0  0.409787  0  0.098799  0.274665  0  4.028617  0
C  C79  1  0.38065864  0.67805770  0.87512561  1  0  0.287113  0  3.774724  0  0  0.282402  0  4.040515  0  0  0.294282  0  4.057602  0  0.409849  0  0.098793  0.274674  0  4.028644  0
C  C80  1  0.64392252  0.18476575  0.12798876  1  0  -0.366385  0  3.726028  0  0  -0.442859  0  3.957551  0  0  -0.446397  0  3.964271  0  -0.066673  0  -0.240445  -0.440129  0  3.952856  0
C  C81  1  0.35607604  0.81523297  0.87201117  1  0  -0.366361  0  3.725962  0  0  -0.442821  0  3.957482  0  0  -0.44636  0  3.964204  0  -0.066659  0  -0.240432  -0.440094  0  3.952785  0
C  C82  1  0.08725807  0.44086059  0.26367445  1  0  0.30686  0  4.09544  0  0  0.287041  0  4.39373  0  0  0.310849  0  4.404721  0  0.500444  0  0.152231  0.27106  0  4.385704  0
C  C83  1  0.91274054  0.55914104  0.73632985  1  0  0.306843  0  4.095443  0  0  0.28702  0  4.393751  0  0  0.310829  0  4.404731  0  0.500647  0  0.152215  0.271039  0  4.385724  0
C  C84  1  0.30026239  0.02007429  0.22996865  1  0  0.336116  0  4.056397  0  0  0.316929  0  4.348822  0  0  0.340287  0  4.363049  0  0.524349  0  0.157966  0.301122  0  4.339149  0
C  C85  1  0.69973620  0.97992637  0.77003069  1  0  0.336067  0  4.056487  0  0  0.316882  0  4.34891  0  0  0.34024  0  4.363141  0  0.524707  0  0.157961  0.301076  0  4.339236  0
S  S86  1  0.27614280  0.91221124  0.16799618  1  0  -0.374822  0  1.958178  0  0  -0.352801  0  2.221835  0  0  -0.368459  0  2.218584  0  0.093317  0  -0.168782  -0.341913  0  2.223951  0
S  S87  1  0.72385370  0.08778942  0.83200365  1  0  -0.374817  0  1.958193  0  0  -0.352801  0  2.22186  0  0  -0.368461  0  2.218611  0  0.092989  0  -0.168782  -0.341914  0  2.223976  0
S  S88  1  0.96472651  0.53935532  0.23166436  1  0  -0.34246  0  2.046906  0  0  -0.322626  0  2.321701  0  0  -0.337759  0  2.317038  0  0.132919  0  -0.14928  -0.311988  0  2.324334  0
S  S89  1  0.03527211  0.46064630  0.76833556  1  0  -0.342438  0  2.046941  0  0  -0.32261  0  2.321741  0  0  -0.337739  0  2.317075  0  0.132972  0  -0.149261  -0.311971  0  2.32437  0
N  N90  1  0.17860296  0.36859025  0.28722688  1  0  -0.593434  0  3.053953  0  0  -0.525084  0  3.369632  0  0  -0.546531  0  3.36741  0  -1.371589  0  -0.422337  -0.510412  0  3.370654  0
N  N91  1  0.82139569  0.63141331  0.71277682  1  0  -0.593458  0  3.053956  0  0  -0.525082  0  3.369582  0  0  -0.546547  0  3.367398  0  -1.371838  0  -0.422341  -0.510412  0  3.370605  0
N  N92  1  0.32131791  0.09872424  0.27522110  1  0  -0.596075  0  3.023243  0  0  -0.523083  0  3.334851  0  0  -0.546299  0  3.335688  0  -1.355025  0  -0.419973  -0.507709  0  3.334543  0
N  N93  1  0.67867863  0.90127835  0.72477727  1  0  -0.596033  0  3.023297  0  0  -0.52304  0  3.334889  0  0  -0.546255  0  3.335728  0  -1.355047  0  -0.419973  -0.507668  0  3.334583  0
N  N94  1  0.20912553  0.19216893  0.60878514  1  0  0.017729  0  3.522123  0  0  0.097187  0  3.743563  0  0  0.085055  0  3.771282  0  -0.794348  0  -0.1487  0.105457  0  3.724664  0
N  N95  1  0.79087721  0.80782979  0.39121469  1  0  0.017544  0  3.522277  0  0  0.097063  0  3.743734  0  0  0.084917  0  3.771436  0  -0.794341  0  -0.148707  0.105347  0  3.72484  0
N  N96  1  0.32779729  0.20398400  0.51099800  1  0  -0.3692  0  3.125264  0  0  -0.313511  0  3.423126  0  0  -0.32987  0  3.435155  0  -0.788151  0  -0.254372  -0.302911  0  3.415547  0
N  N97  1  0.67220338  0.79601569  0.48900115  1  0  -0.369073  0  3.125297  0  0  -0.313409  0  3.423132  0  0  -0.32977  0  3.435172  0  -0.788143  0  -0.254342  -0.302809  0  3.415549  0
N  N98  1  0.50724836  0.35881553  0.20328938  1  0  -0.370486  0  3.118428  0  0  -0.311581  0  3.409833  0  0  -0.327946  0  3.421784  0  -0.802437  0  -0.256428  -0.300534  0  3.401776  0
N  N99  1  0.49275125  0.64118319  0.79671119  1  0  -0.370514  0  3.118457  0  0  -0.311671  0  3.40993  0  0  -0.328035  0  3.421877  0  -0.802446  0  -0.256465  -0.300626  0  3.401876  0
N  N100  1  0.51957727  0.49040137  0.17316852  1  0  0.015172  0  3.515204  0  0  0.094288  0  3.735478  0  0  0.082106  0  3.763076  0  -0.790012  0  -0.148482  0.102333  0  3.71704  0
N  N101  1  0.48042235  0.50959832  0.82683262  1  0  0.015167  0  3.515163  0  0  0.094342  0  3.735445  0  0  0.082172  0  3.763051  0  -0.790373  0  -0.14844  0.102386  0  3.717006  0
