# generated using pymatgen
data_CuH16C12S(NO3)2
_symmetry_space_group_name_H-M   'P 1'
_cell_length_a   7.16460379
_cell_length_b   10.07440025
_cell_length_c   10.07440159
_cell_angle_alpha   76.28340967
_cell_angle_beta   84.91936360
_cell_angle_gamma   84.91965195
_symmetry_Int_Tables_number   1
_chemical_formula_structural   CuH16C12S(NO3)2
_chemical_formula_sum   'Cu2 H32 C24 S2 N4 O12'
_cell_volume   701.93058002
_cell_formula_units_Z   2
loop_
 _symmetry_equiv_pos_site_id
 _symmetry_equiv_pos_as_xyz
  1  'x, y, z'
loop_
 _atom_site_type_symbol
 _atom_site_label
 _atom_site_symmetry_multiplicity
 _atom_site_fract_x
 _atom_site_fract_y
 _atom_site_fract_z
 _atom_site_occupancy
 _atom_site_hle17_ddec_charge
 _atom_site_hle17_ddec_spin_density
 _atom_site_hle17_ddec_sum_bond_order
 _atom_site_hle17_magmom
 _atom_site_hse06_10hf_ddec_charge
 _atom_site_hse06_10hf_ddec_spin_density
 _atom_site_hse06_10hf_ddec_sum_bond_order
 _atom_site_hse06_10hf_magmom
 _atom_site_hse06_ddec_charge
 _atom_site_hse06_ddec_spin_density
 _atom_site_hse06_ddec_sum_bond_order
 _atom_site_hse06_magmom
 _atom_site_pbe_cm5_charge
 _atom_site_pbe_ddec_charge
 _atom_site_pbe_ddec_spin_density
 _atom_site_pbe_ddec_sum_bond_order
 _atom_site_pbe_magmom
Cu  Cu0  1  0.24999838  0.78036533  0.21963363  1  0.935381  0.772185  1.752728  0.55  0.911282  0.834999  2.13376  0.655  0.988362  0.899525  2.074752  0.729  0.755027  0.86135  0.786102  2.176153  0.604
Cu  Cu1  1  0.75000495  0.21963189  0.78037060  1  0.935348  -0.772203  1.752923  -0.55  0.911255  -0.835006  2.133875  -0.655  0.988268  -0.899525  2.074915  -0.729  0.755029  0.861319  -0.786104  2.176263  -0.604
H  H2  1  0.11512608  0.93724279  0.43627828  1  0.078706  0.001588  0.971601  0.003  0.087189  0.001167  1.036486  0.002  0.088374  0.000809  1.035365  0.002  0.120078  0.086439  0.001453  1.036883  0.003
H  H3  1  0.38487240  0.56371326  0.06276030  1  0.078739  0.001588  0.971679  0.003  0.087258  0.001164  1.036526  0.002  0.088406  0.000807  1.035447  0.002  0.120106  0.086502  0.001449  1.036933  0.002
H  H4  1  0.88486831  0.06276853  0.56371018  1  0.07867  -0.001576  0.971991  -0.003  0.087153  -0.001161  1.036857  -0.002  0.088321  -0.000804  1.035752  -0.002  0.120073  0.086398  -0.001445  1.037255  -0.002
H  H5  1  0.61513781  0.43629519  0.93723069  1  0.078737  -0.001581  0.971834  -0.003  0.087212  -0.001162  1.036718  -0.002  0.088385  -0.000805  1.035606  -0.002  0.1201  0.086453  -0.001446  1.037119  -0.002
H  H6  1  0.20084539  0.45357462  0.67779681  1  0.137119  0.000842  0.966189  0.001  0.144571  0.000618  1.027602  0.001  0.147819  0.000415  1.02625  0.001  0.111606  0.14189  0.000755  1.029217  0.001
H  H7  1  0.29916422  0.32220522  0.54642502  1  0.137125  0.000855  0.966181  0.001  0.144599  0.000618  1.02757  0.001  0.147852  0.000415  1.026203  0.001  0.111614  0.141937  0.000755  1.029158  0.001
H  H8  1  0.79915408  0.54641947  0.32220750  1  0.137135  -0.000846  0.966282  -0.001  0.144631  -0.000618  1.027646  -0.001  0.147877  -0.000415  1.0263  -0.001  0.111603  0.141997  -0.000755  1.029203  -0.001
H  H9  1  0.70084154  0.67779509  0.45357727  1  0.137071  -0.000865  0.966315  -0.001  0.144596  -0.000618  1.02764  -0.001  0.147847  -0.000415  1.026278  -0.001  0.111595  0.141925  -0.000755  1.02925  -0.001
H  H10  1  0.05607243  0.87429133  0.69209815  1  0.119724  0.000262  0.967429  0.001  0.129727  0.00016  1.026731  0.0  0.133056  0.000118  1.025353  0.0  0.110673  0.127101  0.000179  1.02826  0.001
H  H11  1  0.44392613  0.30789642  0.12571303  1  0.119478  0.000259  0.967343  0.001  0.129518  0.00016  1.026634  0.0  0.132847  0.000119  1.025257  0.0  0.110613  0.126913  0.000179  1.028139  0.001
H  H12  1  0.94391570  0.12571377  0.30789332  1  0.119461  -0.000265  0.967253  -0.001  0.129431  -0.000161  1.026665  0.0  0.13276  -0.000119  1.025289  0.0  0.1106  0.126829  -0.00018  1.028165  -0.001
H  H13  1  0.55607492  0.69210683  0.87428192  1  0.119465  -0.000256  0.967373  -0.001  0.129487  -0.000161  1.026692  0.0  0.132816  -0.000119  1.025315  0.0  0.110603  0.126883  -0.00018  1.028194  -0.001
H  H14  1  0.19497795  0.65950263  0.90711328  1  0.126046  -0.000291  0.966427  0.0  0.146014  -5.8e-05  1.03089  0.0  0.147616  -8.8e-05  1.030417  0.0  0.095604  0.144494  -5.9e-05  1.031524  0.0
H  H15  1  0.30501702  0.09288594  0.34050251  1  0.126048  -0.00029  0.966403  0.0  0.146008  -5.8e-05  1.030863  0.0  0.14761  -8.8e-05  1.030393  0.0  0.095619  0.144487  -5.8e-05  1.031499  0.0
H  H16  1  0.80501860  0.34049134  0.09288532  1  0.126004  0.000293  0.966375  0.0  0.145955  5.8e-05  1.030871  0.0  0.147554  8.9e-05  1.030406  0.0  0.095572  0.144432  5.9e-05  1.0315  0.0
H  H17  1  0.69497679  0.90712036  0.65949717  1  0.125954  0.000288  0.966401  0.0  0.145934  5.8e-05  1.030842  0.0  0.147533  8.9e-05  1.030375  0.0  0.095557  0.144414  5.8e-05  1.031468  0.0
H  H18  1  0.10306684  0.50388724  0.89308285  1  0.125573  5.1e-05  0.950722  0.0  0.146735  5.4e-05  1.008547  0.0  0.148285  3.2e-05  1.008567  0.0  0.096405  0.145363  4.1e-05  1.00873  0.0
H  H19  1  0.39692406  0.10691519  0.49611862  1  0.125547  4.9e-05  0.950853  0.0  0.146698  5.4e-05  1.00867  0.0  0.14825  3.2e-05  1.008688  0.0  0.096387  0.145329  4.1e-05  1.008845  0.0
H  H20  1  0.89692641  0.49610969  0.10690830  1  0.125564  -5.8e-05  0.950781  0.0  0.146695  -5.4e-05  1.008617  0.0  0.148248  -3.2e-05  1.008634  0.0  0.096395  0.145327  -4.1e-05  1.008794  0.0
H  H21  1  0.60307140  0.89308909  0.50388244  1  0.125594  -5.9e-05  0.950799  0.0  0.146703  -5.4e-05  1.008659  0.0  0.148255  -3.2e-05  1.008678  0.0  0.096395  0.145333  -4e-05  1.008833  0.0
H  H22  1  0.95417610  0.65654759  0.89220418  1  0.126128  -0.000323  0.945201  0.0  0.146317  -0.000167  1.006348  0.0  0.147799  -0.00015  1.006403  0.0  0.09651  0.144738  -0.000169  1.00675  0.0
H  H23  1  0.54582213  0.10778802  0.34346205  1  0.126093  -0.000323  0.945159  0.0  0.146261  -0.000167  1.006336  0.0  0.147743  -0.00015  1.006393  0.0  0.09649  0.144684  -0.000169  1.006734  0.0
H  H24  1  0.04581872  0.34344945  0.10779477  1  0.126123  0.000315  0.945106  0.0  0.146308  0.000168  1.006281  0.0  0.147801  0.00015  1.006322  0.0  0.096492  0.144706  0.000169  1.006703  0.0
H  H25  1  0.45417858  0.89220708  0.65653992  1  0.126068  0.000317  0.945143  0.0  0.146222  0.000167  1.006339  0.0  0.147706  0.00015  1.006392  0.0  0.096477  0.144638  0.000169  1.006746  0.0
H  H26  1  0.02473145  0.98157957  0.17403972  1  0.417296  -0.000258  0.897789  -0.001  0.384209  0.000269  0.96651  0.0  0.395985  0.000107  0.949752  0.0  0.286733  0.375723  0.000387  0.978575  0.0
H  H27  1  0.47526576  0.82596426  0.01842032  1  0.417294  -0.000261  0.897773  -0.001  0.38421  0.000269  0.966489  0.0  0.395984  0.000107  0.949735  0.0  0.286707  0.375728  0.000386  0.978547  0.0
H  H28  1  0.97526649  0.01841551  0.82596346  1  0.417287  0.000258  0.897814  0.001  0.384198  -0.000269  0.966534  0.0  0.395975  -0.000108  0.949775  0.0  0.286718  0.375711  -0.000387  0.978599  0.0
H  H29  1  0.52473483  0.17403186  0.98158141  1  0.417314  0.000259  0.897773  0.001  0.384225  -0.000269  0.966491  0.0  0.396003  -0.000107  0.949731  0.0  0.286707  0.375738  -0.000386  0.978554  0.0
H  H30  1  0.22415729  0.04158221  0.11202398  1  0.429499  -2.5e-05  0.873749  -0.001  0.40013  0.000529  0.93498  0.0  0.412166  0.000356  0.917907  0.0  0.291275  0.391391  0.00058  0.947437  0.0
H  H31  1  0.27583803  0.88797532  0.95841481  1  0.429478  -2.5e-05  0.873785  -0.001  0.400113  0.000529  0.93501  0.0  0.412149  0.000357  0.917935  0.0  0.291256  0.391376  0.00058  0.947462  0.0
H  H32  1  0.77583741  0.95841696  0.88798041  1  0.429617  2.6e-05  0.87358  0.001  0.400095  -0.000529  0.935004  0.0  0.412124  -0.000357  0.917935  0.0  0.291305  0.39136  -0.00058  0.947455  0.0
H  H33  1  0.72416102  0.11202180  0.04158579  1  0.429595  2.6e-05  0.873604  0.001  0.400053  -0.000529  0.935063  0.0  0.412085  -0.000357  0.917989  0.0  0.291286  0.391317  -0.00058  0.947518  0.0
C  C34  1  0.13303934  0.83180909  0.49466605  1  0.14779  -0.007192  3.697774  -0.008  0.120114  -0.000472  3.953923  -0.002  0.129776  -0.001553  3.973222  -0.003  0.055215  0.113846  0.000287  3.940479  -0.001
C  C35  1  0.36696479  0.50532988  0.16818254  1  0.147851  -0.007225  3.697322  -0.008  0.120111  -0.000474  3.95345  -0.002  0.129801  -0.001559  3.972756  -0.003  0.055196  0.113853  0.000285  3.940025  -0.001
C  C36  1  0.86696773  0.16816653  0.50533536  1  0.147759  0.0072  3.696523  0.008  0.120061  0.000475  3.952674  0.002  0.129738  0.001561  3.971963  0.003  0.055145  0.113811  -0.000283  3.939244  0.001
C  C37  1  0.63304031  0.49466538  0.83182801  1  0.147775  0.007214  3.696588  0.008  0.12006  0.000476  3.952788  0.002  0.129733  0.001557  3.972078  0.003  0.055123  0.113807  -0.000283  3.939353  0.001
C  C38  1  0.21720808  0.60562104  0.48571970  1  0.183783  -0.003709  3.764807  -0.004  0.180027  0.000596  4.015147  0.0  0.188999  -0.000507  4.034705  -0.001  0.121229  0.174461  0.001363  4.001312  0.001
C  C39  1  0.28279778  0.51428290  0.39437326  1  0.183971  -0.003693  3.765055  -0.004  0.180309  0.000596  4.015232  0.0  0.189281  -0.000511  4.034789  -0.001  0.121232  0.174745  0.001361  4.001413  0.001
C  C40  1  0.78280069  0.39436600  0.51428865  1  0.18385  0.003696  3.765076  0.004  0.180127  -0.000602  4.015377  0.0  0.189099  0.000507  4.034935  0.001  0.121235  0.174564  -0.001367  4.001561  -0.001
C  C41  1  0.71720909  0.48570821  0.60563323  1  0.184087  0.003698  3.764913  0.004  0.180312  -0.000599  4.015274  0.0  0.189284  0.000504  4.034832  0.001  0.121284  0.174742  -0.001366  4.001445  -0.001
C  C42  1  0.18392798  0.56199878  0.62731414  1  -0.194542  0.007102  3.625926  0.007  -0.218696  0.002544  3.867195  0.003  -0.227022  0.002275  3.887095  0.002  -0.077408  -0.213847  0.002907  3.854543  0.003
C  C43  1  0.31607813  0.37268939  0.43801145  1  -0.194698  0.007069  3.625262  0.007  -0.218848  0.002545  3.866551  0.003  -0.227171  0.002282  3.886448  0.002  -0.077475  -0.21401  0.00291  3.853886  0.003
C  C44  1  0.81607488  0.43801486  0.37268801  1  -0.194651  -0.007096  3.624737  -0.007  -0.218804  -0.002546  3.866087  -0.003  -0.227134  -0.002285  3.885982  -0.002  -0.077435  -0.21399  -0.002912  3.853416  -0.003
C  C45  1  0.68392808  0.62731694  0.56197837  1  -0.194558  -0.007045  3.624749  -0.007  -0.218748  -0.002547  3.866047  -0.003  -0.227071  -0.002281  3.88594  -0.002  -0.077396  -0.213905  -0.002912  3.853395  -0.003
C  C46  1  0.12529826  0.65783435  0.70552287  1  0.219335  -0.008649  3.719846  -0.008  0.238857  -0.002561  3.958749  -0.003  0.245908  -0.002711  3.979794  -0.003  0.019687  0.234223  -0.002514  3.944627  -0.003
C  C47  1  0.37471141  0.29447538  0.34215735  1  0.219336  -0.008658  3.719641  -0.008  0.238701  -0.002561  3.958777  -0.003  0.245751  -0.002715  3.979825  -0.003  0.019648  0.23406  -0.002514  3.944675  -0.003
C  C48  1  0.87471237  0.34214642  0.29447500  1  0.219202  0.008649  3.719792  0.008  0.238576  0.00256  3.958933  0.003  0.245627  0.002716  3.979979  0.003  0.0196  0.233938  0.002513  3.944835  0.003
C  C49  1  0.62529163  0.70552494  0.65784911  1  0.219229  0.00864  3.720055  0.008  0.238675  0.002559  3.959074  0.003  0.245724  0.002713  3.98012  0.003  0.019623  0.234038  0.002513  3.944971  0.003
C  C50  1  0.10026733  0.79557467  0.63599149  1  -0.172792  0.010844  3.671749  0.012  -0.190495  0.004194  3.915583  0.005  -0.199335  0.003641  3.935742  0.004  -0.079522  -0.184686  0.004686  3.902321  0.006
C  C51  1  0.39972863  0.36400537  0.20444196  1  -0.172495  0.010865  3.67203  0.012  -0.190187  0.004189  3.915963  0.005  -0.199027  0.003642  3.936118  0.004  -0.079404  -0.184388  0.004681  3.902689  0.006
C  C52  1  0.89972406  0.20445100  0.36399658  1  -0.172382  -0.010834  3.671999  -0.012  -0.190059  -0.004188  3.916016  -0.005  -0.1989  -0.003642  3.936176  -0.004  -0.079394  -0.184263  -0.00468  3.902746  -0.006
C  C53  1  0.60027660  0.63600913  0.79554489  1  -0.172448  -0.010863  3.672182  -0.012  -0.190182  -0.004191  3.916132  -0.005  -0.199023  -0.003638  3.936294  -0.004  -0.079415  -0.18439  -0.004681  3.902866  -0.006
C  C54  1  0.09248304  0.61563498  0.85767275  1  -0.359485  0.000433  3.685303  0.001  -0.439137  -5.3e-05  3.91496  0.0  -0.442965  -7e-05  3.923897  0.0  -0.239998  -0.435783  -7e-06  3.909061  0.0
C  C55  1  0.40751412  0.14232381  0.38437307  1  -0.359406  0.000439  3.685269  0.001  -0.438981  -5.3e-05  3.915013  0.0  -0.442812  -7e-05  3.923955  0.0  -0.239958  -0.435636  -7e-06  3.909112  0.0
C  C56  1  0.90750976  0.38436716  0.14232408  1  -0.359347  -0.000417  3.685192  -0.001  -0.43893  5.2e-05  3.914887  0.0  -0.442769  6.8e-05  3.923829  0.0  -0.239917  -0.435548  7e-06  3.909006  0.0
C  C57  1  0.59248721  0.85767741  0.61562435  1  -0.359309  -0.000408  3.685125  -0.001  -0.43887  5.3e-05  3.914843  0.0  -0.442703  6.8e-05  3.923787  0.0  -0.239915  -0.435513  7e-06  3.90894  0.0
S  S58  1  0.74999252  0.84134277  0.15866313  1  1.562715  -0.000404  5.82552  0.0  1.448893  -0.000428  6.361945  0.0  1.504116  -0.000323  6.325179  0.0  0.552811  1.410398  -0.00031  6.385279  0.0
S  S59  1  0.25000382  0.15865436  0.84134164  1  1.562798  0.000415  5.825561  0.0  1.448939  0.000428  6.362042  0.0  1.50418  0.000323  6.32526  0.0  0.552784  1.410438  0.00031  6.385368  0.0
N  N60  1  0.19090338  0.73944143  0.42111523  1  -0.321158  0.09335  3.300317  0.116  -0.284822  0.060575  3.596127  0.08  -0.315743  0.049705  3.617677  0.069  -0.345252  -0.265394  0.067221  3.582628  0.086
N  N61  1  0.30908923  0.57888628  0.26057038  1  -0.321323  0.09334  3.300249  0.116  -0.284917  0.060569  3.595966  0.08  -0.315833  0.049703  3.617496  0.069  -0.345235  -0.265521  0.067212  3.582511  0.086
N  N62  1  0.80909003  0.26058243  0.57889101  1  -0.321116  -0.093363  3.299953  -0.116  -0.284704  -0.060576  3.595679  -0.08  -0.315607  -0.049712  3.617207  -0.069  -0.345158  -0.265311  -0.067224  3.582224  -0.086
N  N63  1  0.69091915  0.42111285  0.73941811  1  -0.321327  -0.093365  3.300261  -0.116  -0.284907  -0.060578  3.596016  -0.08  -0.315811  -0.049707  3.617548  -0.069  -0.345179  -0.265491  -0.067226  3.582536  -0.086
O  O64  1  0.81049224  0.98340776  0.15443151  1  -0.754757  -0.000377  1.966255  0.0  -0.681938  -0.000338  2.191071  0.0  -0.703945  -0.000255  2.171797  0.0  -0.365091  -0.66571  -0.000786  2.20424  -0.001
O  O65  1  0.68950194  0.84557163  0.01659693  1  -0.7548  -0.000354  1.966183  0.0  -0.682002  -0.000326  2.191005  0.0  -0.703998  -0.000257  2.171729  0.0  -0.365116  -0.665783  -0.000787  2.204174  -0.001
O  O66  1  0.18950671  0.01659040  0.84556983  1  -0.754834  0.000356  1.966247  0.0  -0.682068  0.00033  2.191065  0.0  -0.704083  0.000255  2.171788  0.0  -0.365117  -0.665834  0.000786  2.204227  0.001
O  O67  1  0.31049485  0.15442139  0.98340783  1  -0.754817  0.000387  1.96618  0.0  -0.682053  0.000335  2.191011  0.0  -0.704068  0.000253  2.171732  0.0  -0.365113  -0.665813  0.000786  2.204171  0.001
O  O68  1  0.91157363  0.74068733  0.18981834  1  -0.741956  -0.000991  1.942653  0.0  -0.70673  -0.001149  2.210785  0.0  -0.727611  -0.001223  2.191091  -0.001  -0.369121  -0.690952  -0.00139  2.224026  -0.001
O  O69  1  0.58840926  0.81019632  0.25931659  1  -0.742032  -0.000991  1.942617  0.0  -0.70678  -0.00115  2.210709  0.0  -0.727668  -0.001224  2.191027  -0.001  -0.369207  -0.690994  -0.00139  2.22394  -0.001
O  O70  1  0.08842295  0.25930886  0.81019260  1  -0.741926  0.000991  1.942622  0.0  -0.706694  0.001151  2.210755  0.0  -0.727571  0.001226  2.191057  0.001  -0.369122  -0.690912  0.001391  2.223989  0.001
O  O71  1  0.41158663  0.18980603  0.74069386  1  -0.742009  0.000967  1.94272  0.0  -0.706771  0.001146  2.210872  0.0  -0.727651  0.001228  2.191175  0.001  -0.369161  -0.690991  0.00139  2.224104  0.001
O  O72  1  0.16246146  0.97794529  0.19390788  1  -0.815371  0.068269  1.965533  0.088  -0.782141  0.04531  2.189864  0.063  -0.815386  0.0356  2.156435  0.052  -0.582494  -0.75915  0.052276  2.213778  0.07
O  O73  1  0.33753485  0.80609256  0.02205223  1  -0.815327  0.068269  1.965486  0.088  -0.782125  0.045307  2.189855  0.063  -0.815363  0.035598  2.156412  0.052  -0.582442  -0.759136  0.052273  2.21376  0.07
O  O74  1  0.83753614  0.02205288  0.80609554  1  -0.81545  -0.068255  1.965395  -0.088  -0.782088  -0.0453  2.189979  -0.063  -0.815309  -0.035594  2.156552  -0.052  -0.582506  -0.759102  -0.052267  2.213876  -0.07
O  O75  1  0.66246266  0.19390556  0.97794725  1  -0.815451  -0.068258  1.965365  -0.088  -0.78208  -0.0453  2.189973  -0.063  -0.815301  -0.035594  2.156537  -0.052  -0.582474  -0.759098  -0.052267  2.213875  -0.07
