# generated using pymatgen
data_Ag2H20C13(N5O2)2
_symmetry_space_group_name_H-M   'P 1'
_cell_length_a   7.15286170
_cell_length_b   11.63684363
_cell_length_c   12.69815033
_cell_angle_alpha   62.82650899
_cell_angle_beta   74.25448156
_cell_angle_gamma   75.93126906
_symmetry_Int_Tables_number   1
_chemical_formula_structural   Ag2H20C13(N5O2)2
_chemical_formula_sum   'Ag4 H40 C26 N20 O8'
_cell_volume   896.20506816
_cell_formula_units_Z   2
loop_
 _symmetry_equiv_pos_site_id
 _symmetry_equiv_pos_as_xyz
  1  'x, y, z'
loop_
 _atom_site_type_symbol
 _atom_site_label
 _atom_site_symmetry_multiplicity
 _atom_site_fract_x
 _atom_site_fract_y
 _atom_site_fract_z
 _atom_site_occupancy
 _atom_site_hle17_bader_spin_density
 _atom_site_hle17_ddec_charge
 _atom_site_hle17_ddec_spin_density
 _atom_site_hle17_ddec_sum_bond_order
 _atom_site_hle17_magmom
 _atom_site_hse06_10hf_bader_spin_density
 _atom_site_hse06_10hf_ddec_charge
 _atom_site_hse06_10hf_ddec_spin_density
 _atom_site_hse06_10hf_ddec_sum_bond_order
 _atom_site_hse06_10hf_magmom
 _atom_site_hse06_bader_spin_density
 _atom_site_hse06_ddec_charge
 _atom_site_hse06_ddec_spin_density
 _atom_site_hse06_ddec_sum_bond_order
 _atom_site_hse06_magmom
 _atom_site_pbe_bader_spin_density
 _atom_site_pbe_cm5_charge
 _atom_site_pbe_ddec_charge
 _atom_site_pbe_ddec_spin_density
 _atom_site_pbe_ddec_sum_bond_order
 _atom_site_pbe_magmom
Ag  Ag0  1  0.03286169  0.45916704  0.67359001  1  0  0.519927  0  1.477218  0  0  0.382184  0  1.96675  0  0  0.422159  0  1.898773  0  0  0.402982  0.354434  0  2.013695  0
Ag  Ag1  1  0.96713850  0.54083321  0.32640912  1  0  0.519935  0  1.47721  0  0  0.382202  0  1.966746  0  0  0.422173  0  1.898769  0  0  0.402993  0.354453  0  2.013685  0
Ag  Ag2  1  0.24873548  0.59337616  0.43922607  1  0  0.53269  0  1.511019  0  0  0.40395  0  2.002111  0  0  0.441065  0  1.934443  0  0  0.405115  0.37853  0  2.048654  0
Ag  Ag3  1  0.75126370  0.40662212  0.56077326  1  0  0.532684  0  1.511041  0  0  0.403959  0  2.002098  0  0  0.441077  0  1.934433  0  0  0.405128  0.378542  0  2.04864  0
H  H4  1  0.91759695  0.28169832  0.28714554  1  0  0.133202  0  0.961004  0  0  0.153551  0  1.020751  0  0  0.156  0  1.019495  0  0  0.101061  0.151787  0  1.021682  0
H  H5  1  0.08240177  0.71830193  0.71285539  1  0  0.133199  0  0.960905  0  0  0.153554  0  1.020666  0  0  0.156002  0  1.019405  0  0  0.101045  0.15179  0  1.021596  0
H  H6  1  0.00055339  0.11805124  0.30052650  1  0  0.125512  0  0.939622  0  0  0.149203  0  0.993521  0  0  0.150903  0  0.993362  0  0  0.09901  0.147923  0  0.993745  0
H  H7  1  0.99944365  0.88194998  0.69947505  1  0  0.125469  0  0.939631  0  0  0.1492  0  0.993501  0  0  0.150867  0  0.993386  0  0  0.099011  0.147919  0  0.993724  0
H  H8  1  0.74671973  0.18316902  0.30821316  1  0  0.119468  0  0.96217  0  0  0.141428  0  1.022495  0  0  0.143685  0  1.021308  0  0  0.098172  0.139816  0  1.023364  0
H  H9  1  0.25327877  0.81683222  0.69178817  1  0  0.119455  0  0.962184  0  0  0.141449  0  1.022479  0  0  0.143705  0  1.021289  0  0  0.098182  0.139835  0  1.023348  0
H  H10  1  0.54416097  0.80039715  0.81797613  1  0  0.124603  0  0.945354  0  0  0.148122  0  0.999524  0  0  0.15013  0  0.998748  0  0  0.098497  0.146607  0  1.000213  0
H  H11  1  0.45583900  0.19960408  0.18202262  1  0  0.124594  0  0.945362  0  0  0.148112  0  0.999538  0  0  0.15012  0  0.99876  0  0  0.098493  0.146597  0  1.000226  0
H  H12  1  0.35760720  0.93418155  0.82035306  1  0  0.125648  0  0.952562  0  0  0.147095  0  1.01151  0  0  0.148952  0  1.011369  0  0  0.098684  0.145771  0  1.01162  0
H  H13  1  0.64239341  0.06581676  0.17964762  1  0  0.1256  0  0.952533  0  0  0.147048  0  1.011489  0  0  0.148904  0  1.011352  0  0  0.098664  0.145723  0  1.0116  0
H  H14  1  0.60380597  0.93898022  0.82076020  1  0  0.128221  0  0.964052  0  0  0.14551  0  1.032801  0  0  0.148104  0  1.031698  0  0  0.097633  0.143689  0  1.033554  0
H  H15  1  0.39619175  0.06101806  0.17924014  1  0  0.128215  0  0.964014  0  0  0.145526  0  1.032742  0  0  0.14812  0  1.031638  0  0  0.097647  0.143704  0  1.033495  0
H  H16  1  0.85901033  0.96153660  0.51064515  1  0  0.098167  0  0.940178  0  0  0.114176  0  1.000837  0  0  0.115782  0  1.000585  0  0  0.098782  0.112972  0  1.001119  0
H  H17  1  0.14098919  0.03846658  0.48935441  1  0  0.098204  0  0.940172  0  0  0.114191  0  1.000846  0  0  0.115796  0  1.000599  0  0  0.098809  0.112989  0  1.001126  0
H  H18  1  0.66651211  0.87116597  0.61130890  1  0  0.092385  0  0.956456  0  0  0.108698  0  1.015849  0  0  0.110301  0  1.015486  0  0  0.095299  0.107484  0  1.016244  0
H  H19  1  0.33349219  0.12883528  0.38868996  1  0  0.092381  0  0.956413  0  0  0.108688  0  1.015806  0  0  0.110293  0  1.015443  0  0  0.095281  0.107473  0  1.016204  0
H  H20  1  0.59467396  0.02375604  0.40334995  1  0  0.052918  0  0.993166  0  0  0.072639  0  1.058053  0  0  0.072622  0  1.059297  0  0  0.089114  0.072587  0  1.05725  0
H  H21  1  0.40532788  0.97624324  0.59664934  1  0  0.052908  0  0.993156  0  0  0.072632  0  1.058053  0  0  0.072615  0  1.059294  0  0  0.089122  0.072581  0  1.057244  0
H  H22  1  0.78790017  0.93421635  0.34095351  1  0  0.073732  0  0.947023  0  0  0.093397  0  1.007735  0  0  0.09449  0  1.007996  0  0  0.095787  0.092521  0  1.007693  0
H  H23  1  0.21210290  0.06578393  0.65904674  1  0  0.073712  0  0.947039  0  0  0.093381  0  1.007755  0  0  0.094475  0  1.008015  0  0  0.095782  0.092506  0  1.007712  0
H  H24  1  0.42776214  0.81658250  0.52488495  1  0  0.098826  0  0.944391  0  0  0.115331  0  1.002845  0  0  0.116855  0  1.002709  0  0  0.096537  0.114192  0  1.003061  0
H  H25  1  0.57224114  0.18341681  0.47511726  1  0  0.098828  0  0.944408  0  0  0.11535  0  1.002833  0  0  0.116873  0  1.002698  0  0  0.09656  0.114211  0  1.00305  0
H  H26  1  0.45055456  0.88153779  0.36717423  1  0  0.110374  0  0.926992  0  0  0.127754  0  0.984208  0  0  0.129504  0  0.984122  0  0  0.104243  0.126448  0  0.984412  0
H  H27  1  0.54944893  0.11846054  0.63282758  1  0  0.110363  0  0.92696  0  0  0.127738  0  0.984181  0  0  0.129488  0  0.984096  0  0  0.104218  0.126433  0  0.984385  0
H  H28  1  0.17979019  0.19680128  0.80766229  1  0  0.338627  0  0.925329  0  0  0.319344  0  0.988107  0  0  0.327583  0  0.981507  0  0  0.296365  0.313544  0  0.992711  0
H  H29  1  0.82020874  0.80319799  0.19233901  1  0  0.338625  0  0.925332  0  0  0.319341  0  0.988106  0  0  0.32758  0  0.981506  0  0  0.296358  0.313541  0  0.99271  0
H  H30  1  0.22053280  0.06799594  0.94964646  1  0  0.328231  0  0.928238  0  0  0.300169  0  1.008832  0  0  0.309644  0  1.000471  0  0  0.291536  0.293499  0  1.014644  0
H  H31  1  0.77946760  0.93200333  0.05035305  1  0  0.328272  0  0.928216  0  0  0.300214  0  1.008795  0  0  0.309689  0  1.000434  0  0  0.29156  0.293543  0  1.014608  0
H  H32  1  0.67444718  0.59219301  0.94899171  1  0  0.327464  0  0.930616  0  0  0.298193  0  1.013816  0  0  0.307614  0  1.005621  0  0  0.291382  0.291575  0  1.019506  0
H  H33  1  0.32554910  0.40780526  0.05100806  1  0  0.327449  0  0.930624  0  0  0.298196  0  1.013816  0  0  0.307617  0  1.005622  0  0  0.291376  0.291578  0  1.019506  0
H  H34  1  0.76824170  0.58374890  0.80685868  1  0  0.335338  0  0.922257  0  0  0.31658  0  0.986021  0  0  0.324423  0  0.979525  0  0  0.296703  0.311043  0  0.990608  0
H  H35  1  0.23175455  0.41624937  0.19314266  1  0  0.335324  0  0.92226  0  0  0.31657  0  0.986022  0  0  0.324412  0  0.979526  0  0  0.296675  0.311033  0  0.99061  0
H  H36  1  0.66244446  0.46862515  0.17337940  1  0  0.326696  0  0.932487  0  0  0.298106  0  1.013078  0  0  0.307559  0  1.005056  0  0  0.290387  0.291451  0  1.018641  0
H  H37  1  0.33755470  0.53137314  0.82662072  1  0  0.326706  0  0.932486  0  0  0.298123  0  1.01306  0  0  0.307576  0  1.005041  0  0  0.290399  0.291468  0  1.018622  0
H  H38  1  0.53667241  0.46793789  0.31586729  1  0  0.339869  0  0.920771  0  0  0.319117  0  0.987787  0  0  0.327572  0  0.980279  0  0  0.295901  0.31311  0  0.993168  0
H  H39  1  0.46332777  0.53206236  0.68413262  1  0  0.339862  0  0.920775  0  0  0.319109  0  0.987791  0  0  0.327563  0  0.980284  0  0  0.295902  0.313102  0  0.99317  0
H  H40  1  0.12052404  0.99406356  0.17034013  1  0  0.3205  0  0.940934  0  0  0.291888  0  1.023898  0  0  0.301411  0  1.01527  0  0  0.289761  0.285167  0  1.029939  0
H  H41  1  0.87947657  0.00593475  0.82966054  1  0  0.320498  0  0.940915  0  0  0.291878  0  1.023892  0  0  0.301401  0  1.015266  0  0  0.289757  0.285156  0  1.029935  0
H  H42  1  0.13438042  0.85834362  0.31314759  1  0  0.335647  0  0.935205  0  0  0.313739  0  1.004122  0  0  0.322377  0  0.9966  0  0  0.293244  0.307635  0  1.009441  0
H  H43  1  0.86562287  0.14165568  0.68685226  1  0  0.335661  0  0.935186  0  0  0.313758  0  1.004098  0  0  0.322395  0  0.996574  0  0  0.293235  0.307653  0  1.009417  0
C  C44  1  0.04777834  0.23458321  0.95541941  1  0  0.684708  0  3.83204  0  0  0.632335  0  4.114389  0  0  0.662032  0  4.119881  0  0  0.345345  0.612442  0  4.110056  0
C  C45  1  0.95222038  0.76541705  0.04458152  1  0  0.684791  0  3.831996  0  0  0.632402  0  4.114347  0  0  0.662095  0  4.119843  0  0  0.345353  0.612508  0  4.110018  0
C  C46  1  0.91819485  0.25672482  0.13137843  1  0  0.529699  0  3.799653  0  0  0.510612  0  4.067933  0  0  0.533608  0  4.076572  0  0  0.248036  0.495385  0  4.061494  0
C  C47  1  0.08180510  0.74327642  0.86862189  1  0  0.529811  0  3.799533  0  0  0.510671  0  4.067876  0  0  0.533671  0  4.076508  0  0  0.248045  0.495444  0  4.061435  0
C  C48  1  0.84974852  0.42323511  0.95447560  1  0  0.686521  0  3.838793  0  0  0.633142  0  4.12186  0  0  0.662988  0  4.126862  0  0  0.345706  0.613152  0  4.11786  0
C  C49  1  0.15024796  0.57676219  0.04552612  1  0  0.686425  0  3.839027  0  0  0.633116  0  4.121992  0  0  0.662965  0  4.126994  0  0  0.345671  0.613126  0  4.117995  0
C  C50  1  0.89632758  0.20597328  0.26477562  1  0  -0.394224  0  3.653753  0  0  -0.476099  0  3.887096  0  0  -0.480649  0  3.890678  0  0  -0.236557  -0.472755  0  3.88444  0
C  C51  1  0.10367092  0.79402795  0.73522493  1  0  -0.394198  0  3.653675  0  0  -0.476145  0  3.88706  0  0  -0.480672  0  3.890661  0  0  -0.23657  -0.4728  0  3.884402  0
C  C52  1  0.29482563  0.82827089  0.16459007  1  0  0.68381  0  3.837823  0  0  0.63329  0  4.114555  0  0  0.663074  0  4.119566  0  0  0.345559  0.613316  0  4.11054  0
C  C53  1  0.70517623  0.17172838  0.83540843  1  0  0.683717  0  3.837802  0  0  0.633251  0  4.114467  0  0  0.663006  0  4.119519  0  0  0.345566  0.613275  0  4.110454  0
C  C54  1  0.45074124  0.81344332  0.98814035  1  0  0.541816  0  3.761301  0  0  0.520311  0  4.033841  0  0  0.543969  0  4.041274  0  0  0.252488  0.504652  0  4.028256  0
C  C55  1  0.54925959  0.18655401  0.01186070  1  0  0.542041  0  3.761005  0  0  0.52038  0  4.033764  0  0  0.544039  0  4.041193  0  0  0.252483  0.50472  0  4.028181  0
C  C56  1  0.49010589  0.63849943  0.16657219  1  0  0.683605  0  3.832787  0  0  0.631345  0  4.113029  0  0  0.661155  0  4.118529  0  0  0.34531  0.611319  0  4.108762  0
C  C57  1  0.50989451  0.36149985  0.83342732  1  0  0.683588  0  3.83292  0  0  0.631351  0  4.113124  0  0  0.661162  0  4.11863  0  0  0.345292  0.611349  0  4.108825  0
C  C58  1  0.49118844  0.87468548  0.85345548  1  0  -0.39574  0  3.652898  0  0  -0.478625  0  3.890873  0  0  -0.483471  0  3.894191  0  0  -0.236817  -0.475095  0  3.888424  0
C  C59  1  0.50880884  0.12531476  0.14654409  1  0  -0.395738  0  3.65274  0  0  -0.478591  0  3.89078  0  0  -0.483438  0  3.894096  0  0  -0.236806  -0.47506  0  3.888332  0
C  C60  1  0.91502334  0.75840115  0.54854089  1  0  0.694446  0  3.86262  0  0  0.643265  0  4.15142  0  0  0.677653  0  4.14805  0  0  0.206124  0.619789  0  4.152945  0
C  C61  1  0.08498077  0.24160108  0.45145603  1  0  0.694458  0  3.862474  0  0  0.643289  0  4.151261  0  0  0.677678  0  4.147891  0  0  0.206178  0.619813  0  4.152788  0
C  C62  1  0.77602219  0.88447501  0.52872087  1  0  -0.266126  0  3.668113  0  0  -0.303822  0  3.919877  0  0  -0.310343  0  3.929121  0  0  -0.166927  -0.299228  0  3.913373  0
C  C63  1  0.22398067  0.11552623  0.47127822  1  0  -0.266184  0  3.668063  0  0  -0.30385  0  3.919835  0  0  -0.310377  0  3.929088  0  0  -0.166944  -0.299256  0  3.913333  0
C  C64  1  0.67577573  0.92590965  0.42171501  1  0  -0.070755  0  3.69702  0  0  -0.11722  0  3.954288  0  0  -0.117036  0  3.96844  0  0  -0.164689  -0.117155  0  3.944491  0
C  C65  1  0.32422590  0.07409061  0.57828468  1  0  -0.070697  0  3.697001  0  0  -0.117194  0  3.954298  0  0  -0.117006  0  3.96845  0  0  -0.1647  -0.117127  0  3.944499  0
C  C66  1  0.53486814  0.83557673  0.44063340  1  0  -0.260556  0  3.64901  0  0  -0.294106  0  3.895541  0  0  -0.300515  0  3.904322  0  0  -0.166174  -0.289639  0  3.889459  0
C  C67  1  0.46513224  0.16442256  0.55936769  1  0  -0.26062  0  3.648958  0  0  -0.29416  0  3.89552  0  0  -0.300572  0  3.904307  0  0  -0.16619  -0.289693  0  3.88944  0
C  C68  1  0.63900656  0.70599455  0.43947010  1  0  0.706192  0  3.829324  0  0  0.650228  0  4.121229  0  0  0.685547  0  4.117077  0  0  0.206989  0.626082  0  4.123314  0
C  C69  1  0.36099527  0.29400476  0.56053233  1  0  0.706257  0  3.829265  0  0  0.650247  0  4.121229  0  0  0.685568  0  4.117078  0  0  0.206985  0.626101  0  4.123316  0
N  N70  1  0.96405709  0.35674754  0.88998199  1  0  -0.620446  0  3.027407  0  0  -0.544954  0  3.313878  0  0  -0.575993  0  3.319975  0  0  -0.36245  -0.524084  0  3.309416  0
N  N71  1  0.03594041  0.64325172  0.11001797  1  0  -0.620456  0  3.027445  0  0  -0.54498  0  3.313884  0  0  -0.576019  0  3.319979  0  0  -0.362461  -0.52411  0  3.309427  0
N  N72  1  0.02638976  0.18003672  0.07818767  1  0  -0.586992  0  2.95909  0  0  -0.535347  0  3.217009  0  0  -0.559878  0  3.22478  0  0  -0.343153  -0.518942  0  3.2115  0
N  N73  1  0.97361019  0.81996451  0.92181265  1  0  -0.587066  0  2.959053  0  0  -0.535372  0  3.216962  0  0  -0.559901  0  3.224731  0  0  -0.343143  -0.518966  0  3.211453  0
N  N74  1  0.82468446  0.37617811  0.07647680  1  0  -0.581021  0  2.965125  0  0  -0.527384  0  3.219228  0  0  -0.551988  0  3.22709  0  0  -0.343865  -0.510937  0  3.213589  0
N  N75  1  0.17531158  0.62382114  0.92352417  1  0  -0.581055  0  2.965095  0  0  -0.527434  0  3.219215  0  0  -0.552023  0  3.227043  0  0  -0.343865  -0.510987  0  3.213579  0
N  N76  1  0.15907101  0.16145978  0.89940473  1  0  -0.670839  0  3.077255  0  0  -0.62775  0  3.316506  0  0  -0.65107  0  3.310705  0  0  -0.565442  -0.61154  0  3.320073  0
N  N77  1  0.84092793  0.83853949  0.10059578  1  0  -0.670896  0  3.077256  0  0  -0.627808  0  3.316517  0  0  -0.651126  0  3.310717  0  0  -0.565453  -0.611597  0  3.320089  0
N  N78  1  0.75483191  0.54176644  0.89825828  1  0  -0.676176  0  3.088166  0  0  -0.634217  0  3.330912  0  0  -0.657252  0  3.325022  0  0  -0.566259  -0.618238  0  3.334578  0
N  N79  1  0.24516146  0.45823181  0.10174194  1  0  -0.676096  0  3.088233  0  0  -0.634191  0  3.330938  0  0  -0.657228  0  3.325048  0  0  -0.566211  -0.618212  0  3.334608  0
N  N80  1  0.36595332  0.70277538  0.23050524  1  0  -0.629194  0  3.061997  0  0  -0.553255  0  3.351391  0  0  -0.584402  0  3.35648  0  0  -0.365871  -0.532268  0  3.34758  0
N  N81  1  0.63404831  0.29722488  0.76949367  1  0  -0.629125  0  3.061902  0  0  -0.553212  0  3.351289  0  0  -0.58435  0  3.35639  0  0  -0.365847  -0.532232  0  3.347469  0
N  N82  1  0.33490788  0.88766436  0.04228590  1  0  -0.57608  0  2.956997  0  0  -0.526073  0  3.214466  0  0  -0.550348  0  3.221901  0  0  -0.3418  -0.509886  0  3.209188  0
N  N83  1  0.66509107  0.11233491  0.95771383  1  0  -0.576087  0  2.956907  0  0  -0.52604  0  3.214412  0  0  -0.550306  0  3.221857  0  0  -0.341766  -0.509852  0  3.209134  0
N  N84  1  0.53319025  0.69074983  0.04382846  1  0  -0.572947  0  2.965074  0  0  -0.521275  0  3.222088  0  0  -0.545589  0  3.229847  0  0  -0.337337  -0.504944  0  3.216369  0
N  N85  1  0.46681203  0.30924751  0.95617159  1  0  -0.573076  0  2.96496  0  0  -0.521381  0  3.22205  0  0  -0.545686  0  3.229785  0  0  -0.337365  -0.505056  0  3.216322  0
N  N86  1  0.57666282  0.51740873  0.22452906  1  0  -0.684066  0  3.083356  0  0  -0.639946  0  3.32987  0  0  -0.663063  0  3.322016  0  0  -0.56492  -0.623903  0  3.33508  0
N  N87  1  0.42333779  0.48258957  0.77547083  1  0  -0.684062  0  3.083501  0  0  -0.639948  0  3.329999  0  0  -0.663068  0  3.322147  0  0  -0.56494  -0.623914  0  3.335196  0
N  N88  1  0.17882634  0.90001119  0.22139923  1  0  -0.695159  0  3.109349  0  0  -0.653557  0  3.35512  0  0  -0.676181  0  3.346672  0  0  -0.572195  -0.637825  0  3.360637  0
N  N89  1  0.82117404  0.09998810  0.77860185  1  0  -0.695142  0  3.109402  0  0  -0.653561  0  3.355151  0  0  -0.676174  0  3.346715  0  0  -0.572185  -0.637827  0  3.360669  0
O  O90  1  0.07999968  0.76531271  0.47765633  1  0  -0.629015  0  2.106801  0  0  -0.549468  0  2.367604  0  0  -0.581069  0  2.357994  0  0  -0.324259  -0.52771  0  2.373577  0
O  O91  1  0.92000731  0.23468954  0.52234172  1  0  -0.629003  0  2.106734  0  0  -0.549448  0  2.367507  0  0  -0.581051  0  2.357908  0  0  -0.324275  -0.527691  0  2.373482  0
O  O92  1  0.85399490  0.65425009  0.63334075  1  0  -0.62885  0  2.109845  0  0  -0.54394  0  2.371223  0  0  -0.576506  0  2.360459  0  0  -0.322135  -0.52144  0  2.377865  0
O  O93  1  0.14601089  0.34575115  0.36665475  1  0  -0.628845  0  2.109812  0  0  -0.543954  0  2.371214  0  0  -0.576521  0  2.36045  0  0  -0.322163  -0.521452  0  2.37785  0
O  O94  1  0.79135475  0.71058481  0.35810015  1  0  -0.625668  0  2.140615  0  0  -0.539222  0  2.406427  0  0  -0.57233  0  2.395884  0  0  -0.318854  -0.516393  0  2.41301  0
O  O95  1  0.20864830  0.28941548  0.64190168  1  0  -0.625695  0  2.140562  0  0  -0.539231  0  2.4064  0  0  -0.572336  0  2.395853  0  0  -0.318847  -0.516402  0  2.412985  0
O  O96  1  0.56780684  0.60313509  0.51760290  1  0  -0.635008  0  2.170217  0  0  -0.548457  0  2.444831  0  0  -0.581099  0  2.4321  0  0  -0.322057  -0.525961  0  2.45294  0
O  O97  1  0.43219354  0.39686421  0.48239897  1  0  -0.634975  0  2.170226  0  0  -0.54841  0  2.444861  0  0  -0.581051  0  2.432127  0  0  -0.32203  -0.525913  0  2.452969  0
