# generated using pymatgen
data_FeH16PdC20(SN6)2
_symmetry_space_group_name_H-M   'P 1'
_cell_length_a   7.02519162
_cell_length_b   7.50913362
_cell_length_c   12.38228904
_cell_angle_alpha   100.88023574
_cell_angle_beta   100.55030827
_cell_angle_gamma   93.01133441
_symmetry_Int_Tables_number   1
_chemical_formula_structural   FeH16PdC20(SN6)2
_chemical_formula_sum   'Fe1 H16 Pd1 C20 S2 N12'
_cell_volume   628.04645650
_cell_formula_units_Z   1
loop_
 _symmetry_equiv_pos_site_id
 _symmetry_equiv_pos_as_xyz
  1  'x, y, z'
loop_
 _atom_site_type_symbol
 _atom_site_label
 _atom_site_symmetry_multiplicity
 _atom_site_fract_x
 _atom_site_fract_y
 _atom_site_fract_z
 _atom_site_occupancy
 _atom_site_hle17_bader_spin_density
 _atom_site_hle17_ddec_charge
 _atom_site_hle17_ddec_spin_density
 _atom_site_hle17_ddec_sum_bond_order
 _atom_site_hle17_magmom
 _atom_site_hse06_10hf_bader_spin_density
 _atom_site_hse06_10hf_ddec_charge
 _atom_site_hse06_10hf_ddec_spin_density
 _atom_site_hse06_10hf_ddec_sum_bond_order
 _atom_site_hse06_10hf_magmom
 _atom_site_hse06_bader_spin_density
 _atom_site_hse06_ddec_charge
 _atom_site_hse06_ddec_spin_density
 _atom_site_hse06_ddec_sum_bond_order
 _atom_site_hse06_magmom
 _atom_site_pbe_bader_spin_density
 _atom_site_pbe_cm5_charge
 _atom_site_pbe_ddec_charge
 _atom_site_pbe_ddec_spin_density
 _atom_site_pbe_ddec_sum_bond_order
 _atom_site_pbe_magmom
Fe  Fe0  1  0.48626673  0.50967214  0.50007991  1  0  0.627038  0  3.138584  0  0  0.588319  0  3.636456  0  0  0.632965  0  3.575162  0  0  0.807666  0.565377  0  3.67143  0
H  H1  1  0.25814230  0.16380458  0.95949466  1  0  0.07636  0  0.941276  0  0  0.091506  0  1.00257  0  0  0.093863  0  0.999186  0  0  0.118558  0.089703  0  1.00501  0
H  H2  1  0.73745022  0.83916845  0.04086396  1  0  0.076882  0  0.937447  0  0  0.092282  0  0.998259  0  0  0.09468  0  0.994827  0  0  0.119047  0.0903  0  1.001087  0
H  H3  1  0.37905586  0.11350457  0.32768931  1  0  0.132484  0  0.906503  0  0  0.142923  0  0.962667  0  0  0.144872  0  0.959263  0  0  0.157545  0.141242  0  0.965142  0
H  H4  1  0.60889931  0.89775506  0.67361377  1  0  0.134728  0  0.898775  0  0  0.145738  0  0.953003  0  0  0.147705  0  0.949949  0  0  0.159124  0.14388  0  0.955834  0
H  H5  1  0.36525630  0.41847935  0.07142671  1  0  0.085951  0  0.984263  0  0  0.089526  0  1.061532  0  0  0.091586  0  1.058464  0  0  0.124256  0.088069  0  1.063149  0
H  H6  1  0.64295742  0.58343461  0.92615295  1  0  0.086824  0  0.981984  0  0  0.090204  0  1.059137  0  0  0.092111  0  1.056622  0  0  0.124414  0.08863  0  1.061172  0
H  H7  1  0.14344138  0.96503910  0.75542077  1  0  0.107567  0  0.9558  0  0  0.116826  0  1.025276  0  0  0.119629  0  1.021973  0  0  0.102968  0.114506  0  1.028146  0
H  H8  1  0.85109975  0.03822830  0.24588034  1  0  0.109711  0  0.952215  0  0  0.119926  0  1.019302  0  0  0.122429  0  1.016599  0  0  0.105196  0.117871  0  1.021655  0
H  H9  1  0.04852162  0.62276487  0.65352647  1  0  0.139603  0  0.928269  0  0  0.151522  0  0.981999  0  0  0.153208  0  0.983531  0  0  0.115948  0.150147  0  0.981203  0
H  H10  1  0.94367765  0.38050009  0.34794631  1  0  0.141314  0  0.925992  0  0  0.153212  0  0.978945  0  0  0.154822  0  0.980907  0  0  0.117256  0.151916  0  0.977821  0
H  H11  1  0.97759939  0.30258241  0.70763150  1  0  0.137148  0  0.960325  0  0  0.157759  0  1.018411  0  0  0.158829  0  1.019069  0  0  0.096931  0.15678  0  1.018182  0
H  H12  1  0.02005286  0.70198172  0.29284756  1  0  0.129983  0  0.967047  0  0  0.148939  0  1.030927  0  0  0.15016  0  1.030409  0  0  0.090955  0.147801  0  1.031616  0
H  H13  1  0.01415369  0.29097239  0.85198130  1  0  0.102101  0  0.97753  0  0  0.115687  0  1.053393  0  0  0.117156  0  1.052911  0  0  0.080916  0.114665  0  1.053724  0
H  H14  1  0.98653661  0.71076747  0.14824075  1  0  0.102437  0  0.976717  0  0  0.115987  0  1.052399  0  0  0.117533  0  1.051998  0  0  0.080451  0.114867  0  1.05273  0
H  H15  1  0.21600849  0.29008582  0.78162137  1  0  0.118836  0  0.937037  0  0  0.138685  0  1.00051  0  0  0.139486  0  1.000417  0  0  0.093421  0.138024  0  1.000698  0
H  H16  1  0.78273127  0.71269817  0.21706026  1  0  0.119074  0  0.937247  0  0  0.139665  0  0.999421  0  0  0.140612  0  0.999206  0  0  0.093886  0.138881  0  0.999715  0
Pd  Pd17  1  0.01328830  0.98420347  0.49854406  1  0  0.157054  0  3.573994  0  0  0.14168  0  4.136753  0  0  0.145271  0  4.091779  0  0  0.631338  0.140114  0  4.169918  0
C  C18  1  0.82290730  0.16656076  0.50628829  1  0  0.021482  0  3.566775  0  0  0.015405  0  3.908257  0  0  0.019869  0  3.918067  0  0  -0.028947  0.012411  0  3.90165  0
C  C19  1  0.20479845  0.79892268  0.49172190  1  0  0.019073  0  3.451728  0  0  -0.003263  0  3.802592  0  0  0.011033  0  3.803699  0  0  -0.032948  -0.01323  0  3.802339  0
C  C20  1  0.20636146  0.19316796  0.51467264  1  0  0.033587  0  3.467212  0  0  0.012288  0  3.819685  0  0  0.025888  0  3.820279  0  0  -0.029607  0.002779  0  3.820032  0
C  C21  1  0.80703122  0.78833207  0.48397836  1  0  0.038431  0  3.475697  0  0  0.018402  0  3.826081  0  0  0.031705  0  3.827539  0  0  -0.028475  0.009212  0  3.825578  0
C  C22  1  0.25682392  0.04005164  0.99440537  1  0  0.093019  0  3.77127  0  0  0.052254  0  4.053275  0  0  0.064831  0  4.060863  0  0  0.05819  0.043951  0  4.045971  0
C  C23  1  0.74386966  0.96302526  0.00630458  1  0  0.093297  0  3.768775  0  0  0.052827  0  4.048347  0  0  0.064963  0  4.058588  0  0  0.057415  0.043508  0  4.044004  0
C  C24  1  0.38642038  0.22676600  0.28548095  1  0  0.142593  0  3.581356  0  0  0.069896  0  3.844276  0  0  0.092138  0  3.860218  0  0  0.171077  0.06073  0  3.836567  0
C  C25  1  0.60387606  0.78281352  0.71463064  1  0  0.140616  0  3.572264  0  0  0.075736  0  3.838085  0  0  0.091358  0  3.848677  0  0  0.17057  0.059773  0  3.826563  0
C  C26  1  0.37811130  0.38348523  0.15312259  1  0  0.082097  0  3.714706  0  0  0.013983  0  3.996223  0  0  0.031092  0  4.015502  0  0  0.136051  0.009297  0  3.984743  0
C  C27  1  0.62168713  0.62141269  0.84503697  1  0  0.084573  0  3.706818  0  0  0.023615  0  3.99206  0  0  0.033461  0  4.00716  0  0  0.138475  0.012496  0  3.976203  0
C  C28  1  0.19832968  0.87361201  0.91478466  1  0  -0.059416  0  3.841591  0  0  -0.044979  0  4.114054  0  0  -0.052405  0  4.141296  0  0  -0.033697  -0.039972  0  4.095601  0
C  C29  1  0.80320235  0.12894890  0.08624137  1  0  -0.058932  0  3.839947  0  0  -0.044255  0  4.112953  0  0  -0.051779  0  4.139857  0  0  -0.033378  -0.039165  0  4.094714  0
C  C30  1  0.14482337  0.85156671  0.79885086  1  0  -0.079693  0  3.72955  0  0  -0.113284  0  3.999636  0  0  -0.109936  0  4.018359  0  0  -0.090116  -0.115324  0  3.987026  0
C  C31  1  0.85242651  0.15148076  0.20236497  1  0  -0.078035  0  3.721631  0  0  -0.111874  0  3.990992  0  0  -0.108084  0  4.009329  0  0  -0.090036  -0.114198  0  3.978436  0
C  C32  1  0.10663462  0.54916334  0.81707677  1  0  0.112537  0  3.682708  0  0  0.132821  0  3.951482  0  0  0.136328  0  3.974306  0  0  -0.00055  0.130283  0  3.936111  0
C  C33  1  0.89299859  0.45360222  0.18397316  1  0  0.110967  0  3.681724  0  0  0.132245  0  3.949242  0  0  0.135494  0  3.972404  0  0  -0.000559  0.129834  0  3.933809  0
C  C34  1  0.09309926  0.66817847  0.74393318  1  0  -0.13265  0  3.701765  0  0  -0.159502  0  3.96176  0  0  -0.165726  0  3.984674  0  0  -0.099488  -0.155495  0  3.946602  0
C  C35  1  0.90290505  0.33503538  0.25736645  1  0  -0.131055  0  3.695185  0  0  -0.158131  0  3.954873  0  0  -0.164182  0  3.977599  0  0  -0.099024  -0.154235  0  3.939928  0
C  C36  1  0.07629914  0.34702324  0.78897301  1  0  -0.345132  0  3.74211  0  0  -0.423234  0  3.975887  0  0  -0.425866  0  3.986125  0  0  -0.246026  -0.421127  0  3.968886  0
C  C37  1  0.92287409  0.65576607  0.21109950  1  0  -0.343507  0  3.749833  0  0  -0.422846  0  3.985406  0  0  -0.425297  0  3.995521  0  0  -0.246436  -0.42083  0  3.978648  0
S  S38  1  0.18084624  0.66460459  0.95468199  1  0  0.048175  0  2.574958  0  0  0.055383  0  2.898404  0  0  0.051777  0  2.906855  0  0  0.076431  0.057363  0  2.893158  0
S  S39  1  0.82351600  0.33766500  0.04622050  1  0  0.047362  0  2.575142  0  0  0.054245  0  2.898596  0  0  0.050778  0  2.906855  0  0  0.075647  0.056069  0  2.893414  0
N  N40  1  0.30625652  0.32445722  0.51718539  1  0  -0.331823  0  3.300808  0  0  -0.29937  0  3.618413  0  0  -0.317011  0  3.627304  0  0  -0.388132  -0.288769  0  3.611241  0
N  N41  1  0.68379288  0.67631299  0.48277394  1  0  -0.332076  0  3.324088  0  0  -0.30052  0  3.643773  0  0  -0.318596  0  3.653078  0  0  -0.389337  -0.289623  0  3.636182  0
N  N42  1  0.71893038  0.28295237  0.51274923  1  0  -0.349662  0  2.90912  0  0  -0.318221  0  3.176947  0  0  -0.334868  0  3.193078  0  0  -0.324212  -0.306606  0  3.165215  0
N  N43  1  0.30782123  0.68080315  0.48931320  1  0  -0.31628  0  3.369429  0  0  -0.281973  0  3.688973  0  0  -0.302502  0  3.699233  0  0  -0.393996  -0.269241  0  3.680372  0
N  N44  1  0.42624706  0.40161719  0.33222627  1  0  -0.148372  0  3.247734  0  0  -0.107347  0  3.550317  0  0  -0.127783  0  3.564949  0  0  -0.216195  -0.093957  0  3.537978  0
N  N45  1  0.55807686  0.60898979  0.66643491  1  0  -0.148736  0  3.267225  0  0  -0.10807  0  3.569688  0  0  -0.128957  0  3.586201  0  0  -0.223779  -0.095604  0  3.56034  0
N  N46  1  0.30305326  0.04146532  0.10105450  1  0  -0.229983  0  2.969238  0  0  -0.230939  0  3.244952  0  0  -0.228162  0  3.262576  0  0  -0.219498  -0.226287  0  3.236559  0
N  N47  1  0.70072670  0.96291517  0.89971280  1  0  -0.23132  0  2.973682  0  0  -0.225156  0  3.255619  0  0  -0.229994  0  3.267553  0  0  -0.218744  -0.227579  0  3.241855  0
N  N48  1  0.42222987  0.50130578  0.24916248  1  0  -0.190258  0  2.880583  0  0  -0.175098  0  3.162453  0  0  -0.18143  0  3.175991  0  0  -0.212957  -0.170302  0  3.150876  0
N  N49  1  0.56846852  0.50636386  0.74832594  1  0  -0.185103  0  2.879978  0  0  -0.170596  0  3.160955  0  0  -0.1772  0  3.176455  0  0  -0.208873  -0.166674  0  3.152299  0
N  N50  1  0.35369554  0.20898834  0.17172856  1  0  0.01934  0  3.655644  0  0  0.135839  0  3.841636  0  0  0.095344  0  3.903697  0  0  -0.124017  0.143905  0  3.82465  0
N  N51  1  0.64573038  0.79698392  0.82810680  1  0  0.019792  0  3.655221  0  0  0.113335  0  3.874126  0  0  0.096799  0  3.902031  0  0  -0.124706  0.143833  0  3.824831  0
