# generated using pymatgen
data_ZnH14C18(NO2)2
_symmetry_space_group_name_H-M   'P 1'
_cell_length_a   13.45553323
_cell_length_b   14.28467416
_cell_length_c   21.73397936
_cell_angle_alpha   90.00002806
_cell_angle_beta   89.99993446
_cell_angle_gamma   89.99974502
_symmetry_Int_Tables_number   1
_chemical_formula_structural   ZnH14C18(NO2)2
_chemical_formula_sum   'Zn8 H112 C144 N16 O32'
_cell_volume   4177.44270122
_cell_formula_units_Z   8
loop_
 _symmetry_equiv_pos_site_id
 _symmetry_equiv_pos_as_xyz
  1  'x, y, z'
loop_
 _atom_site_type_symbol
 _atom_site_label
 _atom_site_symmetry_multiplicity
 _atom_site_fract_x
 _atom_site_fract_y
 _atom_site_fract_z
 _atom_site_occupancy
 _atom_site_pbe_bader_charge
 _atom_site_pbe_bader_spin_density
 _atom_site_pbe_cm5_charge
 _atom_site_pbe_ddec_charge
 _atom_site_pbe_ddec_spin_density
 _atom_site_pbe_ddec_sum_bond_order
 _atom_site_pbe_magmom
Zn  Zn0  1  0.49912516  0.60950620  0.43360436  1  1.33012  0  0.680945  0.821011  0  2.341148  0
Zn  Zn1  1  0.00087889  0.39049649  0.93360498  1  1.330103  0  0.680993  0.82109  0  2.341027  0
Zn  Zn2  1  0.50087615  0.10950865  0.06639357  1  1.329864  0  0.680969  0.821118  0  2.341011  0
Zn  Zn3  1  0.99912388  0.89049027  0.56639629  1  1.330118  0  0.680944  0.820988  0  2.341154  0
Zn  Zn4  1  0.50087279  0.39049321  0.56639271  1  1.330055  0  0.68096  0.820998  0  2.34107  0
Zn  Zn5  1  0.99912723  0.60950642  0.06639623  1  1.33018  0  0.68096  0.821014  0  2.341202  0
Zn  Zn6  1  0.49912700  0.89049636  0.93360442  1  1.330007  0  0.680962  0.820985  0  2.341201  0
Zn  Zn7  1  0.00087259  0.10950844  0.43360492  1  1.329991  0  0.680977  0.821066  0  2.341009  0
H  H8  1  0.34065532  0.52343103  0.34839313  1  0.087892  0  0.121095  0.094942  0  0.982251  0
H  H9  1  0.15934517  0.47656879  0.84839366  1  0.087897  0  0.121092  0.094938  0  0.982274  0
H  H10  1  0.65934491  0.02343149  0.15160845  1  0.087864  0  0.121081  0.094896  0  0.982263  0
H  H11  1  0.84065719  0.97656610  0.65160671  1  0.087902  0  0.121085  0.094922  0  0.982278  0
H  H12  1  0.65934114  0.47656207  0.65160716  1  0.087845  0  0.121079  0.094927  0  0.982303  0
H  H13  1  0.84065947  0.52343622  0.15160893  1  0.087804  0  0.121078  0.094946  0  0.982209  0
H  H14  1  0.34066121  0.97656722  0.84839552  1  0.088003  0  0.12105  0.094925  0  0.982386  0
H  H15  1  0.15933853  0.02342841  0.34839312  1  0.087876  0  0.121094  0.095003  0  0.982257  0
H  H16  1  0.16198544  0.47510689  0.35509007  1  0.048447  0  0.107786  0.115893  0  1.001287  0
H  H17  1  0.33801504  0.52489434  0.85508773  1  0.048376  0  0.107771  0.115858  0  1.001323  0
H  H18  1  0.83801488  0.97510700  0.14491165  1  0.04838  0  0.107776  0.115871  0  1.001335  0
H  H19  1  0.66198797  0.02489268  0.64490974  1  0.048459  0  0.107798  0.11591  0  1.001309  0
H  H20  1  0.83800954  0.52488762  0.64491022  1  0.048505  0  0.107821  0.115954  0  1.001369  0
H  H21  1  0.66198960  0.47511137  0.14491072  1  0.04848  0  0.107818  0.116002  0  1.001305  0
H  H22  1  0.16199124  0.02489381  0.85509048  1  0.048466  0  0.107791  0.115886  0  1.00132  0
H  H23  1  0.33800923  0.97510533  0.35508779  1  0.048404  0  0.107764  0.115903  0  1.001275  0
H  H24  1  0.14335167  0.63547607  0.52364875  1  0.11189  0  0.11201  0.125032  0  1.006734  0
H  H25  1  0.35665610  0.36452421  0.02364631  1  0.111857  0  0.111999  0.124964  0  1.006763  0
H  H26  1  0.85664859  0.13547595  0.97635382  1  0.111949  0  0.111993  0.124988  0  1.006744  0
H  H27  1  0.64334919  0.86452399  0.47635124  1  0.111871  0  0.111999  0.125014  0  1.006722  0
H  H28  1  0.85664702  0.36452404  0.47635062  1  0.11187  0  0.111992  0.124985  0  1.006765  0
H  H29  1  0.64335671  0.63547940  0.97635030  1  0.111901  0  0.111984  0.125003  0  1.006791  0
H  H30  1  0.14334936  0.86452275  0.02364693  1  0.111835  0  0.112016  0.125032  0  1.006688  0
H  H31  1  0.35664727  0.13547612  0.52364491  1  0.111912  0  0.111996  0.125009  0  1.006754  0
H  H32  1  0.32260351  0.67033823  0.51149721  1  0.112071  0  0.116166  0.088988  0  1.029609  0
H  H33  1  0.17740280  0.32966274  0.01149857  1  0.11298  0  0.116149  0.089012  0  1.029488  0
H  H34  1  0.67739510  0.17033607  0.98850307  1  0.112621  0  0.116177  0.089041  0  1.029457  0
H  H35  1  0.82260117  0.82965898  0.48850173  1  0.112046  0  0.116124  0.088974  0  1.029484  0
H  H36  1  0.67739444  0.32966328  0.48850032  1  0.112966  0  0.116146  0.088978  0  1.029616  0
H  H37  1  0.82260926  0.67034017  0.98850218  1  0.112587  0  0.11612  0.088972  0  1.029536  0
H  H38  1  0.32260211  0.82965844  0.01150044  1  0.112879  0  0.116129  0.088974  0  1.029549  0
H  H39  1  0.17739380  0.17033623  0.51149856  1  0.112916  0  0.116157  0.088991  0  1.029453  0
H  H40  1  0.00671394  0.47490842  0.41238659  1  0.051437  0  0.098344  0.076088  0  1.011434  0
H  H41  1  0.49328791  0.52509356  0.91238414  1  0.051345  0  0.098341  0.076153  0  1.011491  0
H  H42  1  0.99328637  0.97490784  0.08761514  1  0.051383  0  0.098357  0.076148  0  1.011438  0
H  H43  1  0.50671436  0.02509180  0.58761472  1  0.051425  0  0.098353  0.076138  0  1.011456  0
H  H44  1  0.99328252  0.52508609  0.58761693  1  0.051414  0  0.098352  0.076138  0  1.011427  0
H  H45  1  0.50672193  0.47491145  0.08761293  1  0.051488  0  0.098381  0.076196  0  1.011402  0
H  H46  1  0.00671678  0.02509227  0.91238515  1  0.051421  0  0.098381  0.076166  0  1.011435  0
H  H47  1  0.49328582  0.97490831  0.41238419  1  0.051389  0  0.098331  0.076127  0  1.01141  0
H  H48  1  0.68053999  0.53570432  0.36238723  1  0.116659  0  0.121218  0.095318  0  0.977228  0
H  H49  1  0.81946990  0.46429973  0.86238718  1  0.116312  0  0.12124  0.095326  0  0.977364  0
H  H50  1  0.31946910  0.03569849  0.13761298  1  0.116534  0  0.121198  0.095262  0  0.977417  0
H  H51  1  0.18053326  0.96430048  0.63761319  1  0.116527  0  0.121236  0.095318  0  0.977371  0
H  H52  1  0.31946465  0.46429508  0.63761444  1  0.116563  0  0.121222  0.095325  0  0.977317  0
H  H53  1  0.18053771  0.53570038  0.13761035  1  0.116658  0  0.121202  0.09526  0  0.977464  0
H  H54  1  0.68053479  0.96429462  0.86238731  1  0.116583  0  0.121219  0.095288  0  0.977318  0
H  H55  1  0.81946618  0.03570803  0.36238986  1  0.116457  0  0.121219  0.095271  0  0.977371  0
H  H56  1  0.86113191  0.50926163  0.38135562  1  0.055279  0  0.106324  0.113625  0  1.008112  0
H  H57  1  0.63887571  0.49074244  0.88135341  1  0.055286  0  0.106236  0.113517  0  1.008202  0
H  H58  1  0.13887582  0.00925513  0.11864413  1  0.055325  0  0.106181  0.113409  0  1.008273  0
H  H59  1  0.36112658  0.99074242  0.61864559  1  0.055267  0  0.106279  0.113557  0  1.008215  0
H  H60  1  0.13886976  0.49073778  0.61864698  1  0.055255  0  0.106314  0.113668  0  1.008058  0
H  H61  1  0.36112967  0.50925767  0.11864320  1  0.055292  0  0.106278  0.113545  0  1.008194  0
H  H62  1  0.86112659  0.99074148  0.88135525  1  0.055277  0  0.106296  0.113586  0  1.008209  0
H  H63  1  0.63887360  0.00926399  0.38135562  1  0.055383  0  0.106246  0.113545  0  1.008245  0
H  H64  1  0.83226962  0.67748680  0.54535921  1  0.133818  0  0.112004  0.129566  0  1.002789  0
H  H65  1  0.66773118  0.32251001  0.04535644  1  0.133837  0  0.112031  0.129622  0  1.002786  0
H  H66  1  0.16772746  0.17748954  0.95464429  1  0.13383  0  0.112048  0.129647  0  1.002778  0
H  H67  1  0.33227060  0.82251107  0.45464294  1  0.133812  0  0.112018  0.129604  0  1.00278  0
H  H68  1  0.16772981  0.32250911  0.45464108  1  0.133776  0  0.112031  0.12961  0  1.002764  0
H  H69  1  0.33227122  0.67748380  0.95464293  1  0.133836  0  0.111999  0.129561  0  1.002777  0
H  H70  1  0.83227197  0.82251547  0.04535784  1  0.133943  0  0.112002  0.129583  0  1.002791  0
H  H71  1  0.66772735  0.17748764  0.54535965  1  0.133882  0  0.112019  0.129576  0  1.002776  0
H  H72  1  0.65145626  0.69546378  0.51954532  1  0.124155  0  0.114868  0.086527  0  1.028956  0
H  H73  1  0.84854683  0.30453301  0.01954472  1  0.124132  0  0.114856  0.08655  0  1.028762  0
H  H74  1  0.34854372  0.19546508  0.98045497  1  0.124177  0  0.114865  0.086544  0  1.028858  0
H  H75  1  0.15145504  0.80453485  0.48045419  1  0.124157  0  0.11486  0.086535  0  1.028868  0
H  H76  1  0.34854392  0.30453423  0.48045497  1  0.124139  0  0.114873  0.08655  0  1.028884  0
H  H77  1  0.15145855  0.69545940  0.98045143  1  0.124363  0  0.11484  0.08652  0  1.028913  0
H  H78  1  0.65145869  0.80453503  0.01954625  1  0.124157  0  0.114865  0.086519  0  1.028938  0
H  H79  1  0.84854142  0.19546526  0.51955024  1  0.124264  0  0.114828  0.08649  0  1.028961  0
H  H80  1  0.99484155  0.63233526  0.50902388  1  0.109541  0  0.110964  0.113358  0  1.013919  0
H  H81  1  0.50516453  0.36766642  0.00901940  1  0.109061  0  0.110996  0.113401  0  1.013889  0
H  H82  1  0.00516170  0.13233591  0.99098053  1  0.109001  0  0.110979  0.113373  0  1.013869  0
H  H83  1  0.49483778  0.86766613  0.49098000  1  0.109055  0  0.110969  0.113359  0  1.013958  0
H  H84  1  0.00515938  0.36766205  0.49098055  1  0.108946  0  0.110967  0.113363  0  1.013769  0
H  H85  1  0.49484233  0.63233789  0.99097998  1  0.109235  0  0.110962  0.113327  0  1.013869  0
H  H86  1  0.99484071  0.86766280  0.00901976  1  0.109001  0  0.110976  0.113353  0  1.013811  0
H  H87  1  0.50515794  0.13233678  0.50901983  1  0.108983  0  0.110987  0.113387  0  1.013792  0
H  H88  1  0.49302676  0.88458770  0.31038813  1  0.060286  0  0.095558  0.103141  0  1.022099  0
H  H89  1  0.00697306  0.11541210  0.81039234  1  0.060172  0  0.095541  0.103165  0  1.022101  0
H  H90  1  0.50696656  0.38459232  0.18960437  1  0.060048  0  0.095585  0.103153  0  1.022073  0
H  H91  1  0.99302804  0.61541020  0.68961621  1  0.060312  0  0.095534  0.103145  0  1.02207  0
H  H92  1  0.50696450  0.11541381  0.68960618  1  0.060177  0  0.095562  0.103124  0  1.022112  0
H  H93  1  0.99302935  0.88458871  0.18960887  1  0.060222  0  0.095543  0.103139  0  1.022089  0
H  H94  1  0.49303139  0.61540989  0.81039270  1  0.060154  0  0.095576  0.10317  0  1.022017  0
H  H95  1  0.00696694  0.38458781  0.31038638  1  0.060324  0  0.095552  0.103165  0  1.022051  0
H  H96  1  0.49658564  0.70618457  0.23091117  1  0.064097  0  0.105091  0.107051  0  0.984855  0
H  H97  1  0.00341581  0.29380887  0.73091359  1  0.064288  0  0.105145  0.107121  0  0.984793  0
H  H98  1  0.50341224  0.20619487  0.26908633  1  0.064409  0  0.105171  0.107147  0  0.9848  0
H  H99  1  0.99658742  0.79381401  0.76908949  1  0.064155  0  0.105084  0.107071  0  0.984874  0
H  H100  1  0.50341008  0.29381134  0.76908544  1  0.064257  0  0.105142  0.107157  0  0.984844  0
H  H101  1  0.99658883  0.70619054  0.26908854  1  0.064257  0  0.105125  0.107118  0  0.984824  0
H  H102  1  0.49658348  0.79380734  0.73091304  1  0.064326  0  0.105129  0.107104  0  0.984723  0
H  H103  1  0.00340459  0.20618749  0.23090988  1  0.064167  0  0.105138  0.107109  0  0.984876  0
H  H104  1  0.49023016  0.91975822  0.19734487  1  0.051539  0  0.107029  0.108604  0  0.98506  0
H  H105  1  0.00977135  0.08023239  0.69735045  1  0.05165  0  0.107096  0.108719  0  0.984909  0
H  H106  1  0.50976447  0.41977132  0.30265040  1  0.051818  0  0.107063  0.108682  0  0.984973  0
H  H107  1  0.99022917  0.58024249  0.80265947  1  0.051642  0  0.107028  0.10866  0  0.985142  0
H  H108  1  0.50976630  0.08023559  0.80264760  1  0.051693  0  0.107058  0.108643  0  0.985009  0
H  H109  1  0.99023328  0.91976632  0.30265215  1  0.051633  0  0.10707  0.108638  0  0.98498  0
H  H110  1  0.49022678  0.58023299  0.69734989  1  0.051631  0  0.10708  0.108672  0  0.984974  0
H  H111  1  0.00976655  0.41976182  0.19734358  1  0.051491  0  0.107036  0.108654  0  0.985021  0
H  H112  1  0.49260366  0.74174572  0.11690306  1  0.03612  0  0.099827  0.11996  0  1.007102  0
H  H113  1  0.00739354  0.25825113  0.61691007  1  0.035798  0  0.099824  0.119886  0  1.007072  0
H  H114  1  0.50738885  0.24174839  0.38308801  1  0.035785  0  0.09985  0.119936  0  1.007077  0
H  H115  1  0.99260836  0.75826058  0.88309714  1  0.035963  0  0.099846  0.120016  0  1.007047  0
H  H116  1  0.50738760  0.25825719  0.88308849  1  0.035671  0  0.099849  0.119966  0  1.006995  0
H  H117  1  0.99261332  0.74174548  0.38309206  1  0.035559  0  0.09986  0.119935  0  1.007014  0
H  H118  1  0.49259052  0.75825312  0.61690860  1  0.036346  0  0.09979  0.119944  0  1.007098  0
H  H119  1  0.00739405  0.24174163  0.11690454  1  0.036056  0  0.099809  0.119938  0  1.0071  0
C  C120  1  0.29354821  0.54619120  0.38639632  1  0.517736  0  0.049643  0.103766  0  3.944428  0
C  C121  1  0.20645443  0.45380935  0.88639589  1  0.517597  0  0.049556  0.103606  0  3.944452  0
C  C122  1  0.70645339  0.04619073  0.11360482  1  0.517784  0  0.04967  0.103852  0  3.944471  0
C  C123  1  0.79354729  0.95380683  0.61360448  1  0.517571  0  0.049594  0.1037  0  3.944476  0
C  C124  1  0.70644750  0.45380610  0.61360443  1  0.517656  0  0.049545  0.103636  0  3.944387  0
C  C125  1  0.79355466  0.54619426  0.11360302  1  0.517873  0  0.049658  0.103754  0  3.944378  0
C  C126  1  0.29355050  0.95380728  0.88639778  1  0.517721  0  0.049597  0.103612  0  3.944685  0
C  C127  1  0.20644546  0.04618908  0.38639535  1  0.519099  0  0.04959  0.103647  0  3.944367  0
C  C128  1  0.19380640  0.52071376  0.39021709  1  -0.002798  0  -0.086523  -0.190267  0  3.962242  0
C  C129  1  0.30619401  0.47928680  0.89021614  1  -0.002196  0  -0.08653  -0.190166  0  3.962229  0
C  C130  1  0.80619458  0.02071357  0.10978449  1  -0.002216  0  -0.086568  -0.190367  0  3.962242  0
C  C131  1  0.69380834  0.97928609  0.60978193  1  -0.002768  0  -0.086546  -0.190287  0  3.962241  0
C  C132  1  0.80618857  0.47928285  0.60978320  1  -0.001673  0  -0.086566  -0.190332  0  3.962408  0
C  C133  1  0.69381360  0.52071821  0.10978415  1  -0.001522  0  -0.086568  -0.190453  0  3.962233  0
C  C134  1  0.19381006  0.97928654  0.89021856  1  -0.002595  0  -0.086509  -0.190209  0  3.962329  0
C  C135  1  0.30618887  0.02071402  0.39021560  1  -0.001951  0  -0.086534  -0.190332  0  3.962122  0
C  C136  1  0.13675021  0.54939429  0.44089721  1  0.029612  0  0.008578  0.132263  0  3.961738  0
C  C137  1  0.36325457  0.45060561  0.94089529  1  0.028833  0  0.008589  0.132179  0  3.96171  0
C  C138  1  0.86325287  0.04939522  0.05910485  1  0.028887  0  0.008648  0.132447  0  3.961541  0
C  C139  1  0.63675014  0.95060650  0.55910186  1  0.029612  0  0.008579  0.132344  0  3.96169  0
C  C140  1  0.86324700  0.45060232  0.55910308  1  0.028597  0  0.008554  0.13226  0  3.961748  0
C  C141  1  0.63675824  0.54939870  0.05910270  1  0.028515  0  0.008583  0.132418  0  3.961799  0
C  C142  1  0.13675177  0.95060559  0.94089728  1  0.029503  0  0.008562  0.1323  0  3.961832  0
C  C143  1  0.36324706  0.04939431  0.44089475  1  0.0293  0  0.008476  0.132205  0  3.961727  0
C  C144  1  0.18310122  0.60843650  0.48368182  1  -0.101738  0  -0.085558  -0.184812  0  3.948143  0
C  C145  1  0.31690348  0.39156553  0.98368083  1  -0.10173  0  -0.085591  -0.184734  0  3.94808  0
C  C146  1  0.81689935  0.10843760  0.01632072  1  -0.101831  0  -0.085573  -0.184817  0  3.948109  0
C  C147  1  0.68310003  0.89156339  0.51631768  1  -0.101811  0  -0.085541  -0.184792  0  3.948193  0
C  C148  1  0.81689598  0.39156290  0.51631709  1  -0.102021  0  -0.08548  -0.184649  0  3.947973  0
C  C149  1  0.68310785  0.60843458  0.01631624  1  -0.102002  0  -0.085516  -0.184822  0  3.948136  0
C  C150  1  0.18310306  0.89156391  0.98368188  1  -0.101833  0  -0.085545  -0.184791  0  3.948246  0
C  C151  1  0.31689718  0.10843602  0.48367939  1  -0.101778  0  -0.085461  -0.184722  0  3.948028  0
C  C152  1  0.28335139  0.62891488  0.47726695  1  0.490942  0  0.046057  0.098716  0  3.952195  0
C  C153  1  0.21665258  0.37108784  0.97726740  1  0.490498  0  0.046032  0.09862  0  3.952175  0
C  C154  1  0.71665206  0.12891080  0.02273375  1  0.490479  0  0.04604  0.098642  0  3.952118  0
C  C155  1  0.78334805  0.87108739  0.52273248  1  0.490977  0  0.046036  0.098656  0  3.952194  0
C  C156  1  0.71664508  0.37108453  0.52273197  1  0.490306  0  0.046037  0.09865  0  3.952218  0
C  C157  1  0.78335503  0.62891226  0.02273151  1  0.490661  0  0.046077  0.098774  0  3.952148  0
C  C158  1  0.28335035  0.87108441  0.97726792  1  0.490181  0  0.046028  0.098635  0  3.952322  0
C  C159  1  0.21664767  0.12891132  0.47726551  1  0.490325  0  0.046043  0.098751  0  3.952054  0
C  C160  1  0.03707234  0.50774217  0.45394455  1  -0.019812  0  -0.072807  -0.069684  0  3.759764  0
C  C161  1  0.46293390  0.49225704  0.95394165  1  -0.020384  0  -0.072819  -0.069829  0  3.760185  0
C  C162  1  0.96292945  0.00774407  0.04605703  1  -0.020099  0  -0.072852  -0.069913  0  3.760055  0
C  C163  1  0.53706987  0.99225904  0.54605643  1  -0.020657  0  -0.072788  -0.069752  0  3.759965  0
C  C164  1  0.96292561  0.49225164  0.54605804  1  -0.020563  0  -0.072805  -0.06987  0  3.759957  0
C  C165  1  0.53708040  0.50774727  0.04605680  1  -0.019815  0  -0.072766  -0.069945  0  3.760036  0
C  C166  1  0.03707073  0.99225534  0.95394326  1  -0.02042  0  -0.07285  -0.069895  0  3.759991  0
C  C167  1  0.46292585  0.00774457  0.45394202  1  -0.020415  0  -0.072734  -0.06971  0  3.759819  0
C  C168  1  0.71748453  0.56643580  0.40222162  1  0.431167  0  0.050857  0.105195  0  3.944516  0
C  C169  1  0.78252305  0.43356688  0.90222113  1  0.431632  0  0.050853  0.105124  0  3.944526  0
C  C170  1  0.28252144  0.06643149  0.09777814  1  0.43139  0  0.050906  0.105212  0  3.944621  0
C  C171  1  0.21748025  0.93356675  0.59777877  1  0.431428  0  0.050912  0.105274  0  3.944588  0
C  C172  1  0.28251714  0.43356431  0.59777913  1  0.431208  0  0.050838  0.105172  0  3.944644  0
C  C173  1  0.21748307  0.56643183  0.09777732  1  0.431171  0  0.050862  0.105213  0  3.944617  0
C  C174  1  0.71748022  0.93356722  0.90222261  1  0.431199  0  0.050854  0.105212  0  3.944504  0
C  C175  1  0.78251918  0.06643896  0.40222336  1  0.431239  0  0.050814  0.105172  0  3.944683  0
C  C176  1  0.81854855  0.55238487  0.41327294  1  -0.031255  0  -0.090589  -0.198291  0  3.969762  0
C  C177  1  0.68145529  0.44761572  0.91327161  1  -0.031489  0  -0.090439  -0.197991  0  3.969528  0
C  C178  1  0.18145674  0.05238167  0.08672727  1  -0.031513  0  -0.090446  -0.197925  0  3.969501  0
C  C179  1  0.31854646  0.94761586  0.58672784  1  -0.031498  0  -0.090525  -0.198177  0  3.969586  0
C  C180  1  0.18145088  0.44761174  0.58672965  1  -0.03137  0  -0.090451  -0.198178  0  3.969598  0
C  C181  1  0.31854860  0.55238369  0.08672684  1  -0.031261  0  -0.090506  -0.198102  0  3.969597  0
C  C182  1  0.81854566  0.94761704  0.91327210  1  -0.031278  0  -0.090511  -0.198187  0  3.969509  0
C  C183  1  0.68145372  0.05238915  0.41327429  1  -0.031317  0  -0.090445  -0.198088  0  3.969794  0
C  C184  1  0.86165187  0.58956451  0.46658530  1  0.01848  0  0.012055  0.14335  0  3.954214  0
C  C185  1  0.63835410  0.41043823  0.96658307  1  0.01853  0  0.011982  0.143195  0  3.954333  0
C  C186  1  0.13835102  0.08956215  0.03341630  1  0.018592  0  0.012042  0.143241  0  3.954362  0
C  C187  1  0.36164931  0.91043744  0.53341637  1  0.018586  0  0.012012  0.143325  0  3.954303  0
C  C188  1  0.13834979  0.41043140  0.53341729  1  0.018575  0  0.011839  0.143068  0  3.954458  0
C  C189  1  0.36165573  0.58956188  0.03341492  1  0.018798  0  0.012011  0.143226  0  3.954185  0
C  C190  1  0.86165065  0.91043796  0.96658399  1  0.018626  0  0.012057  0.14336  0  3.954165  0
C  C191  1  0.63834864  0.08956687  0.46658531  1  0.018597  0  0.011985  0.143254  0  3.954635  0
C  C192  1  0.80097778  0.64515850  0.50422179  1  -0.064805  0  -0.083396  -0.179861  0  3.94491  0
C  C193  1  0.69902682  0.35484318  0.00422223  1  -0.064729  0  -0.083412  -0.17989  0  3.944737  0
C  C194  1  0.19902318  0.14515694  0.99577848  1  -0.064837  0  -0.083366  -0.179904  0  3.945057  0
C  C195  1  0.30097629  0.85484440  0.49577762  1  -0.064816  0  -0.083407  -0.179907  0  3.944841  0
C  C196  1  0.19902314  0.35484091  0.49577850  1  -0.06473  0  -0.083355  -0.179875  0  3.944813  0
C  C197  1  0.30097856  0.64515203  0.99577760  1  -0.065281  0  -0.083405  -0.179931  0  3.944874  0
C  C198  1  0.80097700  0.85484527  0.00422319  1  -0.065018  0  -0.083388  -0.179931  0  3.944885  0
C  C199  1  0.69902091  0.14515711  0.50422313  1  -0.065054  0  -0.08339  -0.179916  0  3.945079  0
C  C200  1  0.70123962  0.65531084  0.49021795  1  0.459007  0  0.043563  0.094379  0  3.952199  0
C  C201  1  0.79876260  0.34468841  0.99021604  1  0.459017  0  0.043603  0.094343  0  3.952077  0
C  C202  1  0.29875924  0.15530919  0.00978322  1  0.45903  0  0.043477  0.094285  0  3.952322  0
C  C203  1  0.20124038  0.84468898  0.50978337  1  0.45867  0  0.043552  0.094355  0  3.952088  0
C  C204  1  0.29876130  0.34468647  0.50978372  1  0.458659  0  0.043527  0.094341  0  3.952036  0
C  C205  1  0.20124130  0.65530680  0.00977965  1  0.461187  0  0.043573  0.094408  0  3.952205  0
C  C206  1  0.70124168  0.84468882  0.99021891  1  0.458978  0  0.043574  0.094428  0  3.952284  0
C  C207  1  0.79875905  0.15531393  0.49022060  1  0.458788  0  0.04364  0.094457  0  3.952218  0
C  C208  1  0.96254942  0.56735379  0.49110770  1  0.026293  0  -0.071595  -0.084037  0  3.746172  0
C  C209  1  0.53745725  0.43264686  0.99110508  1  0.027664  0  -0.071672  -0.084078  0  3.746484  0
C  C210  1  0.03745283  0.06735463  0.00889482  1  0.027515  0  -0.071657  -0.083988  0  3.746267  0
C  C211  1  0.46254680  0.93264704  0.50889390  1  0.027632  0  -0.071668  -0.084174  0  3.746488  0
C  C212  1  0.03745298  0.43264212  0.50889582  1  0.027983  0  -0.07155  -0.083804  0  3.746009  0
C  C213  1  0.46255185  0.56735465  0.00889337  1  0.02668  0  -0.071607  -0.083832  0  3.746046  0
C  C214  1  0.96254735  0.93264548  0.99110547  1  0.027491  0  -0.071635  -0.083931  0  3.746108  0
C  C215  1  0.53745189  0.06735587  0.49110455  1  0.027348  0  -0.071636  -0.084002  0  3.746168  0
C  C216  1  0.49757611  0.74469512  0.35219729  1  1.547157  0  0.177941  0.589156  0  4.263  0
C  C217  1  0.00242735  0.25530611  0.85220063  1  1.545866  0  0.177891  0.588943  0  4.262919  0
C  C218  1  0.50241936  0.24469482  0.14780252  1  1.545345  0  0.177893  0.588984  0  4.262829  0
C  C219  1  0.99758052  0.75530416  0.64780336  1  1.547198  0  0.177923  0.589032  0  4.262885  0
C  C220  1  0.50241218  0.25530569  0.64779840  1  1.545518  0  0.177911  0.588898  0  4.262862  0
C  C221  1  0.99757729  0.74469260  0.14780196  1  1.545673  0  0.177972  0.589206  0  4.262744  0
C  C222  1  0.49758379  0.75530458  0.85220007  1  1.546048  0  0.177883  0.588843  0  4.263086  0
C  C223  1  0.00241223  0.24469455  0.35219509  1  1.547116  0  0.178002  0.589252  0  4.262661  0
C  C224  1  0.49507889  0.81002246  0.29913477  1  -0.161968  0  -0.096996  -0.225026  0  3.910577  0
C  C225  1  0.00492021  0.18997383  0.79914038  1  -0.162227  0  -0.097008  -0.225073  0  3.910298  0
C  C226  1  0.50491478  0.31003060  0.20086000  1  -0.162017  0  -0.097019  -0.22488  0  3.910287  0
C  C227  1  0.99508277  0.68997613  0.70086819  1  -0.161983  0  -0.096905  -0.22487  0  3.910415  0
C  C228  1  0.50490866  0.18997485  0.70085908  1  -0.162053  0  -0.096964  -0.224834  0  3.910282  0
C  C229  1  0.99508443  0.81002488  0.20086635  1  -0.161924  0  -0.096922  -0.224924  0  3.910329  0
C  C230  1  0.49508540  0.68997301  0.79913845  1  -0.162135  0  -0.097028  -0.225003  0  3.91029  0
C  C231  1  0.00491072  0.31002398  0.29913211  1  -0.162017  0  -0.09693  -0.224909  0  3.910346  0
C  C232  1  0.49459148  0.78149676  0.23987686  1  0.067289  0  -0.081069  -0.035638  0  4.026395  0
C  C233  1  0.00540995  0.21849458  0.73987881  1  0.067298  0  -0.081119  -0.035677  0  4.026256  0
C  C234  1  0.50540084  0.28150984  0.26012066  1  0.067083  0  -0.081081  -0.035781  0  4.026341  0
C  C235  1  0.99459140  0.71849833  0.76012563  1  0.067125  0  -0.081111  -0.035757  0  4.026726  0
C  C236  1  0.50540201  0.21849775  0.76011975  1  0.067262  0  -0.081154  -0.035903  0  4.026423  0
C  C237  1  0.99459320  0.78150553  0.26012471  1  0.0669  0  -0.081127  -0.035826  0  4.026626  0
C  C238  1  0.49459042  0.71849237  0.73987733  1  0.067167  0  -0.081072  -0.035685  0  4.026189  0
C  C239  1  0.00540283  0.28150178  0.23987466  1  0.066964  0  -0.081146  -0.035836  0  4.026709  0
C  C240  1  0.49186982  0.84438723  0.18821952  1  0.016586  0  -0.080339  -0.037242  0  4.03156  0
C  C241  1  0.00812428  0.15560548  0.68822097  1  0.016288  0  -0.080513  -0.037561  0  4.031875  0
C  C242  1  0.50812071  0.34439894  0.31177895  1  0.016268  0  -0.080451  -0.037427  0  4.031827  0
C  C243  1  0.99187291  0.65561488  0.81178206  1  0.016657  0  -0.080378  -0.037414  0  4.031878  0
C  C244  1  0.50811921  0.15560798  0.81177848  1  0.016276  0  -0.080418  -0.037311  0  4.031793  0
C  C245  1  0.99187590  0.84439393  0.31177978  1  0.016559  0  -0.080465  -0.037353  0  4.031811  0
C  C246  1  0.49186386  0.65560397  0.68822042  1  0.01639  0  -0.080487  -0.037464  0  4.031572  0
C  C247  1  0.00812503  0.34438873  0.18821823  1  0.016862  0  -0.080393  -0.037381  0  4.031721  0
C  C248  1  0.49149314  0.81599594  0.12890870  1  -0.040856  0  -0.100401  -0.243159  0  3.904178  0
C  C249  1  0.00850478  0.18399672  0.62891431  1  -0.040391  0  -0.100341  -0.242893  0  3.904375  0
C  C250  1  0.50850495  0.31600209  0.37108746  1  -0.040363  0  -0.100391  -0.24304  0  3.904366  0
C  C251  1  0.99149451  0.68401037  0.87109564  1  -0.040582  0  -0.100402  -0.243123  0  3.904189  0
C  C252  1  0.50850332  0.18400137  0.87108561  1  -0.040135  0  -0.100373  -0.243136  0  3.904467  0
C  C253  1  0.99149837  0.81600129  0.37108921  1  -0.040312  0  -0.100377  -0.243023  0  3.9042  0
C  C254  1  0.49148036  0.68400012  0.62890869  1  -0.040823  0  -0.100233  -0.242916  0  3.904107  0
C  C255  1  0.00850641  0.31599394  0.12890649  1  -0.040888  0  -0.100347  -0.243032  0  3.904174  0
C  C256  1  0.48993977  0.88266807  0.07643742  1  1.533868  0  0.206873  0.622797  0  4.224321  0
C  C257  1  0.01005899  0.11732944  0.57644070  1  1.534723  0  0.207078  0.6229  0  4.224161  0
C  C258  1  0.51005801  0.38266936  0.42356014  1  1.534657  0  0.207052  0.622841  0  4.224537  0
C  C259  1  0.98993913  0.61733614  0.92356416  1  1.53373  0  0.207004  0.622843  0  4.224675  0
C  C260  1  0.51006189  0.11733624  0.92356012  1  1.534  0  0.20709  0.623046  0  4.224055  0
C  C261  1  0.98993970  0.88267066  0.42356281  1  1.534091  0  0.20702  0.622803  0  4.224362  0
C  C262  1  0.48993102  0.61733215  0.57643693  1  1.533899  0  0.206973  0.622711  0  4.224531  0
C  C263  1  0.01006626  0.38266677  0.07643659  1  1.534277  0  0.20698  0.622858  0  4.224508  0
N  N264  1  0.33887439  0.59708273  0.43032522  1  -1.25539  0  -0.320017  -0.230605  0  3.510368  0
N  N265  1  0.16112669  0.40291856  0.93032711  1  -1.25545  0  -0.319871  -0.230386  0  3.510293  0
N  N266  1  0.66112624  0.09708312  0.06967639  1  -1.25534  0  -0.320004  -0.2306  0  3.510309  0
N  N267  1  0.83887378  0.90291301  0.56967371  1  -1.255217  0  -0.319914  -0.230494  0  3.510223  0
N  N268  1  0.66112133  0.40291248  0.56967323  1  -1.255475  0  -0.319917  -0.230485  0  3.510198  0
N  N269  1  0.83887943  0.59708785  0.06967411  1  -1.255715  0  -0.319968  -0.230545  0  3.510401  0
N  N270  1  0.33887766  0.90291279  0.93032712  1  -1.255456  0  -0.319885  -0.23042  0  3.510333  0
N  N271  1  0.16112119  0.09708150  0.43032566  1  -1.257026  0  -0.319924  -0.230552  0  3.510272  0
N  N272  1  0.65873903  0.61464005  0.44091268  1  -1.246097  0  -0.321215  -0.22971  0  3.515991  0
N  N273  1  0.84126476  0.38536407  0.94091259  1  -1.246257  0  -0.321257  -0.229697  0  3.516254  0
N  N274  1  0.34126225  0.11463616  0.05908710  1  -1.246162  0  -0.321202  -0.229708  0  3.516208  0
N  N275  1  0.15873877  0.88536275  0.55908776  1  -1.245764  0  -0.321212  -0.229723  0  3.516153  0
N  N276  1  0.34126115  0.38536146  0.55908807  1  -1.245782  0  -0.32117  -0.229676  0  3.516089  0
N  N277  1  0.15873764  0.61463604  0.05908448  1  -1.248256  0  -0.321174  -0.229657  0  3.516036  0
N  N278  1  0.65873867  0.88536115  0.94091365  1  -1.246094  0  -0.321222  -0.229732  0  3.516128  0
N  N279  1  0.84126141  0.11464156  0.44091622  1  -1.245879  0  -0.321205  -0.22968  0  3.516072  0
O  O280  1  0.50180061  0.65617296  0.34185081  1  -1.173772  0  -0.3422  -0.571623  0  2.213575  0
O  O281  1  0.99820114  0.34382268  0.84185382  1  -1.174268  0  -0.3422  -0.571521  0  2.213697  0
O  O282  1  0.49819379  0.15617479  0.15815082  1  -1.173663  0  -0.342224  -0.571593  0  2.213486  0
O  O283  1  0.00179962  0.84382559  0.65814882  1  -1.173732  0  -0.342176  -0.571571  0  2.213666  0
O  O284  1  0.49819288  0.34382575  0.65814764  1  -1.173844  0  -0.342212  -0.571534  0  2.213457  0
O  O285  1  0.00180202  0.65617323  0.15814969  1  -1.173816  0  -0.342208  -0.57164  0  2.213652  0
O  O286  1  0.50179970  0.84382462  0.84185223  1  -1.174296  0  -0.34214  -0.571435  0  2.213624  0
O  O287  1  0.99819164  0.15617522  0.34185009  1  -1.173741  0  -0.342237  -0.571667  0  2.213523  0
O  O288  1  0.49483807  0.77892834  0.40620766  1  -1.17705  0  -0.334123  -0.577732  0  2.143086  0
O  O289  1  0.00517197  0.22107294  0.90621190  1  -1.175223  0  -0.334045  -0.577619  0  2.142994  0
O  O290  1  0.50516392  0.27891819  0.09378987  1  -1.175336  0  -0.334105  -0.5777  0  2.143012  0
O  O291  1  0.99484497  0.72106815  0.59379438  1  -1.177025  0  -0.334124  -0.577688  0  2.143004  0
O  O292  1  0.50515096  0.22107947  0.59378711  1  -1.175431  0  -0.334077  -0.577613  0  2.143173  0
O  O293  1  0.99483638  0.77892577  0.09379207  1  -1.175489  0  -0.334156  -0.577784  0  2.143061  0
O  O294  1  0.49484889  0.72107352  0.90620996  1  -1.175327  0  -0.334129  -0.577636  0  2.143221  0
O  O295  1  0.00515372  0.27892915  0.40620453  1  -1.176913  0  -0.33419  -0.577861  0  2.142978  0
O  O296  1  0.48837773  0.84440747  0.02314942  1  -1.163857  0  -0.317052  -0.560718  0  2.372638  0
O  O297  1  0.01162485  0.15560051  0.52315318  1  -1.164521  0  -0.317187  -0.560881  0  2.372253  0
O  O298  1  0.51161949  0.34439759  0.47684628  1  -1.164454  0  -0.317231  -0.560838  0  2.372464  0
O  O299  1  0.98837680  0.65561215  0.97685400  1  -1.164163  0  -0.317213  -0.560875  0  2.372558  0
O  O300  1  0.51162171  0.15560384  0.97685041  1  -1.164225  0  -0.317222  -0.561003  0  2.372369  0
O  O301  1  0.98837533  0.84439400  0.47685125  1  -1.164037  0  -0.317172  -0.560813  0  2.372369  0
O  O302  1  0.48837697  0.65560322  0.52314849  1  -1.16411  0  -0.317166  -0.560868  0  2.372502  0
O  O303  1  0.01163229  0.34439076  0.02314721  1  -1.164313  0  -0.3172  -0.560906  0  2.372317  0
O  O304  1  0.49022122  0.96947020  0.08824199  1  -1.192096  0  -0.32093  -0.570326  0  2.401927  0
O  O305  1  0.00978123  0.03053153  0.58824064  1  -1.192085  0  -0.320961  -0.570272  0  2.402172  0
O  O306  1  0.50978358  0.46946658  0.41176112  1  -1.192075  0  -0.320914  -0.57024  0  2.402324  0
O  O307  1  0.99021804  0.53054241  0.91176511  1  -1.192022  0  -0.320915  -0.570271  0  2.402473  0
O  O308  1  0.50978787  0.03053901  0.91175785  1  -1.19184  0  -0.320966  -0.570272  0  2.402034  0
O  O309  1  0.99021374  0.96946648  0.41176287  1  -1.192042  0  -0.320927  -0.5702  0  2.402281  0
O  O310  1  0.49020768  0.53053493  0.58824055  1  -1.192001  0  -0.320956  -0.570166  0  2.402232  0
O  O311  1  0.00978511  0.46945979  0.08823564  1  -1.192184  0  -0.320886  -0.570195  0  2.40246  0
