# generated using pymatgen
data_HgH10C10(N2Cl)2
_symmetry_space_group_name_H-M   'P 1'
_cell_length_a   8.69952031
_cell_length_b   10.90614690
_cell_length_c   15.86940000
_cell_angle_alpha   101.09838400
_cell_angle_beta   90.00000000
_cell_angle_gamma   90.00000000
_symmetry_Int_Tables_number   1
_chemical_formula_structural   HgH10C10(N2Cl)2
_chemical_formula_sum   'Hg4 H40 C40 N16 Cl8'
_cell_volume   1477.50211634
_cell_formula_units_Z   4
loop_
 _symmetry_equiv_pos_site_id
 _symmetry_equiv_pos_as_xyz
  1  'x, y, z'
loop_
 _atom_site_type_symbol
 _atom_site_label
 _atom_site_symmetry_multiplicity
 _atom_site_fract_x
 _atom_site_fract_y
 _atom_site_fract_z
 _atom_site_occupancy
 _atom_site_hle17_bader_spin_density
 _atom_site_hle17_ddec_charge
 _atom_site_hle17_ddec_spin_density
 _atom_site_hle17_ddec_sum_bond_order
 _atom_site_hle17_magmom
 _atom_site_hse06_10hf_bader_spin_density
 _atom_site_hse06_10hf_ddec_charge
 _atom_site_hse06_10hf_ddec_spin_density
 _atom_site_hse06_10hf_ddec_sum_bond_order
 _atom_site_hse06_10hf_magmom
 _atom_site_hse06_bader_spin_density
 _atom_site_hse06_ddec_charge
 _atom_site_hse06_ddec_spin_density
 _atom_site_hse06_ddec_sum_bond_order
 _atom_site_hse06_magmom
 _atom_site_pbe_bader_charge
 _atom_site_pbe_bader_spin_density
 _atom_site_pbe_cm5_charge
 _atom_site_pbe_ddec_charge
 _atom_site_pbe_ddec_spin_density
 _atom_site_pbe_ddec_sum_bond_order
 _atom_site_pbe_magmom
Hg  Hg0  1  0.32774106  0.34612944  0.05936230  1  0  0.73785  0  2.113604  0  0  0.568705  0  2.619846  0  0  0.618824  0  2.582426  0  0.812841  0  0.509804  0.534134  0  2.644777  0
Hg  Hg1  1  0.82774219  0.65387138  0.44063850  1  0  0.737879  0  2.113578  0  0  0.56874  0  2.619818  0  0  0.618859  0  2.582396  0  0.812915  0  0.509807  0.53417  0  2.644748  0
Hg  Hg2  1  0.67226005  0.65387232  0.94063925  1  0  0.737867  0  2.113614  0  0  0.568725  0  2.619856  0  0  0.618843  0  2.582435  0  0.812852  0  0.509809  0.534155  0  2.644786  0
Hg  Hg3  1  0.17225777  0.34612851  0.55936218  1  0  0.737857  0  2.113617  0  0  0.568713  0  2.619859  0  0  0.618833  0  2.582437  0  0.812848  0  0.509807  0.534142  0  2.64479  0
H  H4  1  0.71245078  0.49261827  0.09251632  1  0  0.072309  0  0.974345  0  0  0.077131  0  1.046872  0  0  0.078971  0  1.045692  0  0.096939  0  0.101561  0.075712  0  1.048334  0
H  H5  1  0.21244735  0.50738349  0.40748460  1  0  0.072231  0  0.97436  0  0  0.077057  0  1.046889  0  0  0.078897  0  1.045709  0  0.097023  0  0.101537  0.075639  0  1.048351  0
H  H6  1  0.28755264  0.50738536  0.90748359  1  0  0.072213  0  0.974356  0  0  0.077063  0  1.046855  0  0  0.078903  0  1.045676  0  0.09701  0  0.101535  0.075644  0  1.048318  0
H  H7  1  0.78754917  0.49261640  0.59251670  1  0  0.072266  0  0.974333  0  0  0.077096  0  1.046855  0  0  0.078936  0  1.045674  0  0.097043  0  0.101547  0.075677  0  1.048318  0
H  H8  1  0.78499386  0.47291201  0.24526307  1  0  0.088787  0  0.957122  0  0  0.092951  0  1.025253  0  0  0.096347  0  1.023669  0  0.107153  0  0.101967  0.09049  0  1.026605  0
H  H9  1  0.28498698  0.52708975  0.25473660  1  0  0.088823  0  0.957107  0  0  0.092945  0  1.025297  0  0  0.09634  0  1.023714  0  0.10711  0  0.101981  0.090485  0  1.026648  0
H  H10  1  0.21501071  0.52708975  0.75473534  1  0  0.088947  0  0.957064  0  0  0.093103  0  1.0252  0  0  0.0965  0  1.023612  0  0.107075  0  0.10203  0.090632  0  1.026562  0
H  H11  1  0.71500954  0.47291201  0.74526496  1  0  0.088904  0  0.95707  0  0  0.093041  0  1.025227  0  0  0.096438  0  1.023641  0  0.106896  0  0.101993  0.09058  0  1.026581  0
H  H12  1  0.94144501  0.83870754  0.29256294  1  0  0.086091  0  0.967166  0  0  0.087508  0  1.043982  0  0  0.091271  0  1.04134  0  0.087771  0  0.105454  0.084778  0  1.046168  0
H  H13  1  0.44144503  0.16129609  0.20743635  1  0  0.086012  0  0.967274  0  0  0.087416  0  1.044112  0  0  0.091189  0  1.041461  0  0.087828  0  0.105396  0.084686  0  1.046296  0
H  H14  1  0.05855495  0.16129516  0.70743748  1  0  0.085982  0  0.967257  0  0  0.087406  0  1.044083  0  0  0.091165  0  1.041447  0  0.087768  0  0.105382  0.084677  0  1.046267  0
H  H15  1  0.55855493  0.83870660  0.79256281  1  0  0.086051  0  0.967245  0  0  0.087485  0  1.044044  0  0  0.091238  0  1.041414  0  0.087733  0  0.105441  0.084756  0  1.046229  0
H  H16  1  0.02652560  0.98852653  0.21610483  1  0  0.063922  0  0.912217  0  0  0.083478  0  0.968721  0  0  0.08367  0  0.96839  0  0.05686  0  0.107619  0.083139  0  0.969287  0
H  H17  1  0.52652558  0.01147430  0.28389661  1  0  0.063934  0  0.912225  0  0  0.083483  0  0.968712  0  0  0.083675  0  0.96838  0  0.056844  0  0.107608  0.083143  0  0.969278  0
H  H18  1  0.97347436  0.01147710  0.78389509  1  0  0.06388  0  0.912179  0  0  0.083421  0  0.968693  0  0  0.083612  0  0.968363  0  0.056717  0  0.107581  0.083081  0  0.969259  0
H  H19  1  0.47347438  0.98852653  0.71610420  1  0  0.06393  0  0.912199  0  0  0.083485  0  0.9687  0  0  0.083676  0  0.96837  0  0.056842  0  0.10762  0.083146  0  0.969265  0
H  H20  1  0.83090443  0.02165727  0.24198121  1  0  0.058261  0  0.906439  0  0  0.076157  0  0.965777  0  0  0.076085  0  0.96551  0  0.060142  0  0.102958  0.075612  0  0.966557  0
H  H21  1  0.33090445  0.97833889  0.25802212  1  0  0.058304  0  0.906418  0  0  0.076155  0  0.965779  0  0  0.076081  0  0.965517  0  0.060173  0  0.102959  0.075611  0  0.966556  0
H  H22  1  0.16909553  0.97834356  0.75801959  1  0  0.058263  0  0.906436  0  0  0.076157  0  0.965767  0  0  0.076086  0  0.965499  0  0.060151  0  0.102976  0.075612  0  0.966545  0
H  H23  1  0.66909666  0.02165820  0.74198007  1  0  0.058277  0  0.906408  0  0  0.076166  0  0.965746  0  0  0.076095  0  0.965478  0  0.060134  0  0.102973  0.075621  0  0.966523  0
H  H24  1  0.16072610  0.13831853  0.15723984  1  0  0.066245  0  0.972754  0  0  0.069895  0  1.049761  0  0  0.071808  0  1.048442  0  0.09355  0  0.102465  0.068336  0  1.050978  0
H  H25  1  0.66073183  0.86167669  0.34276589  1  0  0.066317  0  0.972695  0  0  0.069904  0  1.049761  0  0  0.071814  0  1.048446  0  0.093642  0  0.102502  0.068346  0  1.050977  0
H  H26  1  0.83927041  0.86167949  0.84276248  1  0  0.066344  0  0.972692  0  0  0.06994  0  1.049747  0  0  0.07185  0  1.04843  0  0.093633  0  0.102489  0.068381  0  1.050963  0
H  H27  1  0.33927273  0.13831573  0.65723758  1  0  0.066281  0  0.972737  0  0  0.069906  0  1.049762  0  0  0.071817  0  1.048446  0  0.093546  0  0.102491  0.068348  0  1.050978  0
H  H28  1  0.95139154  0.37025163  0.01330709  1  0  0.077415  0  0.939959  0  0  0.083425  0  1.009908  0  0  0.085496  0  1.007975  0  0.087102  0  0.10709  0.08182  0  1.011549  0
H  H29  1  0.45138696  0.62974453  0.48669435  1  0  0.077398  0  0.940097  0  0  0.083399  0  1.010038  0  0  0.08547  0  1.008106  0  0.087034  0  0.10708  0.081794  0  1.011678  0
H  H30  1  0.04861188  0.62974920  0.98669434  1  0  0.077389  0  0.94005  0  0  0.083386  0  1.010001  0  0  0.085455  0  1.008071  0  0.087105  0  0.107083  0.081781  0  1.011641  0
H  H31  1  0.54860496  0.37025163  0.51330583  1  0  0.077408  0  0.93993  0  0  0.083409  0  1.009884  0  0  0.08548  0  1.007951  0  0.087081  0  0.107075  0.081804  0  1.011525  0
H  H32  1  0.69703154  0.26549728  0.02038686  1  0  0.100274  0  0.990569  0  0  0.106507  0  1.05895  0  0  0.109131  0  1.058292  0  0.124931  0  0.089059  0.104574  0  1.05968  0
H  H33  1  0.19702925  0.73449794  0.47960753  1  0  0.100247  0  0.990645  0  0  0.106493  0  1.059004  0  0  0.109119  0  1.058341  0  0.124932  0  0.089042  0.104559  0  1.059739  0
H  H34  1  0.30296958  0.73449981  0.97960840  1  0  0.100243  0  0.990642  0  0  0.106505  0  1.058989  0  0  0.109132  0  1.058327  0  0.124966  0  0.089046  0.104571  0  1.059724  0
H  H35  1  0.80296496  0.26549915  0.52038648  1  0  0.10032  0  0.990584  0  0  0.106562  0  1.058942  0  0  0.109184  0  1.05829  0  0.124927  0  0.089066  0.10463  0  1.059672  0
H  H36  1  0.67496595  0.09440692  0.10292230  1  0  0.10166  0  0.96233  0  0  0.110374  0  1.027441  0  0  0.113469  0  1.024789  0  0.110827  0  0.094527  0.108129  0  1.029468  0
H  H37  1  0.17496827  0.90559016  0.39707486  1  0  0.101717  0  0.962293  0  0  0.11043  0  1.027411  0  0  0.113525  0  1.024759  0  0.11082  0  0.094542  0.108184  0  1.029436  0
H  H38  1  0.32503401  0.90559110  0.89707561  1  0  0.101679  0  0.962282  0  0  0.110394  0  1.027403  0  0  0.11349  0  1.02475  0  0.110837  0  0.094523  0.108149  0  1.029429  0
H  H39  1  0.82503515  0.09440973  0.60292204  1  0  0.101649  0  0.962351  0  0  0.110368  0  1.027455  0  0  0.113463  0  1.024802  0  0.110798  0  0.094525  0.108122  0  1.029482  0
H  H40  1  0.81078608  0.88544661  0.07668286  1  0  0.277416  0  0.934923  0  0  0.25839  0  1.009466  0  0  0.264693  0  1.005305  0  0.480849  0  0.28905  0.253936  0  1.012458  0
H  H41  1  0.31078380  0.11455609  0.42331630  1  0  0.277449  0  0.934905  0  0  0.25842  0  1.009451  0  0  0.264722  0  1.005292  0  0.480838  0  0.289075  0.253967  0  1.012443  0
H  H42  1  0.18921618  0.11455609  0.92331630  1  0  0.277391  0  0.934905  0  0  0.258353  0  1.009472  0  0  0.264656  0  1.005311  0  0.480852  0  0.289044  0.2539  0  1.012462  0
H  H43  1  0.68921616  0.88544380  0.57668312  1  0  0.277376  0  0.934896  0  0  0.25835  0  1.009446  0  0  0.264652  0  1.005289  0  0.480848  0  0.289043  0.253897  0  1.012436  0
C  C44  1  0.76532726  0.56950634  0.13727835  1  0  0.101375  0  3.757645  0  0  0.078087  0  4.008514  0  0  0.083709  0  4.027142  0  0.491825  0  0.045656  0.074227  0  3.996222  0
C  C45  1  0.26532497  0.43049449  0.36272119  1  0  0.101493  0  3.757587  0  0  0.0782  0  4.008468  0  0  0.083821  0  4.027096  0  0.491753  0  0.045678  0.074339  0  3.996178  0
C  C46  1  0.23467616  0.43049542  0.86272131  1  0  0.10157  0  3.757628  0  0  0.078259  0  4.008519  0  0  0.08388  0  4.027148  0  0.491763  0  0.045651  0.074399  0  3.996226  0
C  C47  1  0.73467269  0.56950540  0.63727886  1  0  0.101499  0  3.757575  0  0  0.078204  0  4.00845  0  0  0.083826  0  4.027078  0  0.491768  0  0.045687  0.074344  0  3.99616  0
C  C48  1  0.80485702  0.55808717  0.22048609  1  0  0.019609  0  3.729192  0  0  -0.010078  0  3.986835  0  0  -0.011855  0  4.007077  0  0.513032  0  0.019318  -0.008676  0  3.972851  0
C  C49  1  0.30485014  0.44191459  0.27951420  1  0  0.019534  0  3.729144  0  0  -0.010129  0  3.986836  0  0  -0.011906  0  4.007072  0  0.512937  0  0.019267  -0.008727  0  3.972851  0
C  C50  1  0.19514524  0.44191646  0.77951319  1  0  0.019381  0  3.729087  0  0  -0.010309  0  3.986761  0  0  -0.012087  0  4.006999  0  0.512941  0  0.019275  -0.008895  0  3.972775  0
C  C51  1  0.69514522  0.55808624  0.72048723  1  0  0.019463  0  3.72912  0  0  -0.010204  0  3.98678  0  0  -0.011983  0  4.007023  0  0.513169  0  0.019306  -0.008796  0  3.972788  0
C  C52  1  0.89196642  0.76139059  0.24651539  1  0  -0.049577  0  3.686425  0  0  -0.080869  0  3.947878  0  0  -0.082935  0  3.964328  0  0.520217  0  0.027234  -0.079456  0  3.936787  0
C  C53  1  0.39196414  0.23861211  0.25348503  1  0  -0.049426  0  3.686563  0  0  -0.080715  0  3.948026  0  0  -0.082791  0  3.964474  0  0.520476  0  0.027276  -0.079301  0  3.936932  0
C  C54  1  0.10803584  0.23861304  0.75348452  1  0  -0.049427  0  3.686506  0  0  -0.080738  0  3.947954  0  0  -0.082802  0  3.964409  0  0.52029  0  0.027285  -0.079326  0  3.936863  0
C  C55  1  0.60803467  0.76138965  0.74651653  1  0  -0.049519  0  3.686489  0  0  -0.08083  0  3.947945  0  0  -0.082889  0  3.964399  0  0.520259  0  0.027266  -0.079417  0  3.936855  0
C  C56  1  0.85053770  0.77325079  0.16181899  1  0  0.369625  0  3.828277  0  0  0.347488  0  4.087258  0  0  0.363751  0  4.101966  0  1.009021  0  0.227052  0.336595  0  4.077002  0
C  C57  1  0.35053887  0.22675004  0.33817992  1  0  0.369403  0  3.828413  0  0  0.347279  0  4.087382  0  0  0.363542  0  4.102093  0  1.008759  0  0.226963  0.336386  0  4.077125  0
C  C58  1  0.14946341  0.22675004  0.83818055  1  0  0.369465  0  3.828481  0  0  0.347349  0  4.087426  0  0  0.363613  0  4.102138  0  1.00906  0  0.226997  0.336457  0  4.077169  0
C  C59  1  0.64946110  0.77324985  0.66181950  1  0  0.369489  0  3.828437  0  0  0.347361  0  4.08741  0  0  0.363624  0  4.10212  0  1.009289  0  0.226951  0.336466  0  4.077156  0
C  C60  1  0.91258595  0.99802553  0.18760040  1  0  0.036491  0  3.707952  0  0  -0.028279  0  3.967889  0  0  -0.022405  0  3.98041  0  0.303552  0  -0.047668  -0.0322  0  3.959825  0
C  C61  1  0.41258827  0.00197436  0.31240091  1  0  0.036471  0  3.707978  0  0  -0.028225  0  3.967833  0  0  -0.02235  0  3.980348  0  0.30323  0  -0.047637  -0.032146  0  3.959771  0
C  C62  1  0.08741402  0.00197717  0.81240002  1  0  0.036607  0  3.707825  0  0  -0.028145  0  3.967712  0  0  -0.022271  0  3.980232  0  0.303746  0  -0.047625  -0.032065  0  3.959648  0
C  C63  1  0.58741400  0.99802459  0.68759965  1  0  0.036553  0  3.707865  0  0  -0.028194  0  3.967766  0  0  -0.022319  0  3.980287  0  0.303516  0  -0.047657  -0.032115  0  3.959703  0
C  C64  1  0.91702413  0.10308553  0.13841826  1  0  0.017297  0  3.743353  0  0  0.045777  0  3.977621  0  0  0.040745  0  4.002382  0  0.002877  0  -0.007389  0.048978  0  3.9609  0
C  C65  1  0.41702644  0.89691530  0.36158254  1  0  0.017211  0  3.743398  0  0  0.04571  0  3.9776  0  0  0.04068  0  4.002358  0  0.00217  0  -0.007395  0.048908  0  3.960881  0
C  C66  1  0.08297354  0.89691717  0.86158153  1  0  0.017271  0  3.743335  0  0  0.045779  0  3.977537  0  0  0.040749  0  4.002297  0  0.002035  0  -0.007329  0.048978  0  3.960818  0
C  C67  1  0.58297467  0.10308459  0.63841688  1  0  0.017218  0  3.743353  0  0  0.045697  0  3.97761  0  0  0.040664  0  4.002372  0  0.002671  0  -0.007333  0.048897  0  3.96089  0
C  C68  1  0.05420414  0.16568865  0.12952424  1  0  0.073021  0  3.71312  0  0  0.036821  0  3.960035  0  0  0.043146  0  3.97904  0  0.483104  0  0.038222  0.033424  0  3.946433  0
C  C69  1  0.55421102  0.83430656  0.37048023  1  0  0.073071  0  3.71295  0  0  0.036916  0  3.959889  0  0  0.043246  0  3.978888  0  0.483518  0  0.03826  0.033519  0  3.946288  0
C  C70  1  0.94579238  0.83430750  0.87047784  1  0  0.072926  0  3.713294  0  0  0.036763  0  3.960213  0  0  0.043092  0  3.979215  0  0.483639  0  0.03819  0.033366  0  3.946612  0
C  C71  1  0.44579469  0.16568585  0.62952198  1  0  0.072979  0  3.713103  0  0  0.036791  0  3.960046  0  0  0.043122  0  3.979044  0  0.483127  0  0.038153  0.033394  0  3.946446  0
C  C72  1  0.93829196  0.29455397  0.04881710  1  0  0.123225  0  3.714418  0  0  0.090225  0  3.970762  0  0  0.09685  0  3.990593  0  0.49284  0  0.042142  0.086105  0  3.957592  0
C  C73  1  0.43829313  0.70544031  0.45118599  1  0  0.123249  0  3.714334  0  0  0.090289  0  3.97063  0  0  0.09691  0  3.990465  0  0.492861  0  0.042209  0.086168  0  3.957462  0
C  C74  1  0.06171030  0.70544218  0.95118435  1  0  0.123287  0  3.714169  0  0  0.090308  0  3.970518  0  0  0.096934  0  3.990347  0  0.492807  0  0.042189  0.086188  0  3.957349  0
C  C75  1  0.56170683  0.29455304  0.54881572  1  0  0.123264  0  3.714462  0  0  0.090297  0  3.970779  0  0  0.096922  0  3.99061  0  0.492995  0  0.04219  0.086175  0  3.95761  0
C  C76  1  0.79662093  0.23639667  0.05317430  1  0  -0.110495  0  3.740511  0  0  -0.117281  0  3.98287  0  0  -0.125132  0  4.006798  0  -0.032521  0  -0.086695  -0.112296  0  3.96742  0
C  C77  1  0.29661750  0.76360229  0.44682373  1  0  -0.110446  0  3.740542  0  0  -0.117259  0  3.982875  0  0  -0.125109  0  4.006805  0  -0.032432  0  -0.086715  -0.112275  0  3.967421  0
C  C78  1  0.20338133  0.76360509  0.94682221  1  0  -0.110468  0  3.740625  0  0  -0.117289  0  3.982967  0  0  -0.12514  0  4.006893  0  -0.032508  0  -0.086714  -0.112305  0  3.967513  0
C  C79  1  0.70337786  0.23639854  0.55317329  1  0  -0.11052  0  3.740501  0  0  -0.117339  0  3.982872  0  0  -0.125195  0  4.00681  0  -0.032548  0  -0.086691  -0.112353  0  3.967422  0
C  C80  1  0.78543181  0.14046763  0.09930707  1  0  -0.053943  0  3.697261  0  0  -0.079878  0  3.937069  0  0  -0.07766  0  3.956607  0  -0.047455  0  -0.072753  -0.081552  0  3.924295  0
C  C81  1  0.28544103  0.85952853  0.40069185  1  0  -0.053977  0  3.697467  0  0  -0.079925  0  3.937289  0  0  -0.07771  0  3.956831  0  -0.047167  0  -0.07275  -0.081595  0  3.924511  0
C  C82  1  0.21456355  0.85952853  0.90069185  1  0  -0.053913  0  3.697344  0  0  -0.079857  0  3.937154  0  0  -0.077642  0  3.956696  0  -0.047204  0  -0.072743  -0.081529  0  3.924378  0
C  C83  1  0.71456699  0.14046763  0.59930644  1  0  -0.053922  0  3.697166  0  0  -0.079851  0  3.936977  0  0  -0.077632  0  3.956513  0  -0.047084  0  -0.072779  -0.081524  0  3.924205  0
N  N84  1  0.78825036  0.67462697  0.10775406  1  0  -0.373053  0  3.125104  0  0  -0.319609  0  3.386883  0  0  -0.336579  0  3.401706  0  -1.214974  0  -0.312401  -0.307665  0  3.376278  0
N  N85  1  0.28824923  0.32537479  0.39224687  1  0  -0.372936  0  3.124943  0  0  -0.319486  0  3.3867  0  0  -0.336457  0  3.401526  0  -1.214942  0  -0.312303  -0.307543  0  3.376095  0
N  N86  1  0.21175076  0.32537666  0.89224522  1  0  -0.373012  0  3.125139  0  0  -0.31957  0  3.386909  0  0  -0.336542  0  3.401736  0  -1.214924  0  -0.31232  -0.307626  0  3.376304  0
N  N87  1  0.71174844  0.67462416  0.60775432  1  0  -0.373045  0  3.125063  0  0  -0.3196  0  3.386831  0  0  -0.336571  0  3.401656  0  -1.214936  0  -0.312354  -0.307656  0  3.376226  0
N  N88  1  0.86818580  0.65519822  0.27411648  1  0  -0.241925  0  3.262574  0  0  -0.180354  0  3.525593  0  0  -0.190736  0  3.545313  0  -1.198706  0  -0.304908  -0.172617  0  3.511352  0
N  N89  1  0.36818237  0.34480354  0.22588318  1  0  -0.241926  0  3.262442  0  0  -0.180342  0  3.525445  0  0  -0.190724  0  3.545165  0  -1.198685  0  -0.304877  -0.172604  0  3.511204  0
N  N90  1  0.13181531  0.34480354  0.72588318  1  0  -0.241904  0  3.262493  0  0  -0.180326  0  3.525517  0  0  -0.190708  0  3.545233  0  -1.198729  0  -0.304907  -0.172589  0  3.511274  0
N  N91  1  0.63181530  0.65519728  0.77411699  1  0  -0.241888  0  3.26252  0  0  -0.180312  0  3.525542  0  0  -0.190691  0  3.545255  0  -1.198734  0  -0.30491  -0.172575  0  3.511302  0
N  N92  1  0.86981463  0.88087838  0.13179330  1  0  -0.418824  0  3.315796  0  0  -0.363543  0  3.562293  0  0  -0.384926  0  3.575548  0  -1.216951  0  -0.429419  -0.348785  0  3.553101  0
N  N93  1  0.36981349  0.11912151  0.36820801  1  0  -0.418819  0  3.31582  0  0  -0.363556  0  3.5623  0  0  -0.384937  0  3.575554  0  -1.216662  0  -0.429438  -0.3488  0  3.553111  0
N  N94  1  0.13018649  0.11912338  0.86820637  1  0  -0.418799  0  3.315878  0  0  -0.363516  0  3.562348  0  0  -0.384897  0  3.575604  0  -1.216977  0  -0.429424  -0.34876  0  3.553156  0
N  N95  1  0.63018532  0.88087651  0.63179368  1  0  -0.418799  0  3.315844  0  0  -0.363529  0  3.56234  0  0  -0.38491  0  3.575598  0  -1.217185  0  -0.429423  -0.34877  0  3.553149  0
N  N96  1  0.06464609  0.26016192  0.08678188  1  0  -0.297657  0  3.257116  0  0  -0.225224  0  3.521876  0  0  -0.245068  0  3.543887  0  -1.225635  0  -0.314054  -0.211935  0  3.506309  0
N  N97  1  0.56464608  0.73983517  0.41322032  1  0  -0.297767  0  3.257082  0  0  -0.225351  0  3.521829  0  0  -0.245192  0  3.543835  0  -1.225775  0  -0.31418  -0.212063  0  3.506265  0
N  N98  1  0.93535387  0.73983891  0.91321766  1  0  -0.29775  0  3.257157  0  0  -0.225318  0  3.521902  0  0  -0.24516  0  3.543908  0  -1.225688  0  -0.314123  -0.212031  0  3.506337  0
N  N99  1  0.43535389  0.26016005  0.58678037  1  0  -0.297689  0  3.257168  0  0  -0.22526  0  3.521899  0  0  -0.2451  0  3.543902  0  -1.22581  0  -0.314099  -0.211972  0  3.506335  0
Cl  Cl100  1  0.41179397  0.13281685  0.01800080  1  0  -0.459786  0  1.060321  0  0  -0.403346  0  1.346777  0  0  -0.419607  0  1.32674  0  -0.516064  0  -0.259906  -0.391609  0  1.360624  0
Cl  Cl101  1  0.91179510  0.86718304  0.48199925  1  0  -0.459803  0  1.060332  0  0  -0.403371  0  1.346789  0  0  -0.419632  0  1.326749  0  -0.516079  0  -0.259912  -0.391634  0  1.360635  0
Cl  Cl102  1  0.58820600  0.86718491  0.98199698  1  0  -0.459816  0  1.060357  0  0  -0.403379  0  1.346811  0  0  -0.419645  0  1.326778  0  -0.516288  0  -0.259912  -0.39164  0  1.360658  0
Cl  Cl103  1  0.08820486  0.13281592  0.51800004  1  0  -0.459812  0  1.060331  0  0  -0.403378  0  1.346783  0  0  -0.419641  0  1.326748  0  -0.516255  0  -0.259921  -0.39164  0  1.36063  0
Cl  Cl104  1  0.32344542  0.56865885  0.08647938  1  0  -0.465619  0  0.956117  0  0  -0.404464  0  1.214991  0  0  -0.421069  0  1.196028  0  -0.483044  0  -0.275985  -0.393205  0  1.228136  0
Cl  Cl105  1  0.82344080  0.43134198  0.41352079  1  0  -0.46562  0  0.956117  0  0  -0.404464  0  1.21499  0  0  -0.421066  0  1.196027  0  -0.483035  0  -0.27598  -0.393205  0  1.228134  0
Cl  Cl106  1  0.67655799  0.43134291  0.91352091  1  0  -0.465616  0  0.956113  0  0  -0.404457  0  1.214991  0  0  -0.42106  0  1.196027  0  -0.483015  0  -0.275985  -0.393199  0  1.228135  0
Cl  Cl107  1  0.17655226  0.56865791  0.58647800  1  0  -0.465609  0  0.956132  0  0  -0.404448  0  1.215008  0  0  -0.421053  0  1.196044  0  -0.483021  0  -0.275967  -0.393188  0  1.228151  0
