# generated using pymatgen
data_Zn4H22C29O15F2
_symmetry_space_group_name_H-M   'P 1'
_cell_length_a   18.36940213
_cell_length_b   18.42079314
_cell_length_c   18.40581395
_cell_angle_alpha   90.24631396
_cell_angle_beta   119.58172646
_cell_angle_gamma   119.74495644
_symmetry_Int_Tables_number   1
_chemical_formula_structural   Zn4H22C29O15F2
_chemical_formula_sum   'Zn8 H44 C58 O30 F4'
_cell_volume   4439.12191599
_cell_formula_units_Z   2
loop_
 _symmetry_equiv_pos_site_id
 _symmetry_equiv_pos_as_xyz
  1  'x, y, z'
loop_
 _atom_site_type_symbol
 _atom_site_label
 _atom_site_symmetry_multiplicity
 _atom_site_fract_x
 _atom_site_fract_y
 _atom_site_fract_z
 _atom_site_occupancy
 _atom_site_pbe_bader_charge
 _atom_site_pbe_bader_spin_density
 _atom_site_pbe_cm5_charge
 _atom_site_pbe_ddec_charge
 _atom_site_pbe_ddec_spin_density
 _atom_site_pbe_ddec_sum_bond_order
 _atom_site_pbe_magmom
Zn  Zn0  1  0.91132720  0.20267558  0.62159914  1  1.315965  0  0.669566  0.961003  0  2.377132  0
Zn  Zn1  1  0.09093626  0.79804797  0.20872258  1  1.32013  0  0.679175  0.97075  0  2.355618  0
Zn  Zn2  1  0.91220984  0.20378948  0.79579918  1  1.305887  0  0.677767  0.969722  0  2.354057  0
Zn  Zn3  1  0.90959781  0.79189959  0.20367447  1  1.323582  0  0.679074  0.970288  0  2.356731  0
Zn  Zn4  1  0.08561341  0.37604975  0.79318111  1  1.299743  0  0.668861  0.957249  0  2.400676  0
Zn  Zn5  1  0.08629286  0.79342263  0.37729980  1  1.301014  0  0.668628  0.957618  0  2.40009  0
Zn  Zn6  1  0.91021914  0.62046871  0.20243907  1  1.306393  0  0.66939  0.961857  0  2.376333  0
Zn  Zn7  1  0.08794848  0.20448816  0.79704697  1  1.312256  0  0.677196  0.968684  0  2.356594  0
H  H8  1  0.89628509  0.43569592  0.34176126  1  0.080836  0  0.113256  0.111226  0  0.9755  0
H  H9  1  0.39918506  0.56519233  0.95107285  1  0.120196  0  0.119163  0.148427  0  0.97715  0
H  H10  1  0.13120386  0.96560649  0.56339612  1  0.129649  0  0.120064  0.149634  0  0.976536  0
H  H11  1  0.13158130  0.56471532  0.96468070  1  0.112107  0  0.120111  0.149494  0  0.976777  0
H  H12  1  0.40164059  0.95131864  0.56955565  1  0.137484  0  0.119471  0.148836  0  0.977838  0
H  H13  1  0.40832361  0.95140162  0.33878372  1  0.103157  0  0.113946  0.124616  0  0.985784  0
H  H14  1  0.40565357  0.33449896  0.95011201  1  0.101788  0  0.113058  0.12334  0  0.985853  0
H  H15  1  0.86898638  0.93897291  0.33798093  1  0.122568  0  0.114636  0.1241  0  0.985325  0
H  H16  1  0.88113960  0.34137265  0.43609748  1  0.111927  0  0.113589  0.111753  0  0.974392  0
H  H17  1  0.87322733  0.33875221  0.94367734  1  0.133101  0  0.11397  0.121635  0  0.986632  0
H  H18  1  0.59984602  0.04834163  0.43760115  1  0.101372  0  0.112545  0.119078  0  0.986185  0
H  H19  1  0.59723789  0.43374511  0.04741196  1  0.090852  0  0.11254  0.12011  0  0.987044  0
H  H20  1  0.87267605  0.03428703  0.43954750  1  0.114675  0  0.11338  0.120193  0  0.98339  0
H  H21  1  0.87714008  0.44063590  0.03866446  1  0.116339  0  0.113322  0.120995  0  0.986516  0
H  H22  1  0.09390350  0.24108260  0.02384843  1  0.03186  0  0.091825  0.054451  0  0.997409  0
H  H23  1  0.14113128  0.23426106  0.13280764  1  0.039625  0  0.092281  0.045064  0  0.994157  0
H  H24  1  0.98453066  0.27812874  0.03140109  1  0.042874  0  0.091444  0.090931  0  0.996076  0
H  H25  1  0.02618204  0.26818038  0.13798109  1  0.039567  0  0.091971  0.084897  0  0.974723  0
H  H26  1  0.20721443  0.39606447  0.19742401  1  0.026649  0  0.08418  0.10812  0  1.003997  0
H  H27  1  0.12206455  0.42842759  0.14834462  1  0.023238  0  0.08581  0.11559  0  1.007988  0
H  H28  1  0.16613971  0.40602269  0.09046338  1  0.014868  0  0.081986  0.107436  0  1.00952  0
H  H29  1  0.06047038  0.15636148  0.21796650  1  0.042616  0  0.09618  0.058832  0  0.985523  0
H  H30  1  0.14040255  0.12448795  0.22411318  1  0.042312  0  0.096439  0.054574  0  0.984437  0
H  H31  1  0.00078666  0.04423027  0.28843891  1  0.048564  0  0.093097  0.091216  0  0.975431  0
H  H32  1  0.08086911  0.01470892  0.29472429  1  0.03373  0  0.086483  0.079395  0  0.991384  0
H  H33  1  0.23672490  0.16818294  0.39873161  1  0.010575  0  0.084362  0.109183  0  1.00331  0
H  H34  1  0.16202863  0.11871847  0.44116309  1  0.025982  0  0.084018  0.113771  0  1.016956  0
H  H35  1  0.15754356  0.20034660  0.39209517  1  0.014213  0  0.084332  0.108455  0  1.005006  0
H  H36  1  0.90646113  0.97741511  0.75919528  1  0.025657  0  0.091547  0.053262  0  0.998252  0
H  H37  1  0.85750659  0.86838862  0.76624710  1  0.031831  0  0.09239  0.045184  0  0.993786  0
H  H38  1  0.01461673  0.96727530  0.72192125  1  0.072796  0  0.090788  0.094624  0  0.996622  0
H  H39  1  0.03598712  0.59416222  0.51250778  1  0.072805  0  0.113355  0.131432  0  0.985041  0
H  H40  1  0.97070632  0.86044721  0.73163962  1  0.020492  0  0.092419  0.086255  0  0.974115  0
H  H41  1  0.79039015  0.80286067  0.60446458  1  0.005637  0  0.083578  0.107227  0  1.004338  0
H  H42  1  0.87524987  0.85025894  0.57147734  1  0.020267  0  0.085279  0.114686  0  1.006815  0
H  H43  1  0.83338757  0.91000523  0.59454741  1  0.020395  0  0.081529  0.10681  0  1.010298  0
H  H44  1  0.93795497  0.78190745  0.84399207  1  0.052184  0  0.096714  0.059253  0  0.984078  0
H  H45  1  0.85848048  0.77569544  0.87662504  1  0.040236  0  0.096264  0.053911  0  0.983357  0
H  H46  1  0.99818816  0.71176313  0.95579737  1  0.029077  0  0.0925  0.093862  0  0.975544  0
H  H47  1  0.91935323  0.70604440  0.98680660  1  0.022135  0  0.08659  0.079934  0  0.990466  0
H  H48  1  0.76204425  0.60181303  0.83415847  1  0.002811  0  0.084392  0.109154  0  1.003184  0
H  H49  1  0.83598140  0.55881933  0.88267284  1  0.016636  0  0.083498  0.112286  0  1.017815  0
H  H50  1  0.06981929  0.51186256  0.59424682  1  0.083189  0  0.113634  0.132339  0  0.984663  0
H  H51  1  0.83968589  0.60728253  0.80045370  1  0.007791  0  0.083757  0.108029  0  1.005446  0
C  C52  1  0.27636336  0.38567419  0.88763408  1  1.578279  0  0.23031  0.603774  0  4.162586  0
C  C53  1  0.44642516  0.40624059  0.97171641  1  -0.000627  0  -0.084551  -0.112159  0  3.976979  0
C  C54  1  0.94814540  0.90618575  0.71219922  1  -0.016814  0  -0.170495  -0.137033  0  3.981352  0
C  C55  1  0.85684637  0.86510782  0.61548769  1  -0.040778  0  -0.244575  -0.349124  0  3.984252  0
C  C56  1  0.92884305  0.78003514  0.89904091  1  0.400049  0  -0.063774  0.041981  0  3.879056  0
C  C57  1  0.92491676  0.70264900  0.93019567  1  0.007567  0  -0.171863  -0.131043  0  3.97676  0
C  C58  1  0.83581140  0.61286904  0.85778504  1  -0.026772  0  -0.244551  -0.351784  0  3.987832  0
C  C59  1  0.07482025  0.22638042  0.07260917  1  0.395548  0  -0.067375  0.039509  0  3.898877  0
C  C60  1  0.05024531  0.28788663  0.09312765  1  -0.017209  0  -0.169717  -0.134646  0  3.984757  0
C  C61  1  0.14139369  0.38481076  0.13461025  1  -0.051824  0  -0.245161  -0.349979  0  3.983902  0
C  C62  1  0.07001367  0.10162358  0.22000598  1  0.411898  0  -0.064375  0.039824  0  3.885341  0
C  C63  1  0.07431105  0.07071431  0.29762206  1  -0.00626  0  -0.171259  -0.130096  0  3.98203  0
C  C64  1  0.92649279  0.96568890  0.40911806  1  -0.025609  0  -0.081967  -0.112719  0  3.975168  0
C  C65  1  0.16248547  0.14361971  0.38716803  1  -0.067729  0  -0.244965  -0.352271  0  3.986207  0
C  C66  1  0.92430252  0.92798283  0.77384753  1  0.410368  0  -0.06711  0.041621  0  3.897261  0
C  C67  1  0.93023091  0.41000972  0.96933346  1  -0.024619  0  -0.081634  -0.110498  0  3.977951  0
C  C68  1  0.44908583  0.97280373  0.41049507  1  -0.037464  0  -0.084061  -0.112413  0  3.975945  0
C  C69  1  0.55502670  0.02651672  0.46527616  1  -0.003622  0  -0.075982  -0.065238  0  3.974831  0
C  C70  1  0.55238515  0.46124823  0.02551640  1  -0.081135  0  -0.076226  -0.067218  0  3.978272  0
C  C71  1  0.92858020  0.01830562  0.46535656  1  0.012167  0  -0.073406  -0.064442  0  3.966872  0
C  C72  1  0.27891438  0.88716727  0.38994524  1  1.550352  0  0.229724  0.600085  0  4.16735  0
C  C73  1  0.93251293  0.46641031  0.02193137  1  -0.059593  0  -0.074429  -0.068087  0  3.974051  0
C  C74  1  0.60857435  0.05475593  0.55809985  1  0.020308  0  -0.021314  -0.148733  0  3.948271  0
C  C75  1  0.60596160  0.55408286  0.05395929  1  0.14977  0  -0.019219  -0.144689  0  3.945238  0
C  C76  1  0.00226158  0.05278788  0.55744133  1  0.007523  0  -0.018214  -0.146288  0  3.951431  0
C  C77  1  0.00576242  0.55870713  0.05562953  1  0.008717  0  -0.018299  -0.147743  0  3.948551  0
C  C78  1  0.00135139  0.38628100  0.89156791  1  1.566137  0  0.230861  0.59977  0  4.167232  0
C  C79  1  0.99461780  0.06993925  0.01962588  1  0.503348  0  0.076268  0.13727  0  4.056249  0
C  C80  1  0.99374988  0.01543646  0.07298575  1  0.620246  0  0.075946  0.13569  0  4.079633  0
C  C81  1  0.00422072  0.98062601  0.93019722  1  0.478254  0  0.076362  0.135915  0  4.058091  0
C  C82  1  0.00512852  0.92730316  0.98477312  1  0.600985  0  0.075801  0.134742  0  4.083178  0
C  C83  1  0.99963003  0.88999553  0.38560500  1  1.574163  0  0.231377  0.599945  0  4.167187  0
C  C84  1  0.99945187  0.94486460  0.05543562  1  0.026985  0  -0.025526  -0.199809  0  3.983898  0
C  C85  1  0.99937325  0.05221213  0.94794839  1  0.039933  0  -0.029915  -0.214935  0  3.972497  0
C  C86  1  0.72271675  0.11194970  0.61372926  1  1.548457  0  0.228006  0.622021  0  4.166461  0
C  C87  1  0.72012736  0.60997229  0.11188029  1  1.555435  0  0.226963  0.619529  0  4.172034  0
C  C88  1  0.99964689  0.10810851  0.61452155  1  1.567549  0  0.230285  0.620848  0  4.165949  0
C  C89  1  0.00336532  0.61558588  0.11153522  1  1.562465  0  0.231127  0.621084  0  4.165053  0
C  C90  1  0.99980835  0.10991632  0.89085815  1  1.556654  0  0.227965  0.628857  0  4.179566  0
C  C91  1  0.99974452  0.88779003  0.11300912  1  1.57906  0  0.233961  0.649767  0  4.146267  0
C  C92  1  0.00108811  0.38382170  0.61182450  1  1.554597  0  0.218622  0.640791  0  4.186921  0
C  C93  1  0.99333800  0.61153176  0.38425057  1  1.541783  0  0.217787  0.639942  0  4.18781  0
C  C94  1  0.94104782  0.46817819  0.41301900  1  0.045976  0  -0.065279  -0.019296  0  3.971917  0
C  C95  1  0.93994695  0.41259346  0.46856876  1  -0.023198  0  -0.064375  -0.0179  0  3.971713  0
C  C96  1  0.99196780  0.55705696  0.44274343  1  -0.118863  0  -0.085321  -0.223085  0  3.876108  0
C  C97  1  0.00698407  0.44222069  0.55732428  1  -0.024443  0  -0.086599  -0.22627  0  3.878651  0
C  C98  1  0.55019871  0.02628841  0.59339045  1  0.362002  0  0.112672  0.289896  0  4.029321  0
C  C99  1  0.54765443  0.58929793  0.02540151  1  0.512316  0  0.112688  0.289479  0  4.02495  0
C  C100  1  0.07463815  0.03246865  0.59054188  1  0.454874  0  0.113086  0.285588  0  4.032711  0
C  C101  1  0.07697593  0.59181911  0.03373155  1  0.467462  0  0.113365  0.286424  0  4.032925  0
C  C102  1  0.44419858  0.97232163  0.53980930  1  0.153979  0  -0.090468  -0.225228  0  3.960842  0
C  C103  1  0.44166036  0.53549486  0.97175301  1  -0.044361  0  -0.090273  -0.224312  0  3.958304  0
C  C104  1  0.07397151  0.98001744  0.53558510  1  0.016623  0  -0.088445  -0.224994  0  3.961793  0
C  C105  1  0.07552947  0.53668267  0.98061603  1  -0.003679  0  -0.087976  -0.22329  0  3.958762  0
C  C106  1  0.39321670  0.94532735  0.44789303  1  0.00749  0  -0.007523  0.00407  0  3.976826  0
C  C107  1  0.39061518  0.44349424  0.94478324  1  -0.01279  0  -0.008376  0.001239  0  3.97938  0
C  C108  1  0.99952905  0.94632137  0.44438497  1  -0.048102  0  -0.006032  0.001573  0  3.97599  0
C  C109  1  0.00203571  0.44529787  0.94835482  1  0.051527  0  -0.00589  0.002181  0  3.978192  0
O  O110  1  0.99901679  0.24641829  0.75145054  1  -1.200429  0  -0.572898  -1.032963  0  2.53818  0
O  O111  1  0.23339366  0.86564740  0.42880417  1  -1.151248  0  -0.314104  -0.542576  0  2.33284  0
O  O112  1  0.05806787  0.42455755  0.86428764  1  -1.175658  0  -0.312084  -0.541356  0  2.346813  0
O  O113  1  0.06527799  0.87193585  0.42435112  1  -1.170794  0  -0.312661  -0.541024  0  2.347173  0
O  O114  1  0.76508297  0.12395897  0.57264465  1  -1.167077  0  -0.315889  -0.548209  0  2.32479  0
O  O115  1  0.76300254  0.56915056  0.12631286  1  -1.174298  0  -0.31591  -0.549194  0  2.321649  0
O  O116  1  0.94386542  0.13575007  0.57419104  1  -1.16321  0  -0.314216  -0.546538  0  2.332426  0
O  O117  1  0.93799560  0.57419999  0.12986132  1  -1.163504  0  -0.315365  -0.546811  0  2.335783  0
O  O118  1  0.99898559  0.75020162  0.24793797  1  -1.221029  0  -0.57285  -1.034122  0  2.539628  0
O  O119  1  0.05147261  0.12222231  0.69751525  1  -1.16248  0  -0.307527  -0.540301  0  2.367918  0
O  O120  1  0.06496334  0.69916942  0.13538658  1  -1.148172  0  -0.306843  -0.542203  0  2.38285  0
O  O121  1  0.76868363  0.14420861  0.69668690  1  -1.174542  0  -0.312791  -0.541646  0  2.363429  0
O  O122  1  0.76554399  0.69297993  0.14243636  1  -1.169206  0  -0.310487  -0.536451  0  2.36813  0
O  O123  1  0.94459727  0.30311389  0.87558606  1  -1.175629  0  -0.304484  -0.535135  0  2.338347  0
O  O124  1  0.93481527  0.86546032  0.30243709  1  -1.159267  0  -0.304431  -0.538436  0  2.350228  0
O  O125  1  0.23332885  0.30241853  0.86035709  1  -1.178808  0  -0.310136  -0.538729  0  2.3274  0
O  O126  1  0.23664409  0.86401158  0.30676538  1  -1.174587  0  -0.306814  -0.532253  0  2.33378  0
O  O127  1  0.07291276  0.14421842  0.88127169  1  -1.166225  0  -0.311204  -0.539791  0  2.331277  0
O  O128  1  0.07864181  0.88661708  0.15538001  1  -1.162363  0  -0.311944  -0.542882  0  2.318218  0
O  O129  1  0.92724985  0.12009246  0.85681685  1  -1.164277  0  -0.310411  -0.53909  0  2.328532  0
O  O130  1  0.92118872  0.84535880  0.11488075  1  -1.161301  0  -0.310608  -0.540768  0  2.319601  0
O  O131  1  0.06659164  0.42375624  0.69549667  1  -1.16115  0  -0.321751  -0.550296  0  2.293687  0
O  O132  1  0.05359632  0.69533389  0.42449466  1  -1.15227  0  -0.321346  -0.550253  0  2.294772  0
O  O133  1  0.93306509  0.30052355  0.57291273  1  -1.181209  0  -0.319407  -0.555522  0  2.316644  0
O  O134  1  0.23159506  0.42472526  0.87120839  1  -1.174438  0  -0.313644  -0.542742  0  2.340632  0
O  O135  1  0.93642737  0.57227304  0.30074025  1  -1.168491  0  -0.318963  -0.555774  0  2.317664  0
O  O136  1  0.98644066  0.13669503  0.03837493  1  -1.059658  0  -0.198144  -0.213746  0  2.542449  0
O  O137  1  0.98320433  0.02699600  0.13990298  1  -1.07492  0  -0.200628  -0.214589  0  2.540826  0
O  O138  1  0.01250568  0.96193434  0.86347518  1  -1.062423  0  -0.197519  -0.211432  0  2.538786  0
O  O139  1  0.01579769  0.86055775  0.97325930  1  -1.072561  0  -0.200222  -0.213985  0  2.540855  0
F  F140  1  0.59521410  0.04972327  0.68190235  1  -0.622529  0  -0.098636  -0.135438  0  1.345674  0
F  F141  1  0.59251614  0.67780752  0.04866741  1  -0.620758  0  -0.097891  -0.134516  0  1.346219  0
F  F142  1  0.14964062  0.06472104  0.67815877  1  -0.628222  0  -0.09504  -0.135731  0  1.347579  0
F  F143  1  0.15085534  0.67960062  0.06401172  1  -0.624257  0  -0.095161  -0.134364  0  1.351767  0
