# generated using pymatgen
data_CoH10C14(NO3)2
_symmetry_space_group_name_H-M   'P 1'
_cell_length_a   7.31718128
_cell_length_b   9.46900964
_cell_length_c   10.95494726
_cell_angle_alpha   67.82099388
_cell_angle_beta   86.65322456
_cell_angle_gamma   83.59504170
_symmetry_Int_Tables_number   1
_chemical_formula_structural   CoH10C14(NO3)2
_chemical_formula_sum   'Co2 H20 C28 N4 O12'
_cell_volume   698.37188685
_cell_formula_units_Z   2
loop_
 _symmetry_equiv_pos_site_id
 _symmetry_equiv_pos_as_xyz
  1  'x, y, z'
loop_
 _atom_site_type_symbol
 _atom_site_label
 _atom_site_symmetry_multiplicity
 _atom_site_fract_x
 _atom_site_fract_y
 _atom_site_fract_z
 _atom_site_occupancy
 _atom_site_hle17_ddec_charge
 _atom_site_hle17_ddec_spin_density
 _atom_site_hle17_ddec_sum_bond_order
 _atom_site_hle17_magmom
 _atom_site_hse06_10hf_ddec_charge
 _atom_site_hse06_10hf_ddec_spin_density
 _atom_site_hse06_10hf_ddec_sum_bond_order
 _atom_site_hse06_10hf_magmom
 _atom_site_hse06_ddec_charge
 _atom_site_hse06_ddec_spin_density
 _atom_site_hse06_ddec_sum_bond_order
 _atom_site_hse06_magmom
 _atom_site_pbe_cm5_charge
 _atom_site_pbe_ddec_charge
 _atom_site_pbe_ddec_spin_density
 _atom_site_pbe_ddec_sum_bond_order
 _atom_site_pbe_magmom
Co  Co0  1  0.61483987  0.78980380  0.60114780  1  1.042777  -2.891002  1.929214  -2.543  0.996102  -2.834003  2.374866  -2.599  1.077768  -2.88256  2.298306  -2.687  0.689132  0.92443  -2.785408  2.442756  -2.513
Co  Co1  1  0.38491872  0.21027101  0.39871941  1  1.043001  2.891129  1.928657  2.543  0.996722  2.83412  2.37393  2.599  1.078267  2.882641  2.297538  2.688  0.689248  0.925091  2.785556  2.441764  2.513
H  H2  1  0.24904953  0.36283671  0.95657552  1  0.118309  -4.5e-05  0.942544  0.0  0.128718  -4.1e-05  1.002136  0.0  0.132613  -3e-05  0.99903  0.0  0.113791  0.125688  -2.6e-05  1.004625  0.0
H  H3  1  0.75112192  0.63711578  0.04345584  1  0.118552  4.6e-05  0.942976  0.0  0.128935  4.2e-05  1.002524  0.0  0.132815  3e-05  0.999446  0.0  0.113996  0.125915  2.6e-05  1.005  0.0
H  H4  1  0.35613912  0.93441833  0.89890159  1  0.135894  -4.1e-05  0.955914  0.0  0.142491  2.3e-05  1.016974  0.0  0.147121  4.8e-05  1.013341  0.0  0.113436  0.138982  -1.2e-05  1.019895  0.0
H  H5  1  0.64382285  0.06556959  0.10104719  1  0.135724  4.1e-05  0.956309  0.0  0.142355  -2.3e-05  1.017278  0.0  0.146971  -4.7e-05  1.013675  0.0  0.1134  0.138845  1.2e-05  1.020179  0.0
H  H6  1  0.55822052  0.34498693  0.61466147  1  0.108114  -4.2e-05  0.94436  0.0  0.115924  -6.5e-05  1.010202  0.0  0.11948  -4.4e-05  1.008296  0.0  0.106362  0.113475  -9.2e-05  1.01111  0.0
H  H7  1  0.44179648  0.65497869  0.38530791  1  0.107984  4.3e-05  0.944272  0.0  0.115927  6.5e-05  1.010027  0.0  0.119438  4.3e-05  1.008173  0.0  0.106341  0.113481  9.2e-05  1.01094  0.0
H  H8  1  0.98960054  0.13077102  0.24173709  1  0.132254  -0.000185  0.968964  0.0  0.144579  -0.000268  1.023505  0.0  0.148002  -0.000188  1.02168  0.0  0.120545  0.141869  -0.000361  1.025285  0.0
H  H9  1  0.01020687  0.86924811  0.75811936  1  0.132203  0.000186  0.969792  0.0  0.144445  0.000267  1.024419  0.0  0.14787  0.000188  1.02259  0.0  0.120633  0.14174  0.00036  1.026194  0.0
H  H10  1  0.79805617  0.05748887  0.44194774  1  0.098804  -0.001261  0.972867  -0.002  0.103019  -0.001078  1.039452  -0.002  0.106336  -0.000885  1.036558  -0.001  0.120115  0.100658  -0.001256  1.041421  -0.002
H  H11  1  0.20179215  0.94257414  0.55794161  1  0.09888  0.001261  0.972974  0.002  0.103167  0.001079  1.03949  0.002  0.106475  0.000886  1.036607  0.001  0.120129  0.10081  0.001257  1.04145  0.002
H  H12  1  0.88575134  0.59594091  0.50357056  1  0.079841  -0.000715  0.943299  -0.002  0.089691  -0.000482  1.005613  -0.001  0.091976  -0.000327  1.003217  -0.001  0.120098  0.08805  -0.000661  1.00742  -0.002
H  H13  1  0.11418063  0.40408772  0.49641349  1  0.079757  0.000718  0.943204  0.002  0.089585  0.000484  1.005535  0.001  0.091868  0.000329  1.003141  0.001  0.120086  0.087941  0.000663  1.007347  0.002
H  H14  1  0.08665713  0.65114369  0.29788565  1  0.118202  -0.000179  0.945189  0.0  0.124689  -0.000329  1.01083  0.0  0.12966  -0.000254  1.007191  0.0  0.113542  0.120453  -0.000401  1.014735  0.0
H  H15  1  0.91336307  0.34881957  0.70216302  1  0.118145  0.000178  0.945392  0.0  0.124595  0.000329  1.011063  0.0  0.129567  0.000254  1.007423  0.0  0.113419  0.120357  0.000402  1.014969  0.0
H  H16  1  0.15952112  0.14911783  0.10719555  1  0.305888  -8.9e-05  0.889166  0.0  0.288948  -0.000133  0.950782  0.0  0.295637  -0.000117  0.946036  0.0  0.318502  0.283781  -0.000141  0.954823  0.0
H  H17  1  0.84064533  0.85080765  0.89285325  1  0.305868  9e-05  0.88899  0.0  0.289165  0.000132  0.950325  0.0  0.295861  0.000117  0.945598  0.0  0.318496  0.283998  0.00014  0.954372  0.0
H  H18  1  0.88784254  0.54412344  0.84254254  1  0.416039  0.000122  0.841338  0.0  0.401577  0.000122  0.893853  0.0  0.409658  0.000115  0.881923  0.0  0.307853  0.395218  0.00012  0.903343  0.0
H  H19  1  0.11194496  0.45642726  0.15693464  1  0.415955  -0.000121  0.840654  0.0  0.401747  -0.000124  0.89335  0.0  0.409807  -0.000116  0.881458  0.0  0.308062  0.395412  -0.000122  0.902797  0.0
H  H20  1  0.07663044  0.61690873  0.80629321  1  0.411877  3.8e-05  0.893277  0.0  0.382694  8e-06  0.955693  0.0  0.393537  3e-05  0.939829  0.0  0.277891  0.375075  -2.6e-05  0.966711  0.0
H  H21  1  0.92366894  0.38299542  0.19417368  1  0.411966  -3.8e-05  0.893251  0.0  0.382612  -6e-06  0.955972  0.0  0.393462  -2.9e-05  0.940097  0.0  0.277604  0.374988  2.8e-05  0.967011  0.0
C  C22  1  0.43460006  0.53717541  0.73796230  1  0.646701  0.002276  3.886032  0.006  0.605557  -0.001966  4.176058  0.0  0.641792  -0.00108  4.171529  0.0  0.213543  0.580411  -0.002557  4.175801  0.0
C  C23  1  0.56552922  0.46276962  0.26205952  1  0.647222  -0.002277  3.885996  -0.006  0.606097  0.001967  4.176073  0.0  0.642354  0.001081  4.1715  0.0  0.213659  0.580939  0.002556  4.175843  0.0
C  C24  1  0.40780995  0.37094750  0.78183507  1  -0.040329  -0.003658  3.784744  -0.005  -0.014145  -0.001226  4.016595  -0.002  -0.020978  -0.000501  4.038649  -0.001  -0.014343  -0.009921  -0.002208  4.001724  -0.003
C  C25  1  0.59231921  0.62900990  0.21817858  1  -0.040798  0.00368  3.785274  0.005  -0.014795  0.001234  4.017441  0.002  -0.021641  0.00051  4.039497  0.001  -0.014342  -0.01049  0.002218  4.002434  0.003
C  C26  1  0.30964815  0.29820172  0.89762082  1  -0.139132  0.001169  3.632876  0.001  -0.17257  -0.000575  3.879341  -0.001  -0.17319  -0.000598  3.896315  -0.001  -0.071983  -0.171863  -0.000373  3.867591  -0.001
C  C27  1  0.69046205  0.70175481  0.10239695  1  -0.139207  -0.001188  3.633291  -0.001  -0.172554  0.000565  3.879788  0.001  -0.173179  0.000591  3.896778  0.001  -0.07219  -0.171858  0.000362  3.868044  0.001
C  C28  1  0.29162882  0.14031331  0.94116452  1  0.264476  -0.000744  3.76636  -0.001  0.259704  1.3e-05  4.020969  0.0  0.265639  0.000111  4.042309  0.0  0.106656  0.255727  -0.000232  4.006071  0.0
C  C29  1  0.70841123  0.85965016  0.05882904  1  0.264583  0.000753  3.76583  0.001  0.259731  -1.1e-05  4.020549  0.0  0.265689  -0.000108  4.041887  0.0  0.10669  0.255739  0.000235  4.00566  0.0
C  C30  1  0.36932816  0.05626620  0.86622055  1  -0.143362  0.001488  3.644122  0.002  -0.178616  0.000367  3.89602  0.0  -0.179731  0.000157  3.915142  0.0  -0.079749  -0.17727  -0.000145  3.883  0.0
C  C31  1  0.63065861  0.94371337  0.13374635  1  -0.143093  -0.001506  3.644543  -0.002  -0.178431  -0.000377  3.896444  0.0  -0.17955  -0.000164  3.915551  0.0  -0.079787  -0.177072  0.000134  3.883422  0.0
C  C32  1  0.46146105  0.13229243  0.74758953  1  -0.07503  -0.002604  3.82303  -0.004  -0.050004  -0.000859  4.058169  -0.001  -0.060371  -0.000446  4.083967  -0.001  -0.024624  -0.043222  -0.001588  4.041198  -0.002
C  C33  1  0.53851771  0.86768345  0.25237368  1  -0.07603  0.00261  3.823848  0.004  -0.050746  0.00086  4.058646  0.001  -0.061138  0.000445  4.084455  0.001  -0.024749  -0.043949  0.001587  4.041637  0.002
C  C34  1  0.48230689  0.28854624  0.70542664  1  -0.085252  -0.00087  3.712168  -0.001  -0.127405  -0.001466  3.968937  -0.002  -0.126706  -0.001149  3.989262  -0.001  -0.083519  -0.127839  -0.000937  3.954936  -0.001
C  C35  1  0.51774321  0.71142236  0.29455535  1  -0.084606  0.000854  3.712173  0.001  -0.126894  0.001459  3.968924  0.002  -0.126164  0.001144  3.98928  0.001  -0.083511  -0.127372  0.000925  3.954983  0.001
C  C36  1  0.15446847  0.92714737  0.12154901  1  0.522121  -0.000519  3.8328  -0.002  0.476072  4.2e-05  4.121257  0.0  0.503163  -3.6e-05  4.120923  0.0  0.238194  0.457985  0.000337  4.121657  0.0
C  C37  1  0.84551831  0.07282373  0.87843286  1  0.521943  0.000521  3.833065  0.002  0.475906  -4e-05  4.121564  0.0  0.503022  4e-05  4.121223  0.0  0.238097  0.457826  -0.000336  4.121908  0.0
C  C38  1  0.05249508  0.89511551  0.25081216  1  0.005708  0.013586  3.718697  0.018  0.022483  0.003078  3.952622  0.004  0.025026  0.001769  3.969461  0.002  0.007387  0.018629  0.005629  3.943916  0.007
C  C39  1  0.94746051  0.10487605  0.74915850  1  0.005512  -0.01361  3.719144  -0.018  0.022098  -0.003095  3.953405  -0.004  0.024634  -0.001789  3.970247  -0.002  0.007365  0.018291  -0.005648  3.94462  -0.007
C  C40  1  0.97452924  0.00961290  0.29460706  1  -0.112552  -0.011477  3.657071  -0.016  -0.136904  -0.003154  3.903576  -0.005  -0.141579  -0.002507  3.920095  -0.004  -0.071527  -0.134194  -0.003743  3.895021  -0.006
C  C41  1  0.02535699  0.99039848  0.70532003  1  -0.11251  0.011494  3.657765  0.016  -0.1368  0.003162  3.904513  0.005  -0.141479  0.002517  3.921042  0.004  -0.071625  -0.134095  0.00375  3.895918  0.006
C  C42  1  0.86726238  0.97016314  0.40871375  1  0.122328  0.011868  3.683685  0.017  0.095637  0.00094  3.943258  0.002  0.104173  0.000584  3.958457  0.002  0.043529  0.088487  0.001917  3.934085  0.003
C  C43  1  0.13261821  0.02987729  0.59121037  1  0.122414  -0.011888  3.68354  -0.017  0.095609  -0.000948  3.943296  -0.002  0.104144  -0.000594  3.958488  -0.002  0.043435  0.08845  -0.001926  3.934151  -0.003
C  C44  1  0.91611615  0.71191672  0.44219101  1  0.124849  0.012143  3.694809  0.016  0.099096  0.001278  3.949382  0.002  0.1082  0.000809  3.965702  0.001  0.046859  0.091783  0.002363  3.938873  0.003
C  C45  1  0.08382875  0.28810472  0.55779038  1  0.125213  -0.012163  3.694724  -0.016  0.099524  -0.001293  3.949297  -0.002  0.108627  -0.000826  3.965614  -0.001  0.046929  0.092215  -0.002375  3.938775  -0.003
C  C46  1  0.02527942  0.74280076  0.32886942  1  -0.113731  -0.011564  3.690304  -0.016  -0.135463  -0.002835  3.937237  -0.004  -0.140865  -0.002164  3.954899  -0.003  -0.071064  -0.132691  -0.003491  3.928136  -0.006
C  C47  1  0.97469786  0.25720677  0.67113535  1  -0.113692  0.011583  3.690464  0.016  -0.135346  0.002843  3.937459  0.004  -0.140749  0.002175  3.955116  0.003  -0.070987  -0.132568  0.003497  3.928306  0.006
C  C48  1  0.53868176  0.04677646  0.66461484  1  0.64699  0.007879  3.866887  0.012  0.602746  0.005158  4.16308  0.008  0.641981  0.003917  4.158109  0.006  0.219582  0.57448  0.006761  4.162985  0.01
C  C49  1  0.46119827  0.95321395  0.33531293  1  0.647772  -0.007874  3.865977  -0.012  0.603539  -0.005159  4.161969  -0.008  0.642808  -0.00392  4.156931  -0.006  0.219778  0.575264  -0.006762  4.161907  -0.01
N  N50  1  0.19708004  0.07514123  0.06040531  1  -0.433138  0.000739  3.366329  0.001  -0.376743  0.000117  3.601969  0.0  -0.398697  -1.3e-05  3.613251  0.0  -0.390543  -0.361986  0.00039  3.594551  0.001
N  N51  1  0.80296108  0.92482441  0.93958557  1  -0.432887  -0.000743  3.365546  -0.001  -0.376722  -0.000119  3.60112  0.0  -0.398633  1.1e-05  3.61222  0.0  -0.390529  -0.36199  -0.000394  3.59376  -0.001
N  N52  1  0.83409084  0.82395971  0.48074640  1  -0.348591  -0.050675  3.370527  -0.079  -0.301012  -0.032505  3.673037  -0.044  -0.326772  -0.026344  3.684313  -0.034  -0.344153  -0.281057  -0.037869  3.665408  -0.052
N  N53  1  0.16580513  0.17608809  0.51920434  1  -0.348931  0.050714  3.370928  0.079  -0.301404  0.032525  3.673506  0.044  -0.327162  0.026363  3.684807  0.034  -0.344292  -0.281443  0.037891  3.665853  0.052
O  O54  1  0.31225531  0.63241018  0.75407657  1  -0.591583  -0.007498  1.919267  -0.012  -0.544831  -0.008185  2.12739  -0.014  -0.572701  -0.005838  2.119147  -0.01  -0.298012  -0.523876  -0.009587  2.131025  -0.015
O  O55  1  0.68784067  0.36755413  0.24587425  1  -0.59213  0.007479  1.918672  0.012  -0.54525  0.008164  2.126776  0.014  -0.57311  0.005823  2.11851  0.01  -0.298607  -0.524321  0.009565  2.130434  0.015
O  O56  1  0.59403674  0.57321096  0.68119463  1  -0.636303  -0.065103  2.036922  -0.104  -0.604861  -0.044125  2.323047  -0.066  -0.649997  -0.032453  2.310927  -0.047  -0.330238  -0.566976  -0.056805  2.32803  -0.085
O  O57  1  0.40611834  0.42678505  0.31884097  1  -0.635959  0.065138  2.037967  0.104  -0.604718  0.044127  2.324333  0.066  -0.649825  0.032449  2.312142  0.047  -0.329711  -0.566824  0.056816  2.3293  0.085
O  O58  1  0.56735733  0.11987373  0.54086098  1  -0.658732  0.033352  2.157212  0.051  -0.620838  0.025006  2.447517  0.033  -0.660237  0.019137  2.434069  0.024  -0.318623  -0.586518  0.03136  2.453678  0.043
O  O59  1  0.43242061  0.88009344  0.45906452  1  -0.659024  -0.033447  2.156922  -0.051  -0.621189  -0.025071  2.447534  -0.034  -0.660553  -0.019176  2.433862  -0.024  -0.318618  -0.586836  -0.03145  2.453712  -0.044
O  O60  1  0.57657804  0.90167390  0.71873792  1  -0.578296  -0.042276  2.082097  -0.065  -0.545549  -0.029015  2.369562  -0.039  -0.58552  -0.022216  2.356573  -0.028  -0.296476  -0.511328  -0.03556  2.375452  -0.049
O  O61  1  0.42330305  0.09829622  0.28120268  1  -0.578238  0.042183  2.081888  0.065  -0.545699  0.028944  2.369484  0.039  -0.585659  0.022166  2.356504  0.028  -0.296517  -0.511494  0.035469  2.375384  0.049
O  O62  1  0.19120189  0.82516399  0.07655596  1  -0.509101  0.001678  1.898133  0.003  -0.469272  0.000473  2.105808  0.001  -0.486979  0.000248  2.101497  0.0  -0.284891  -0.457643  0.001179  2.109345  0.002
O  O63  1  0.80876338  0.17481509  0.92342146  1  -0.509185  -0.001679  1.898163  -0.003  -0.469312  -0.000474  2.105767  -0.001  -0.487026  -0.00025  2.101444  0.0  -0.285011  -0.457678  -0.00118  2.109293  -0.002
O  O64  1  0.94438538  0.63794355  0.82627922  1  -0.836156  -0.001487  1.75819  -0.002  -0.80157  -0.002605  1.907527  -0.003  -0.817489  -0.001916  1.877331  -0.002  -0.597131  -0.78894  -0.003404  1.929767  -0.004
O  O65  1  0.05609248  0.36195891  0.17466370  1  -0.836287  0.001525  1.757526  0.002  -0.801843  0.002663  1.90769  0.003  -0.817759  0.001961  1.877493  0.003  -0.597031  -0.789169  0.003478  1.929839  0.005
