# generated using pymatgen
data_CdH6C4N2O7
_symmetry_space_group_name_H-M   'P 1'
_cell_length_a   7.26906543
_cell_length_b   7.29819319
_cell_length_c   14.61755345
_cell_angle_alpha   89.99967125
_cell_angle_beta   89.99962542
_cell_angle_gamma   90.00040065
_symmetry_Int_Tables_number   1
_chemical_formula_structural   CdH6C4N2O7
_chemical_formula_sum   'Cd4 H24 C16 N8 O28'
_cell_volume   775.47646874
_cell_formula_units_Z   4
loop_
 _symmetry_equiv_pos_site_id
 _symmetry_equiv_pos_as_xyz
  1  'x, y, z'
loop_
 _atom_site_type_symbol
 _atom_site_label
 _atom_site_symmetry_multiplicity
 _atom_site_fract_x
 _atom_site_fract_y
 _atom_site_fract_z
 _atom_site_occupancy
 _atom_site_hle17_bader_spin_density
 _atom_site_hle17_ddec_charge
 _atom_site_hle17_ddec_spin_density
 _atom_site_hle17_ddec_sum_bond_order
 _atom_site_hle17_magmom
 _atom_site_hse06_10hf_bader_spin_density
 _atom_site_hse06_10hf_ddec_charge
 _atom_site_hse06_10hf_ddec_spin_density
 _atom_site_hse06_10hf_ddec_sum_bond_order
 _atom_site_hse06_10hf_magmom
 _atom_site_hse06_bader_spin_density
 _atom_site_hse06_ddec_charge
 _atom_site_hse06_ddec_spin_density
 _atom_site_hse06_ddec_sum_bond_order
 _atom_site_hse06_magmom
 _atom_site_pbe_bader_spin_density
 _atom_site_pbe_cm5_charge
 _atom_site_pbe_ddec_charge
 _atom_site_pbe_ddec_spin_density
 _atom_site_pbe_ddec_sum_bond_order
 _atom_site_pbe_magmom
Cd  Cd0  1  0.94734876  0.00373729  0.20665206  1  0  1.247574  0  1.640735  0  0  1.065108  0  2.105714  0  0  1.125039  0  2.041222  0  0  0.781292  1.021851  0  2.150606  0
Cd  Cd1  1  0.55264895  0.99626502  0.70664876  1  0  1.247516  0  1.640731  0  0  1.065096  0  2.1057  0  0  1.125001  0  2.041268  0  0  0.781278  1.021842  0  2.150596  0
Cd  Cd2  1  0.05264483  0.50373277  0.29334924  1  0  1.247439  0  1.640826  0  0  1.064975  0  2.105811  0  0  1.124872  0  2.041334  0  0  0.781283  1.021711  0  2.1507  0
Cd  Cd3  1  0.44734973  0.49626232  0.79335020  1  0  1.247538  0  1.64083  0  0  1.065037  0  2.105838  0  0  1.124946  0  2.041398  0  0  0.781285  1.021778  0  2.150733  0
H  H4  1  0.31772922  0.59790928  0.01602456  1  0  0.139357  0  0.937554  0  0  0.147096  0  1.006592  0  0  0.150085  0  1.005151  0  0  0.10958  0.14502  0  1.00766  0
H  H5  1  0.18226352  0.40209035  0.51602050  1  0  0.13936  0  0.937464  0  0  0.147104  0  1.006525  0  0  0.150089  0  1.005063  0  0  0.109583  0.145026  0  1.007595  0
H  H6  1  0.68227467  0.09791426  0.48397715  1  0  0.139365  0  0.937446  0  0  0.147162  0  1.006484  0  0  0.150148  0  1.005022  0  0  0.109599  0.145085  0  1.007554  0
H  H7  1  0.81772488  0.90207940  0.98397463  1  0  0.139319  0  0.937407  0  0  0.147101  0  1.006429  0  0  0.150088  0  1.004989  0  0  0.109524  0.145021  0  1.007498  0
H  H8  1  0.45257108  0.79591483  0.03148561  1  0  0.147001  0  0.937466  0  0  0.156297  0  1.001533  0  0  0.15924  0  1.000083  0  0  0.111773  0.154227  0  1.002637  0
H  H9  1  0.04742695  0.20408873  0.53148802  1  0  0.146998  0  0.93746  0  0  0.156296  0  1.001522  0  0  0.159234  0  1.000046  0  0  0.111771  0.154236  0  1.002611  0
H  H10  1  0.54742044  0.29590945  0.46851690  1  0  0.146994  0  0.937512  0  0  0.156358  0  1.001564  0  0  0.159296  0  1.000121  0  0  0.11177  0.154293  0  1.002655  0
H  H11  1  0.95257794  0.70408575  0.96851315  1  0  0.147022  0  0.937383  0  0  0.156314  0  1.001482  0  0  0.159251  0  1.000048  0  0  0.111743  0.154242  0  1.002582  0
H  H12  1  0.64088868  0.52098442  0.03237846  1  0  0.095273  0  0.907983  0  0  0.10227  0  0.972553  0  0  0.104717  0  0.971412  0  0  0.125028  0.100484  0  0.97352  0
H  H13  1  0.85910997  0.47901714  0.53238318  1  0  0.095248  0  0.907951  0  0  0.102254  0  0.972563  0  0  0.104704  0  0.971407  0  0  0.125045  0.100467  0  0.97353  0
H  H14  1  0.35911605  0.02097911  0.46761800  1  0  0.095273  0  0.908051  0  0  0.102272  0  0.972609  0  0  0.104722  0  0.971446  0  0  0.125044  0.100484  0  0.973579  0
H  H15  1  0.14088859  0.97901946  0.96761856  1  0  0.095311  0  0.90794  0  0  0.102295  0  0.972531  0  0  0.104743  0  0.971386  0  0  0.125048  0.100511  0  0.973501  0
H  H16  1  0.45306138  0.28910136  0.09394207  1  0  0.344667  0  0.834195  0  0  0.320994  0  0.901032  0  0  0.329001  0  0.894032  0  0  0.322793  0.315262  0  0.906185  0
H  H17  1  0.04693169  0.71090560  0.59393961  1  0  0.344654  0  0.834236  0  0  0.321002  0  0.901026  0  0  0.329009  0  0.893977  0  0  0.322811  0.315271  0  0.906179  0
H  H18  1  0.54693696  0.78908667  0.40606115  1  0  0.344583  0  0.834235  0  0  0.320922  0  0.901051  0  0  0.328926  0  0.894031  0  0  0.322771  0.315193  0  0.906204  0
H  H19  1  0.95306086  0.21090239  0.90605949  1  0  0.34464  0  0.834286  0  0  0.320969  0  0.901089  0  0  0.328974  0  0.894091  0  0  0.322818  0.315239  0  0.906237  0
H  H20  1  0.41052201  0.41192696  0.18943058  1  0  0.343568  0  0.849892  0  0  0.321556  0  0.913459  0  0  0.329311  0  0.907315  0  0  0.316836  0.315991  0  0.917988  0
H  H21  1  0.08948218  0.58808439  0.68942765  1  0  0.343574  0  0.849888  0  0  0.321502  0  0.913504  0  0  0.329257  0  0.907359  0  0  0.316831  0.315945  0  0.918018  0
H  H22  1  0.58948270  0.91190818  0.31056954  1  0  0.343527  0  0.84991  0  0  0.321497  0  0.913477  0  0  0.329258  0  0.907301  0  0  0.316832  0.315944  0  0.917987  0
H  H23  1  0.91052190  0.08808335  0.81057044  1  0  0.343559  0  0.849925  0  0  0.321491  0  0.913521  0  0  0.329252  0  0.907372  0  0  0.316828  0.315934  0  0.918031  0
H  H24  1  0.62020626  0.32163010  0.17226197  1  0  0.351193  0  0.844934  0  0  0.325889  0  0.914359  0  0  0.334175  0  0.907578  0  0  0.31686  0.320016  0  0.919187  0
H  H25  1  0.87979603  0.67837397  0.67226332  1  0  0.351192  0  0.84495  0  0  0.325886  0  0.914363  0  0  0.334168  0  0.907587  0  0  0.316861  0.320017  0  0.91919  0
H  H26  1  0.37979369  0.82162336  0.32774115  1  0  0.351159  0  0.844997  0  0  0.325853  0  0.914419  0  0  0.33413  0  0.907636  0  0  0.316838  0.319985  0  0.919244  0
H  H27  1  0.12020455  0.17837545  0.82773998  1  0  0.351215  0  0.844933  0  0  0.325875  0  0.914392  0  0  0.334152  0  0.907629  0  0  0.316861  0.320006  0  0.919219  0
C  C28  1  0.27029635  0.73234030  0.14160771  1  0  0.749982  0  3.798701  0  0  0.693638  0  4.105126  0  0  0.729868  0  4.095879  0  0  0.217192  0.668882  0  4.110632  0
C  C29  1  0.22971536  0.26765790  0.64160046  1  0  0.749897  0  3.798646  0  0  0.693648  0  4.104907  0  0  0.729876  0  4.095664  0  0  0.217166  0.668894  0  4.110415  0
C  C30  1  0.72971398  0.23236486  0.35839772  1  0  0.750036  0  3.798609  0  0  0.69376  0  4.104998  0  0  0.730008  0  4.095715  0  0  0.217349  0.669002  0  4.11051  0
C  C31  1  0.77029411  0.76763024  0.85839506  1  0  0.750211  0  3.798305  0  0  0.693838  0  4.104774  0  0  0.730079  0  4.095518  0  0  0.217446  0.669084  0  4.110281  0
C  C32  1  0.40087464  0.67338138  0.06643221  1  0  -0.335751  0  3.650662  0  0  -0.377213  0  3.898491  0  0  -0.38421  0  3.905447  0  0  -0.170826  -0.372356  0  3.89388  0
C  C33  1  0.09912568  0.32662041  0.56643205  1  0  -0.335717  0  3.650578  0  0  -0.377219  0  3.898484  0  0  -0.384217  0  3.905406  0  0  -0.170828  -0.372375  0  3.893864  0
C  C34  1  0.59912703  0.17338362  0.43356860  1  0  -0.33581  0  3.65061  0  0  -0.377508  0  3.898686  0  0  -0.3845  0  3.905608  0  0  -0.170912  -0.372651  0  3.894057  0
C  C35  1  0.90087731  0.82661609  0.93356603  1  0  -0.335863  0  3.650538  0  0  -0.377394  0  3.898506  0  0  -0.384389  0  3.905447  0  0  -0.170808  -0.372521  0  3.893879  0
C  C36  1  0.56440401  0.55753120  0.09479459  1  0  0.094675  0  3.503163  0  0  0.066475  0  3.751898  0  0  0.066305  0  3.762759  0  0  0.011868  0.066525  0  3.744736  0
C  C37  1  0.93559932  0.44247239  0.59479780  1  0  0.094869  0  3.502937  0  0  0.066534  0  3.751817  0  0  0.066367  0  3.762652  0  0  0.011882  0.06659  0  3.744648  0
C  C38  1  0.43559960  0.05752714  0.40520382  1  0  0.094736  0  3.503015  0  0  0.066576  0  3.751765  0  0  0.06641  0  3.762599  0  0  0.011909  0.066635  0  3.744591  0
C  C39  1  0.06440312  0.94247078  0.90520474  1  0  0.094837  0  3.503033  0  0  0.066627  0  3.751774  0  0  0.06646  0  3.762627  0  0  0.011912  0.066664  0  3.74464  0
C  C40  1  0.70698759  0.65129290  0.15735531  1  0  0.669434  0  3.83743  0  0  0.617931  0  4.137114  0  0  0.652896  0  4.130537  0  0  0.219732  0.594074  0  4.140813  0
C  C41  1  0.79301491  0.34870997  0.65736062  1  0  0.669156  0  3.837753  0  0  0.617788  0  4.137271  0  0  0.65275  0  4.130706  0  0  0.219684  0.593938  0  4.140964  0
C  C42  1  0.29300842  0.15128445  0.34264078  1  0  0.669355  0  3.837687  0  0  0.617877  0  4.137305  0  0  0.652843  0  4.130703  0  0  0.219771  0.594019  0  4.141002  0
C  C43  1  0.20698412  0.84871829  0.84263945  1  0  0.669291  0  3.837589  0  0  0.617864  0  4.137155  0  0  0.652833  0  4.130582  0  0  0.219746  0.594012  0  4.140853  0
N  N44  1  0.50802445  0.38161049  0.14000770  1  0  -0.494751  0  3.160343  0  0  -0.446504  0  3.366684  0  0  -0.460347  0  3.36282  0  0  -0.59988  -0.43701  0  3.369822  0
N  N45  1  0.99197414  0.61839258  0.64000748  1  0  -0.494819  0  3.160321  0  0  -0.446487  0  3.366758  0  0  -0.46033  0  3.362846  0  0  -0.599932  -0.437005  0  3.369899  0
N  N46  1  0.49197729  0.88160279  0.35999388  1  0  -0.494626  0  3.16029  0  0  -0.446364  0  3.366691  0  0  -0.46021  0  3.362769  0  0  -0.599874  -0.436886  0  3.36983  0
N  N47  1  0.00802051  0.11839564  0.85999257  1  0  -0.494793  0  3.160341  0  0  -0.446459  0  3.36676  0  0  -0.460307  0  3.362892  0  0  -0.599933  -0.436968  0  3.369904  0
N  N48  1  0.00200908  0.29939972  0.07290438  1  0  0.694674  0  4.145722  0  0  0.734396  0  4.428121  0  0  0.749471  0  4.454396  0  0  0.092607  0.714316  0  4.424265  0
N  N49  1  0.49798428  0.70059926  0.57289980  1  0  0.694658  0  4.145681  0  0  0.734239  0  4.428181  0  0  0.749403  0  4.454362  0  0  0.092604  0.714159  0  4.424327  0
N  N50  1  0.99798384  0.79940163  0.42709607  1  0  0.693609  0  4.146908  0  0  0.734161  0  4.428338  0  0  0.764167  0  4.433136  0  0  0.092482  0.714073  0  4.424495  0
N  N51  1  0.50200683  0.20060089  0.92709454  1  0  0.694738  0  4.145645  0  0  0.73444  0  4.428061  0  0  0.749538  0  4.454303  0  0  0.092627  0.714359  0  4.424206  0
O  O52  1  0.14867879  0.84761511  0.11889258  1  0  -0.640338  0  2.021214  0  0  -0.571676  0  2.282927  0  0  -0.603012  0  2.271543  0  0  -0.319145  -0.549702  0  2.290035  0
O  O53  1  0.35132633  0.15238746  0.61888732  1  0  -0.640106  0  2.021113  0  0  -0.57156  0  2.282821  0  0  -0.602886  0  2.271434  0  0  -0.319078  -0.549587  0  2.28993  0
O  O54  1  0.85131171  0.34763341  0.38111525  1  0  -0.640088  0  2.021193  0  0  -0.571464  0  2.282905  0  0  -0.602782  0  2.271478  0  0  -0.319149  -0.549493  0  2.290015  0
O  O55  1  0.64869745  0.65236828  0.88110511  1  0  -0.640184  0  2.02131  0  0  -0.571574  0  2.283173  0  0  -0.602895  0  2.271775  0  0  -0.319181  -0.549603  0  2.290285  0
O  O56  1  0.28745733  0.65891899  0.22121139  1  0  -0.704647  0  2.027943  0  0  -0.62987  0  2.28267  0  0  -0.659106  0  2.268101  0  0  -0.338127  -0.609291  0  2.292119  0
O  O57  1  0.21255607  0.34107281  0.72120467  1  0  -0.70494  0  2.028107  0  0  -0.629981  0  2.282602  0  0  -0.659238  0  2.268065  0  0  -0.338173  -0.609404  0  2.292054  0
O  O58  1  0.71255661  0.15894160  0.27879357  1  0  -0.704855  0  2.027963  0  0  -0.630103  0  2.282712  0  0  -0.659425  0  2.268212  0  0  -0.338198  -0.609525  0  2.292164  0
O  O59  1  0.78745666  0.84107222  0.77878721  1  0  -0.704937  0  2.027724  0  0  -0.630109  0  2.282433  0  0  -0.659415  0  2.267943  0  0  -0.338254  -0.609529  0  2.291884  0
O  O60  1  0.70236994  0.82400820  0.16441849  1  0  -0.619663  0  2.005973  0  0  -0.547584  0  2.247714  0  0  -0.576758  0  2.236036  0  0  -0.316847  -0.52712  0  2.255097  0
O  O61  1  0.79763796  0.17599460  0.66442702  1  0  -0.619552  0  2.006053  0  0  -0.547507  0  2.247713  0  0  -0.576681  0  2.236049  0  0  -0.316806  -0.52705  0  2.255102  0
O  O62  1  0.29763140  0.32400260  0.33557915  1  0  -0.619645  0  2.00598  0  0  -0.547493  0  2.247608  0  0  -0.576669  0  2.235944  0  0  -0.316819  -0.527026  0  2.254988  0
O  O63  1  0.20236811  0.67599338  0.83557971  1  0  -0.61955  0  2.005759  0  0  -0.547516  0  2.247468  0  0  -0.576695  0  2.235807  0  0  -0.31684  -0.52705  0  2.254849  0
O  O64  1  0.82062331  0.54089317  0.19284207  1  0  -0.673283  0  2.126147  0  0  -0.612417  0  2.402018  0  0  -0.643222  0  2.390486  0  0  -0.333856  -0.590768  0  2.409094  0
O  O65  1  0.67937734  0.45910245  0.69284059  1  0  -0.673173  0  2.126187  0  0  -0.612363  0  2.402048  0  0  -0.643168  0  2.390537  0  0  -0.333862  -0.590716  0  2.409126  0
O  O66  1  0.17939806  0.04087474  0.30715433  1  0  -0.673301  0  2.126423  0  0  -0.612481  0  2.402365  0  0  -0.643293  0  2.390986  0  0  -0.33393  -0.590835  0  2.409448  0
O  O67  1  0.32061558  0.95911608  0.80715506  1  0  -0.673321  0  2.12637  0  0  -0.612447  0  2.402176  0  0  -0.643252  0  2.390659  0  0  -0.333884  -0.590799  0  2.409256  0
O  O68  1  0.11522264  0.30036847  0.13953846  1  0  -0.516342  0  1.842603  0  0  -0.500556  0  2.085146  0  0  -0.514531  0  2.081093  0  0  -0.197121  -0.487177  0  2.091677  0
O  O69  1  0.38476570  0.69964893  0.63953357  1  0  -0.516313  0  1.842451  0  0  -0.500524  0  2.085114  0  0  -0.514518  0  2.080986  0  0  -0.197088  -0.487145  0  2.091642  0
O  O70  1  0.88476340  0.80037858  0.36046814  1  0  -0.515985  0  1.843075  0  0  -0.500419  0  2.085303  0  0  -0.519349  0  2.075191  0  0  -0.197072  -0.487045  0  2.091836  0
O  O71  1  0.61522540  0.19963431  0.86046419  1  0  -0.516311  0  1.842644  0  0  -0.500528  0  2.085223  0  0  -0.5145  0  2.081143  0  0  -0.197085  -0.487152  0  2.091754  0
O  O72  1  0.87452659  0.17737941  0.07272733  1  0  -0.492326  0  1.819806  0  0  -0.470629  0  2.054114  0  0  -0.486304  0  2.052073  0  0  -0.19655  -0.456357  0  2.059425  0
O  O73  1  0.62548115  0.82261347  0.57272771  1  0  -0.492314  0  1.819673  0  0  -0.470655  0  2.054169  0  0  -0.486308  0  2.052023  0  0  -0.196561  -0.456378  0  2.059478  0
O  O74  1  0.12545584  0.67737387  0.42727005  1  0  -0.491895  0  1.820238  0  0  -0.470543  0  2.054392  0  0  -0.491118  0  2.046455  0  0  -0.196458  -0.456268  0  2.059704  0
O  O75  1  0.37452044  0.32261421  0.92727107  1  0  -0.492383  0  1.819858  0  0  -0.470696  0  2.054253  0  0  -0.486365  0  2.05219  0  0  -0.196551  -0.45642  0  2.059562  0
O  O76  1  0.01323692  0.41010424  0.00823332  1  0  -0.400262  0  1.775445  0  0  -0.395108  0  1.981783  0  0  -0.402485  0  1.98146  0  0  -0.153218  -0.386788  0  1.986658  0
O  O77  1  0.48674628  0.58990096  0.50822979  1  0  -0.400247  0  1.775541  0  0  -0.395018  0  1.981919  0  0  -0.40241  0  1.981527  0  0  -0.153215  -0.386693  0  1.986792  0
O  O78  1  0.98676778  0.91011219  0.49177160  1  0  -0.399909  0  1.775468  0  0  -0.395123  0  1.981588  0  0  -0.4076  0  1.974869  0  0  -0.153235  -0.386775  0  1.986439  0
O  O79  1  0.51323717  0.08989371  0.99177034  1  0  -0.400278  0  1.775225  0  0  -0.395168  0  1.981615  0  0  -0.402566  0  1.981288  0  0  -0.153264  -0.386839  0  1.986485  0
