# generated using pymatgen
data_InH17C7S2
_symmetry_space_group_name_H-M   'P 1'
_cell_length_a   7.77140625
_cell_length_b   8.76692118
_cell_length_c   9.13455807
_cell_angle_alpha   70.40972323
_cell_angle_beta   89.26160575
_cell_angle_gamma   64.99874492
_symmetry_Int_Tables_number   1
_chemical_formula_structural   InH17C7S2
_chemical_formula_sum   'In2 H34 C14 S4'
_cell_volume   525.30224351
_cell_formula_units_Z   2
loop_
 _symmetry_equiv_pos_site_id
 _symmetry_equiv_pos_as_xyz
  1  'x, y, z'
loop_
 _atom_site_type_symbol
 _atom_site_label
 _atom_site_symmetry_multiplicity
 _atom_site_fract_x
 _atom_site_fract_y
 _atom_site_fract_z
 _atom_site_occupancy
 _atom_site_pbe_bader_spin_density
 _atom_site_pbe_cm5_charge
 _atom_site_pbe_ddec_charge
 _atom_site_pbe_ddec_spin_density
 _atom_site_pbe_ddec_sum_bond_order
 _atom_site_pbe_magmom
In  In0  1  0.69572221  0.66391018  0.75418550  1  0  0.312022  0.764691  0  2.977324  0
In  In1  1  0.30428842  0.33610162  0.24581117  1  0  0.312019  0.764759  0  2.977298  0
H  H2  1  0.36493063  0.44863410  0.69802474  1  0  0.101305  0.112274  0  1.019119  0
H  H3  1  0.63506821  0.55137246  0.30196614  1  0  0.101295  0.112314  0  1.019107  0
H  H4  1  0.52470564  0.32171367  0.87919094  1  0  0.100982  0.113274  0  0.998372  0
H  H5  1  0.47529203  0.67829829  0.12080149  1  0  0.10098  0.113247  0  0.998411  0
H  H6  1  0.47421231  0.16935383  0.63119995  1  0  0.101935  0.112423  0  1.008036  0
H  H7  1  0.52578909  0.83065004  0.36879834  1  0  0.101937  0.112416  0  1.008019  0
H  H8  1  0.37989167  0.13991556  0.81222115  1  0  0.097211  0.106298  0  1.008602  0
H  H9  1  0.62010331  0.86009108  0.18777634  1  0  0.097214  0.106312  0  1.008595  0
H  H10  1  0.01422952  0.19735655  0.70472704  1  0  0.10365  0.122083  0  0.995798  0
H  H11  1  0.98576792  0.80264201  0.29527852  1  0  0.103648  0.122142  0  0.995706  0
H  H12  1  0.91423689  0.16999707  0.88323750  1  0  0.093982  0.101926  0  1.021529  0
H  H13  1  0.08575156  0.83000697  0.11676094  1  0  0.09395  0.101896  0  1.021615  0
H  H14  1  0.02935779  0.88932887  0.81150533  1  0  0.103155  0.121347  0  1.008038  0
H  H15  1  0.97064225  0.11066967  0.18850239  1  0  0.103161  0.121387  0  1.007988  0
H  H16  1  0.86859811  0.02062301  0.63164748  1  0  0.099653  0.111981  0  1.006131  0
H  H17  1  0.13140567  0.97937008  0.36835429  1  0  0.099641  0.111973  0  1.006185  0
H  H18  1  0.31694304  0.77343696  0.63702241  1  0  0.063446  0.142853  0  1.102349  0
H  H19  1  0.68306264  0.22655475  0.36297540  1  0  0.063468  0.142889  0  1.102306  0
H  H20  1  0.36571143  0.96504072  0.56704452  1  0  0.067722  0.150028  0  1.092402  0
H  H21  1  0.63427752  0.03495659  0.43295282  1  0  0.067738  0.150046  0  1.092447  0
H  H22  1  0.32211186  0.88820332  0.76407613  1  0  0.063195  0.142687  0  1.087199  0
H  H23  1  0.67788290  0.11179257  0.23592159  1  0  0.063183  0.142697  0  1.0872  0
H  H24  1  0.04490765  0.52799306  0.65257997  1  0  0.064542  0.148112  0  1.081246  0
H  H25  1  0.95509598  0.47198934  0.34743842  1  0  0.064516  0.148122  0  1.081317  0
H  H26  1  0.96636027  0.76477552  0.59608649  1  0  0.065708  0.150705  0  1.089446  0
H  H27  1  0.03365698  0.23520804  0.40393132  1  0  0.065678  0.15073  0  1.08955  0
H  H28  1  0.86693555  0.68001132  0.48549927  1  0  0.063353  0.140902  0  1.101869  0
H  H29  1  0.13308419  0.31996948  0.51450846  1  0  0.063339  0.140929  0  1.101752  0
H  H30  1  0.69585103  0.40243894  0.03421201  1  0  0.067593  0.149869  0  1.081694  0
H  H31  1  0.30414455  0.59756633  0.96577935  1  0  0.067585  0.149872  0  1.081611  0
H  H32  1  0.93588165  0.35995855  0.99755373  1  0  0.064468  0.1404  0  1.106411  0
H  H33  1  0.06411913  0.64004667  0.00244413  1  0  0.064473  0.1404  0  1.106426  0
H  H34  1  0.80784743  0.52456025  0.07948446  1  0  0.06962  0.155874  0  1.083378  0
H  H35  1  0.19214808  0.47543969  0.92051958  1  0  0.069632  0.155882  0  1.0834  0
C  C36  1  0.50164934  0.33005912  0.75778555  1  0  -0.149465  -0.190926  0  3.934297  0
C  C37  1  0.49834759  0.66994882  0.24220711  1  0  -0.14945  -0.190941  0  3.934299  0
C  C38  1  0.49686691  0.16013566  0.75292121  1  0  -0.14739  -0.172024  0  3.9161  0
C  C39  1  0.50312869  0.83986962  0.24707452  1  0  -0.147419  -0.172068  0  3.916098  0
C  C40  1  0.89561121  0.17803838  0.76141874  1  0  -0.149835  -0.182271  0  3.924999  0
C  C41  1  0.10438113  0.82196561  0.23857966  1  0  -0.149791  -0.182321  0  3.925008  0
C  C42  1  0.89240753  0.00861476  0.75417362  1  0  -0.149394  -0.183447  0  3.92862  0
C  C43  1  0.10759378  0.99138375  0.24582971  1  0  -0.149404  -0.183489  0  3.928668  0
C  C44  1  0.38861184  0.84448118  0.66934236  1  0  -0.382624  -0.763748  0  3.808118  0
C  C45  1  0.61138489  0.15551603  0.33065708  1  0  -0.382639  -0.763849  0  3.808217  0
C  C46  1  0.91970652  0.66076652  0.60421211  1  0  -0.383929  -0.762779  0  3.813955  0
C  C47  1  0.08030681  0.33921707  0.39579810  1  0  -0.383854  -0.762869  0  3.813927  0
C  C48  1  0.79288532  0.46492170  0.99531347  1  0  -0.384293  -0.767463  0  3.802243  0
C  C49  1  0.20711032  0.53508626  0.00468029  1  0  -0.384311  -0.7675  0  3.802251  0
S  S50  1  0.71273731  0.95543167  0.85852684  1  0  0.013942  0.000802  0  2.742779  0
S  S51  1  0.28725767  0.04457496  0.14146955  1  0  0.013967  0.000842  0  2.742701  0
S  S52  1  0.68095935  0.38067394  0.65135354  1  0  0.029447  0.03414  0  2.818135  0
S  S53  1  0.31904141  0.61933126  0.34863995  1  0  0.029443  0.034171  0  2.81812  0
