# generated using pymatgen
data_HgH10C7(SCl)2
_symmetry_space_group_name_H-M   'P 1'
_cell_length_a   4.90208407
_cell_length_b   8.70772306
_cell_length_c   12.05638307
_cell_angle_alpha   90.00052575
_cell_angle_beta   89.99968468
_cell_angle_gamma   90.00024389
_symmetry_Int_Tables_number   1
_chemical_formula_structural   HgH10C7(SCl)2
_chemical_formula_sum   'Hg2 H20 C14 S4 Cl4'
_cell_volume   514.63865246
_cell_formula_units_Z   2
loop_
 _symmetry_equiv_pos_site_id
 _symmetry_equiv_pos_as_xyz
  1  'x, y, z'
loop_
 _atom_site_type_symbol
 _atom_site_label
 _atom_site_symmetry_multiplicity
 _atom_site_fract_x
 _atom_site_fract_y
 _atom_site_fract_z
 _atom_site_occupancy
 _atom_site_hle17_bader_spin_density
 _atom_site_hle17_ddec_charge
 _atom_site_hle17_ddec_spin_density
 _atom_site_hle17_ddec_sum_bond_order
 _atom_site_hle17_magmom
 _atom_site_hse06_10hf_bader_spin_density
 _atom_site_hse06_10hf_ddec_charge
 _atom_site_hse06_10hf_ddec_spin_density
 _atom_site_hse06_10hf_ddec_sum_bond_order
 _atom_site_hse06_10hf_magmom
 _atom_site_hse06_bader_spin_density
 _atom_site_hse06_ddec_charge
 _atom_site_hse06_ddec_spin_density
 _atom_site_hse06_ddec_sum_bond_order
 _atom_site_hse06_magmom
 _atom_site_pbe_bader_spin_density
 _atom_site_pbe_cm5_charge
 _atom_site_pbe_ddec_charge
 _atom_site_pbe_ddec_spin_density
 _atom_site_pbe_ddec_sum_bond_order
 _atom_site_pbe_magmom
Hg  Hg0  1  0.80577402  0.74999491  0.24999288  1  0  0.535124  0  2.278989  0  0  0.385346  0  2.805603  0  0  0.426124  0  2.777725  0  0  0.418657  0.357771  0  2.824217  0
Hg  Hg1  1  0.19424591  0.25001286  0.74999587  1  0  0.535137  0  2.279024  0  0  0.38537  0  2.80561  0  0  0.426146  0  2.777724  0  0  0.418694  0.357777  0  2.824255  0
H  H2  1  0.68159332  0.45526443  0.41429587  1  0  0.103912  0  0.957495  0  0  0.113703  0  1.028276  0  0  0.114823  0  1.028402  0  0  0.088031  0.11285  0  1.028259  0
H  H3  1  0.68169775  0.45522787  0.08570230  1  0  0.104012  0  0.957181  0  0  0.113699  0  1.028053  0  0  0.11482  0  1.028174  0  0  0.087951  0.112846  0  1.028033  0
H  H4  1  0.68174192  0.04474609  0.41429037  1  0  0.104165  0  0.957152  0  0  0.11381  0  1.028042  0  0  0.114933  0  1.028163  0  0  0.087985  0.112959  0  1.028024  0
H  H5  1  0.68177700  0.04473595  0.08572749  1  0  0.10413  0  0.957109  0  0  0.113802  0  1.027984  0  0  0.114925  0  1.028106  0  0  0.087995  0.11295  0  1.027964  0
H  H6  1  0.31828382  0.54475139  0.58572025  1  0  0.104026  0  0.957325  0  0  0.113724  0  1.028137  0  0  0.114845  0  1.028258  0  0  0.087962  0.112873  0  1.028116  0
H  H7  1  0.31829770  0.54476383  0.91429143  1  0  0.104202  0  0.957282  0  0  0.113874  0  1.028116  0  0  0.114997  0  1.028236  0  0  0.087998  0.113021  0  1.028095  0
H  H8  1  0.31826169  0.95524102  0.58571414  1  0  0.104158  0  0.957213  0  0  0.113805  0  1.028115  0  0  0.114927  0  1.028237  0  0  0.088002  0.112952  0  1.028096  0
H  H9  1  0.31829189  0.95526838  0.91427453  1  0  0.104051  0  0.957408  0  0  0.113745  0  1.028223  0  0  0.114868  0  1.028343  0  0  0.087993  0.112894  0  1.028201  0
H  H10  1  0.34068279  0.38317536  0.41569690  1  0  0.108555  0  0.955978  0  0  0.120665  0  1.022634  0  0  0.122299  0  1.021865  0  0  0.091317  0.11944  0  1.023289  0
H  H11  1  0.34075868  0.38314567  0.08428407  1  0  0.108577  0  0.955945  0  0  0.120661  0  1.022611  0  0  0.122293  0  1.021849  0  0  0.091324  0.119435  0  1.023262  0
H  H12  1  0.34080366  0.11680492  0.41572173  1  0  0.108611  0  0.956165  0  0  0.120675  0  1.022798  0  0  0.122307  0  1.02204  0  0  0.09139  0.11945  0  1.023451  0
H  H13  1  0.34084691  0.11679131  0.08428485  1  0  0.108592  0  0.956301  0  0  0.12073  0  1.022844  0  0  0.122359  0  1.022091  0  0  0.091414  0.119504  0  1.023494  0
H  H14  1  0.65922903  0.61679337  0.58428688  1  0  0.108534  0  0.956252  0  0  0.120619  0  1.022872  0  0  0.122247  0  1.022118  0  0  0.091368  0.119394  0  1.023524  0
H  H15  1  0.65922861  0.61680813  0.91571795  1  0  0.108575  0  0.956171  0  0  0.120616  0  1.022854  0  0  0.122245  0  1.022099  0  0  0.091323  0.119387  0  1.023506  0
H  H16  1  0.65919179  0.88319482  0.58427117  1  0  0.108512  0  0.956209  0  0  0.120613  0  1.022833  0  0  0.122242  0  1.02208  0  0  0.091344  0.119387  0  1.023485  0
H  H17  1  0.65922402  0.88321187  0.91570722  1  0  0.10862  0  0.956246  0  0  0.120645  0  1.022904  0  0  0.122271  0  1.022155  0  0  0.091356  0.119418  0  1.023555  0
H  H18  1  0.99983903  0.14390432  0.25001972  1  0  0.112915  0  0.983206  0  0  0.127909  0  1.046407  0  0  0.12946  0  1.047043  0  0  0.090538  0.12674  0  1.046089  0
H  H19  1  0.99977700  0.35615614  0.25000383  1  0  0.112931  0  0.982861  0  0  0.127914  0  1.046129  0  0  0.129496  0  1.046721  0  0  0.09053  0.12669  0  1.045871  0
H  H20  1  0.00021354  0.85612642  0.74999641  1  0  0.113037  0  0.982852  0  0  0.127987  0  1.046184  0  0  0.12956  0  1.046787  0  0  0.090591  0.126766  0  1.045923  0
H  H21  1  0.00022457  0.64387805  0.75000068  1  0  0.112912  0  0.983051  0  0  0.12792  0  1.04631  0  0  0.129469  0  1.046942  0  0  0.090534  0.126708  0  1.046035  0
C  C22  1  0.61660829  0.25001376  0.31316543  1  0  0.111532  0  3.620492  0  0  0.143768  0  3.847191  0  0  0.141984  0  3.868496  0  0  -0.022383  0.145001  0  3.832545  0
C  C23  1  0.61661942  0.24999113  0.18685309  1  0  0.111579  0  3.620646  0  0  0.143762  0  3.84729  0  0  0.141977  0  3.868597  0  0  -0.022332  0.144992  0  3.832639  0
C  C24  1  0.38340757  0.75000320  0.68684572  1  0  0.11141  0  3.620361  0  0  0.143618  0  3.847043  0  0  0.141838  0  3.868329  0  0  -0.022303  0.144848  0  3.832398  0
C  C25  1  0.38340051  0.75000057  0.81315806  1  0  0.111584  0  3.620386  0  0  0.143801  0  3.847038  0  0  0.142024  0  3.868324  0  0  -0.022284  0.14503  0  3.832388  0
C  C26  1  0.52308120  0.39968806  0.36416888  1  0  -0.184362  0  3.587728  0  0  -0.229865  0  3.837704  0  0  -0.228934  0  3.84926  0  0  -0.145598  -0.230374  0  3.829758  0
C  C27  1  0.52314205  0.39966708  0.13582759  1  0  -0.184682  0  3.587416  0  0  -0.230071  0  3.837469  0  0  -0.229142  0  3.849024  0  0  -0.145607  -0.230571  0  3.829513  0
C  C28  1  0.52316720  0.10030440  0.36417784  1  0  -0.184835  0  3.587537  0  0  -0.230186  0  3.837591  0  0  -0.229262  0  3.849144  0  0  -0.145674  -0.230697  0  3.829659  0
C  C29  1  0.52319745  0.10030064  0.13582826  1  0  -0.184632  0  3.5878  0  0  -0.230013  0  3.837755  0  0  -0.229085  0  3.849307  0  0  -0.145628  -0.230515  0  3.829805  0
C  C30  1  0.47685714  0.60030134  0.63582568  1  0  -0.184625  0  3.587729  0  0  -0.230022  0  3.8378  0  0  -0.229092  0  3.84935  0  0  -0.145697  -0.230534  0  3.829863  0
C  C31  1  0.47685137  0.60031199  0.86418521  1  0  -0.184802  0  3.587496  0  0  -0.230103  0  3.837438  0  0  -0.229173  0  3.848986  0  0  -0.145648  -0.230602  0  3.829481  0
C  C32  1  0.47684049  0.89968615  0.63581174  1  0  -0.184542  0  3.587571  0  0  -0.229902  0  3.837554  0  0  -0.228974  0  3.849105  0  0  -0.145632  -0.230402  0  3.8296  0
C  C33  1  0.47685104  0.89971173  0.86417210  1  0  -0.184677  0  3.587783  0  0  -0.22989  0  3.837479  0  0  -0.228962  0  3.849034  0  0  -0.145607  -0.230391  0  3.829523  0
C  C34  1  0.88134717  0.25001351  0.25001106  1  0  -0.268885  0  3.566871  0  0  -0.321731  0  3.798093  0  0  -0.325469  0  3.813154  0  0  -0.180921  -0.318966  0  3.787821  0
C  C35  1  0.11865440  0.75000575  0.75000423  1  0  -0.268864  0  3.566382  0  0  -0.321758  0  3.797566  0  0  -0.325486  0  3.812629  0  0  -0.18099  -0.318965  0  3.787317  0
S  S36  1  0.43029775  0.52889556  0.24998590  1  0  0.05893  0  2.573514  0  0  0.094482  0  2.966416  0  0  0.085871  0  2.963859  0  0  0.025076  0.100285  0  2.968155  0
S  S37  1  0.43033700  0.97110072  0.25000560  1  0  0.058887  0  2.573559  0  0  0.094389  0  2.96636  0  0  0.085784  0  2.963791  0  0  0.025024  0.100187  0  2.968121  0
S  S38  1  0.56967526  0.47110188  0.75000120  1  0  0.05898  0  2.573538  0  0  0.094473  0  2.966396  0  0  0.085867  0  2.963823  0  0  0.025053  0.10028  0  2.96814  0
S  S39  1  0.56968089  0.02890132  0.74998149  1  0  0.058877  0  2.573351  0  0  0.09439  0  2.966105  0  0  0.085779  0  2.963544  0  0  0.025026  0.100195  0  2.967845  0
Cl  Cl40  1  0.01736378  0.75000590  0.06415851  1  0  -0.472537  0  0.958379  0  0  -0.406782  0  1.226426  0  0  -0.423837  0  1.211144  0  0  -0.279545  -0.395046  0  1.236881  0
Cl  Cl41  1  0.01737123  0.74999335  0.43583714  1  0  -0.472508  0  0.958233  0  0  -0.406693  0  1.226204  0  0  -0.423753  0  1.210929  0  0  -0.279523  -0.394956  0  1.23666  0
Cl  Cl42  1  0.98264799  0.24999154  0.93583522  1  0  -0.472548  0  0.958268  0  0  -0.406756  0  1.226273  0  0  -0.423811  0  1.210988  0  0  -0.279553  -0.395017  0  1.236729  0
Cl  Cl43  1  0.98262218  0.25001098  0.56415990  1  0  -0.472569  0  0.95832  0  0  -0.406741  0  1.226275  0  0  -0.4238  0  1.210996  0  0  -0.279549  -0.394994  0  1.236717  0
