# generated using pymatgen
data_CuH6C7S3IO4
_symmetry_space_group_name_H-M   'P 1'
_cell_length_a   4.03166194
_cell_length_b   9.12315085
_cell_length_c   31.76924053
_cell_angle_alpha   89.99984040
_cell_angle_beta   89.99916708
_cell_angle_gamma   89.99957552
_symmetry_Int_Tables_number   1
_chemical_formula_structural   CuH6C7S3IO4
_chemical_formula_sum   'Cu4 H24 C28 S12 I4 O16'
_cell_volume   1168.51905025
_cell_formula_units_Z   4
loop_
 _symmetry_equiv_pos_site_id
 _symmetry_equiv_pos_as_xyz
  1  'x, y, z'
loop_
 _atom_site_type_symbol
 _atom_site_label
 _atom_site_symmetry_multiplicity
 _atom_site_fract_x
 _atom_site_fract_y
 _atom_site_fract_z
 _atom_site_occupancy
 _atom_site_hle17_bader_spin_density
 _atom_site_hle17_ddec_charge
 _atom_site_hle17_ddec_spin_density
 _atom_site_hle17_ddec_sum_bond_order
 _atom_site_hle17_magmom
 _atom_site_hse06_10hf_bader_spin_density
 _atom_site_hse06_10hf_ddec_charge
 _atom_site_hse06_10hf_ddec_spin_density
 _atom_site_hse06_10hf_ddec_sum_bond_order
 _atom_site_hse06_10hf_magmom
 _atom_site_hse06_bader_spin_density
 _atom_site_hse06_ddec_charge
 _atom_site_hse06_ddec_spin_density
 _atom_site_hse06_ddec_sum_bond_order
 _atom_site_hse06_magmom
 _atom_site_pbe_bader_spin_density
 _atom_site_pbe_cm5_charge
 _atom_site_pbe_ddec_charge
 _atom_site_pbe_ddec_spin_density
 _atom_site_pbe_ddec_sum_bond_order
 _atom_site_pbe_magmom
Cu  Cu0  1  0.42549293  0.65699363  0.48045305  1  0  0.207694  0  2.333637  0  0  0.160114  0  2.806851  0  0  0.169245  0  2.755409  0  0  0.192978  0.155364  0  2.841688  0
Cu  Cu1  1  0.92551395  0.84301051  0.51955132  1  0  0.207706  0  2.333555  0  0  0.160151  0  2.806727  0  0  0.169189  0  2.755287  0  0  0.192969  0.155397  0  2.841561  0
Cu  Cu2  1  0.57448044  0.15698739  0.01954943  1  0  0.207655  0  2.333648  0  0  0.160103  0  2.806895  0  0  0.169122  0  2.755425  0  0  0.192923  0.155313  0  2.841701  0
Cu  Cu3  1  0.07448595  0.34300497  0.98045067  1  0  0.207677  0  2.333618  0  0  0.160138  0  2.806848  0  0  0.169179  0  2.755375  0  0  0.192957  0.155349  0  2.841671  0
H  H4  1  0.04969433  0.44931058  0.25120848  1  0  0.106939  0  0.9565  0  0  0.119729  0  1.026315  0  0  0.121007  0  1.024723  0  0  0.10454  0.118767  0  1.027494  0
H  H5  1  0.54965233  0.05068735  0.74879356  1  0  0.106889  0  0.956578  0  0  0.119678  0  1.026376  0  0  0.120955  0  1.024784  0  0  0.104589  0.118717  0  1.027556  0
H  H6  1  0.95038133  0.94931385  0.24879565  1  0  0.106986  0  0.956474  0  0  0.119778  0  1.026246  0  0  0.121056  0  1.024655  0  0  0.10464  0.118816  0  1.027427  0
H  H7  1  0.45035194  0.55068911  0.75120364  1  0  0.106955  0  0.956506  0  0  0.119732  0  1.026333  0  0  0.121011  0  1.024738  0  0  0.104603  0.11877  0  1.027512  0
H  H8  1  0.05204320  0.63180226  0.27230617  1  0  0.102799  0  0.937276  0  0  0.122809  0  0.997521  0  0  0.123401  0  0.997112  0  0  0.106892  0.122256  0  0.997962  0
H  H9  1  0.55197645  0.86820653  0.72769231  1  0  0.102916  0  0.937207  0  0  0.122809  0  0.99759  0  0  0.1234  0  0.997182  0  0  0.106848  0.122255  0  0.998029  0
H  H10  1  0.94805705  0.13179705  0.22769255  1  0  0.102893  0  0.937229  0  0  0.122785  0  0.997598  0  0  0.123377  0  0.997187  0  0  0.106801  0.122231  0  0.998038  0
H  H11  1  0.44801564  0.36820272  0.77230589  1  0  0.102839  0  0.937377  0  0  0.12279  0  0.997701  0  0  0.123379  0  0.997294  0  0  0.106846  0.122238  0  0.998141  0
H  H12  1  0.67731561  0.55711869  0.25090408  1  0  0.108278  0  0.945774  0  0  0.122794  0  1.013749  0  0  0.123545  0  1.01304  0  0  0.106198  0.122167  0  1.014366  0
H  H13  1  0.17725580  0.94288855  0.74909510  1  0  0.10829  0  0.945836  0  0  0.122749  0  1.013802  0  0  0.123498  0  1.013092  0  0  0.106253  0.122126  0  1.014412  0
H  H14  1  0.32278823  0.05711117  0.24909061  1  0  0.108612  0  0.94566  0  0  0.123001  0  1.013689  0  0  0.123753  0  1.012979  0  0  0.106359  0.122377  0  1.014299  0
H  H15  1  0.82274758  0.44288248  0.75090493  1  0  0.108293  0  0.945753  0  0  0.12276  0  1.013729  0  0  0.12351  0  1.013018  0  0  0.10625  0.122137  0  1.014343  0
H  H16  1  0.37457714  0.81429111  0.30251362  1  0  0.102451  0  0.944864  0  0  0.118343  0  1.012357  0  0  0.118786  0  1.011479  0  0  0.107042  0.117975  0  1.013037  0
H  H17  1  0.87457101  0.68570445  0.69748770  1  0  0.102441  0  0.944776  0  0  0.11833  0  1.012264  0  0  0.118773  0  1.011385  0  0  0.107011  0.117957  0  1.012951  0
H  H18  1  0.62543109  0.31428736  0.19749062  1  0  0.102387  0  0.944798  0  0  0.118281  0  1.012276  0  0  0.118727  0  1.011392  0  0  0.106953  0.117908  0  1.012962  0
H  H19  1  0.12544365  0.18570700  0.80251191  1  0  0.102452  0  0.944864  0  0  0.118345  0  1.012357  0  0  0.11879  0  1.011478  0  0  0.107035  0.117974  0  1.013037  0
H  H20  1  0.24644941  0.71987089  0.35005317  1  0  0.093193  0  0.962448  0  0  0.10682  0  1.035711  0  0  0.107942  0  1.034556  0  0  0.090648  0.105869  0  1.036683  0
H  H21  1  0.74644462  0.78013829  0.64994998  1  0  0.093198  0  0.962383  0  0  0.106824  0  1.035652  0  0  0.107943  0  1.034501  0  0  0.09067  0.105867  0  1.036627  0
H  H22  1  0.75355528  0.21985398  0.14995304  1  0  0.093178  0  0.962403  0  0  0.106766  0  1.035714  0  0  0.107886  0  1.03456  0  0  0.090686  0.105811  0  1.036686  0
H  H23  1  0.25356119  0.28013116  0.85005081  1  0  0.093193  0  0.962405  0  0  0.106836  0  1.035655  0  0  0.107958  0  1.0345  0  0  0.090639  0.105865  0  1.036647  0
H  H24  1  0.67774583  0.75102167  0.33956681  1  0  0.090939  0  0.959045  0  0  0.105925  0  1.029901  0  0  0.106443  0  1.029492  0  0  0.094158  0.105477  0  1.030229  0
H  H25  1  0.17774083  0.74897570  0.66043489  1  0  0.090988  0  0.959181  0  0  0.105962  0  1.030028  0  0  0.106481  0  1.029617  0  0  0.094227  0.105512  0  1.030352  0
H  H26  1  0.32225590  0.25101171  0.16043843  1  0  0.090956  0  0.959159  0  0  0.105955  0  1.029945  0  0  0.106472  0  1.029542  0  0  0.094218  0.105506  0  1.030269  0
H  H27  1  0.82226544  0.24897427  0.83956466  1  0  0.090956  0  0.959133  0  0  0.105928  0  1.029967  0  0  0.10645  0  1.029548  0  0  0.094189  0.105474  0  1.030306  0
C  C28  1  0.44515711  0.34439896  0.43573727  1  0  -0.033214  0  3.72703  0  0  -0.015895  0  4.024137  0  0  -0.003876  0  4.041702  0  0  0.00212  -0.023164  0  4.01146  0
C  C29  1  0.94514377  0.15561069  0.56426401  1  0  -0.03306  0  3.726615  0  0  -0.015797  0  4.023824  0  0  -0.003782  0  4.041392  0  0  0.00212  -0.023067  0  4.011144  0
C  C30  1  0.55482587  0.84438350  0.06426254  1  0  -0.033141  0  3.726491  0  0  -0.015915  0  4.023752  0  0  -0.003895  0  4.041316  0  0  0.001993  -0.023185  0  4.01108  0
C  C31  1  0.05484158  0.65560555  0.93573688  1  0  -0.033055  0  3.726711  0  0  -0.015739  0  4.023833  0  0  -0.003717  0  4.041395  0  0  0.002184  -0.023009  0  4.011159  0
C  C32  1  0.57986546  0.31420667  0.35633235  1  0  -0.127497  0  3.715823  0  0  -0.127896  0  3.998694  0  0  -0.130919  0  4.013916  0  0  -0.013653  -0.125903  0  3.988565  0
C  C33  1  0.07987813  0.18581855  0.64366742  1  0  -0.12776  0  3.715876  0  0  -0.127942  0  3.998538  0  0  -0.130972  0  4.013778  0  0  -0.01376  -0.125945  0  3.9884  0
C  C34  1  0.42009565  0.81417560  0.14366528  1  0  -0.127767  0  3.716039  0  0  -0.128127  0  3.99891  0  0  -0.131184  0  4.014182  0  0  -0.013803  -0.12609  0  3.98872  0
C  C35  1  0.92008692  0.68580774  0.85633344  1  0  -0.127852  0  3.715778  0  0  -0.128162  0  3.998702  0  0  -0.131171  0  4.013901  0  0  -0.013882  -0.126202  0  3.988609  0
C  C36  1  0.53209879  0.17494450  0.37104669  1  0  -0.117549  0  3.706373  0  0  -0.121745  0  3.992007  0  0  -0.122875  0  4.005722  0  0  -0.009296  -0.121095  0  3.98295  0
C  C37  1  0.03213828  0.32508638  0.62895003  1  0  -0.117081  0  3.705819  0  0  -0.121518  0  3.991498  0  0  -0.122645  0  4.005231  0  0  -0.009131  -0.120859  0  3.982428  0
C  C38  1  0.46784456  0.67490133  0.12894885  1  0  -0.116959  0  3.705695  0  0  -0.12135  0  3.991372  0  0  -0.122471  0  4.005098  0  0  -0.009074  -0.120706  0  3.98229  0
C  C39  1  0.96785941  0.82507416  0.87104883  1  0  -0.117135  0  3.705807  0  0  -0.12146  0  3.991591  0  0  -0.1226  0  4.005302  0  0  -0.009076  -0.120788  0  3.982526  0
C  C40  1  0.64522278  0.35652000  0.31175236  1  0  0.602034  0  3.808296  0  0  0.553087  0  4.102928  0  0  0.586145  0  4.093699  0  0  0.235193  0.53047  0  4.10894  0
C  C41  1  0.14519893  0.14351156  0.68825327  1  0  0.601798  0  3.809734  0  0  0.55283  0  4.10423  0  0  0.585905  0  4.095009  0  0  0.235109  0.53022  0  4.110234  0
C  C42  1  0.35477738  0.85649422  0.18824618  1  0  0.601727  0  3.809767  0  0  0.552856  0  4.104185  0  0  0.58594  0  4.094961  0  0  0.235168  0.53023  0  4.110189  0
C  C43  1  0.85476427  0.64349265  0.81175329  1  0  0.601959  0  3.809062  0  0  0.552936  0  4.103737  0  0  0.586015  0  4.094505  0  0  0.235183  0.530333  0  4.109743  0
C  C44  1  0.90582608  0.53213560  0.26805789  1  0  -0.072493  0  3.549738  0  0  -0.174983  0  3.816596  0  0  -0.166509  0  3.817574  0  0  -0.145597  -0.180593  0  3.816036  0
C  C45  1  0.40577274  0.96787410  0.73194338  1  0  -0.07242  0  3.549655  0  0  -0.174738  0  3.81647  0  0  -0.166245  0  3.81746  0  0  -0.1456  -0.180348  0  3.815906  0
C  C46  1  0.09425829  0.03212797  0.23194154  1  0  -0.072914  0  3.54966  0  0  -0.175191  0  3.816506  0  0  -0.166704  0  3.817487  0  0  -0.145741  -0.180801  0  3.815949  0
C  C47  1  0.59422282  0.46786980  0.76805758  1  0  -0.072527  0  3.549702  0  0  -0.174926  0  3.816569  0  0  -0.16643  0  3.817555  0  0  -0.14564  -0.180536  0  3.816008  0
C  C48  1  0.58767628  0.03982124  0.34577571  1  0  0.602952  0  3.816465  0  0  0.553371  0  4.112518  0  0  0.586929  0  4.101881  0  0  0.234471  0.530405  0  4.119523  0
C  C49  1  0.08770106  0.46020395  0.65422185  1  0  0.602537  0  3.816821  0  0  0.553167  0  4.112562  0  0  0.586711  0  4.101942  0  0  0.234325  0.530197  0  4.11957  0
C  C50  1  0.41228644  0.53978681  0.15422278  1  0  0.602318  0  3.817027  0  0  0.55299  0  4.112728  0  0  0.586552  0  4.102077  0  0  0.234191  0.530033  0  4.119729  0
C  C51  1  0.91231942  0.96019218  0.84577659  1  0  0.60303  0  3.816319  0  0  0.553437  0  4.112485  0  0  0.587016  0  4.101814  0  0  0.234424  0.530471  0  4.119488  0
C  C52  1  0.42637790  0.79478224  0.33592703  1  0  -0.069656  0  3.576912  0  0  -0.173166  0  3.843858  0  0  -0.164627  0  3.845915  0  0  -0.148843  -0.178727  0  3.842512  0
C  C53  1  0.92638260  0.70522409  0.66407388  1  0  -0.069615  0  3.576926  0  0  -0.173185  0  3.843889  0  0  -0.164634  0  3.845928  0  0  -0.148939  -0.178736  0  3.84254  0
C  C54  1  0.57362318  0.29476695  0.16407596  1  0  -0.069434  0  3.576619  0  0  -0.172977  0  3.843564  0  0  -0.164445  0  3.845628  0  0  -0.148797  -0.178521  0  3.842217  0
C  C55  1  0.07362680  0.20522322  0.83592540  1  0  -0.069608  0  3.576828  0  0  -0.173131  0  3.84378  0  0  -0.164586  0  3.845826  0  0  -0.148856  -0.178668  0  3.842441  0
S  S56  1  0.38216754  0.41205968  0.48362481  1  0  -0.172175  0  2.540422  0  0  -0.178577  0  2.954069  0  0  -0.186779  0  2.946802  0  0  -0.165607  -0.173656  0  2.958497  0
S  S57  1  0.88216047  0.08794033  0.51637690  1  0  -0.172171  0  2.540229  0  0  -0.178593  0  2.953981  0  0  -0.186765  0  2.946676  0  0  -0.165589  -0.173666  0  2.958406  0
S  S58  1  0.61779211  0.91205541  0.01637368  1  0  -0.172211  0  2.540335  0  0  -0.178576  0  2.954018  0  0  -0.186747  0  2.946712  0  0  -0.165559  -0.173638  0  2.958427  0
S  S59  1  0.11781844  0.58793890  0.98362436  1  0  -0.172176  0  2.540373  0  0  -0.17861  0  2.954076  0  0  -0.186788  0  2.946777  0  0  -0.165627  -0.173676  0  2.958496  0
S  S60  1  0.54014181  0.45398065  0.39293913  1  0  0.197452  0  2.709174  0  0  0.184519  0  3.067856  0  0  0.188654  0  3.069836  0  0  0.113151  0.180521  0  3.066912  0
S  S61  1  0.04015563  0.04603376  0.60706419  1  0  0.197483  0  2.709155  0  0  0.184513  0  3.067776  0  0  0.188656  0  3.069753  0  0  0.11318  0.180511  0  3.066826  0
S  S62  1  0.45982465  0.95395526  0.10706311  1  0  0.197563  0  2.709349  0  0  0.184665  0  3.067991  0  0  0.188818  0  3.069978  0  0  0.113268  0.180649  0  3.067029  0
S  S63  1  0.95982142  0.54602465  0.89293837  1  0  0.197408  0  2.708992  0  0  0.184493  0  3.067583  0  0  0.188625  0  3.069553  0  0  0.113162  0.180503  0  3.06665  0
S  S64  1  0.42870192  0.15841725  0.42387337  1  0  0.231528  0  2.616438  0  0  0.221268  0  2.965122  0  0  0.223601  0  2.96989  0  0  0.126477  0.218531  0  2.962438  0
S  S65  1  0.92871426  0.34159136  0.57612385  1  0  0.231428  0  2.616457  0  0  0.221177  0  2.965301  0  0  0.223511  0  2.970072  0  0  0.126465  0.218435  0  2.962616  0
S  S66  1  0.57125159  0.65839613  0.07612187  1  0  0.231459  0  2.616213  0  0  0.221211  0  2.965058  0  0  0.223543  0  2.969828  0  0  0.126526  0.218468  0  2.962382  0
S  S67  1  0.07128567  0.84158847  0.92387500  1  0  0.231396  0  2.616427  0  0  0.221146  0  2.965198  0  0  0.223478  0  2.969973  0  0  0.126445  0.218403  0  2.962512  0
I  I68  1  0.92242589  0.77370370  0.43889598  1  0  -0.307263  0  1.940011  0  0  -0.26936  0  2.423094  0  0  -0.289495  0  2.382671  0  0  -0.172172  -0.25458  0  2.452097  0
I  I69  1  0.42244209  0.72628072  0.56110620  1  0  -0.307272  0  1.940037  0  0  -0.269382  0  2.423146  0  0  -0.289488  0  2.382702  0  0  -0.172174  -0.254602  0  2.452147  0
I  I70  1  0.07754078  0.27370983  0.06110483  1  0  -0.307246  0  1.940065  0  0  -0.269381  0  2.423192  0  0  -0.289452  0  2.382711  0  0  -0.172164  -0.254573  0  2.452155  0
I  I71  1  0.57754220  0.22628142  0.93889558  1  0  -0.307252  0  1.940057  0  0  -0.269389  0  2.423183  0  0  -0.289468  0  2.382703  0  0  -0.172151  -0.254577  0  2.452154  0
O  O72  1  0.53659481  0.29316175  0.28085594  1  0  -0.48745  0  1.951422  0  0  -0.447056  0  2.166287  0  0  -0.466106  0  2.160325  0  0  -0.254974  -0.434034  0  2.170202  0
O  O73  1  0.03656166  0.20685267  0.71914077  1  0  -0.48708  0  1.952531  0  0  -0.446764  0  2.167439  0  0  -0.465808  0  2.161472  0  0  -0.254826  -0.433747  0  2.171353  0
O  O74  1  0.46344102  0.79313966  0.21914265  1  0  -0.487177  0  1.95176  0  0  -0.446863  0  2.166619  0  0  -0.465911  0  2.160658  0  0  -0.254894  -0.433838  0  2.170529  0
O  O75  1  0.96342292  0.70685119  0.78085850  1  0  -0.487318  0  1.951594  0  0  -0.446935  0  2.1665  0  0  -0.465987  0  2.160538  0  0  -0.254934  -0.433917  0  2.170409  0
O  O76  1  0.83099644  0.47980602  0.31035770  1  0  -0.297961  0  2.293891  0  0  -0.220878  0  2.537552  0  0  -0.242973  0  2.536912  0  0  -0.175325  -0.205655  0  2.537592  0
O  O77  1  0.33096436  0.02022048  0.68964474  1  0  -0.298253  0  2.29417  0  0  -0.221157  0  2.537782  0  0  -0.243294  0  2.537149  0  0  -0.175476  -0.205933  0  2.537821  0
O  O78  1  0.16903909  0.97977542  0.18964231  1  0  -0.298  0  2.294736  0  0  -0.22091  0  2.538261  0  0  -0.243045  0  2.537636  0  0  -0.17542  -0.205687  0  2.538303  0
O  O79  1  0.66901556  0.52020993  0.81035657  1  0  -0.298018  0  2.29437  0  0  -0.220847  0  2.537953  0  0  -0.243  0  2.53735  0  0  -0.175354  -0.205625  0  2.537991  0
O  O80  1  0.78918787  0.03035608  0.31725516  1  0  -0.485398  0  1.966761  0  0  -0.443461  0  2.184993  0  0  -0.463404  0  2.179367  0  0  -0.256526  -0.429731  0  2.188616  0
O  O81  1  0.28920689  0.46966509  0.68273823  1  0  -0.485206  0  1.967189  0  0  -0.443317  0  2.185218  0  0  -0.46326  0  2.179607  0  0  -0.256474  -0.429586  0  2.188835  0
O  O82  1  0.21079483  0.53032978  0.18274112  1  0  -0.485107  0  1.967175  0  0  -0.443245  0  2.185198  0  0  -0.463192  0  2.179582  0  0  -0.256416  -0.429515  0  2.188808  0
O  O83  1  0.71082585  0.96965542  0.81725453  1  0  -0.485449  0  1.966634  0  0  -0.443493  0  2.184861  0  0  -0.463448  0  2.179227  0  0  -0.256538  -0.429764  0  2.188477  0
O  O84  1  0.39328008  0.92984299  0.35932763  1  0  -0.275652  0  2.35738  0  0  -0.195798  0  2.597288  0  0  -0.218148  0  2.598952  0  0  -0.171888  -0.180703  0  2.59618  0
O  O85  1  0.89327448  0.57017004  0.64067145  1  0  -0.275718  0  2.35757  0  0  -0.195771  0  2.59727  0  0  -0.21812  0  2.598941  0  0  -0.171802  -0.180678  0  2.59616  0
O  O86  1  0.60672395  0.42982122  0.14067274  1  0  -0.27576  0  2.357396  0  0  -0.195823  0  2.597075  0  0  -0.218174  0  2.598736  0  0  -0.171849  -0.180751  0  2.595983  0
O  O87  1  0.10672454  0.07016006  0.85932668  1  0  -0.275777  0  2.357467  0  0  -0.195874  0  2.597334  0  0  -0.218236  0  2.598995  0  0  -0.171852  -0.180785  0  2.596222  0
