# generated using pymatgen
data_ZnH20C22(NO)4
_symmetry_space_group_name_H-M   'P 1'
_cell_length_a   10.29141470
_cell_length_b   16.29676350
_cell_length_c   20.06769254
_cell_angle_alpha   89.99950522
_cell_angle_beta   89.99948138
_cell_angle_gamma   92.41903691
_symmetry_Int_Tables_number   1
_chemical_formula_structural   ZnH20C22(NO)4
_chemical_formula_sum   'Zn4 H80 C88 N16 O16'
_cell_volume   3362.68890607
_cell_formula_units_Z   4
loop_
 _symmetry_equiv_pos_site_id
 _symmetry_equiv_pos_as_xyz
  1  'x, y, z'
loop_
 _atom_site_type_symbol
 _atom_site_label
 _atom_site_symmetry_multiplicity
 _atom_site_fract_x
 _atom_site_fract_y
 _atom_site_fract_z
 _atom_site_occupancy
 _atom_site_pbe_bader_charge
 _atom_site_pbe_bader_spin_density
 _atom_site_pbe_cm5_charge
 _atom_site_pbe_ddec_charge
 _atom_site_pbe_ddec_spin_density
 _atom_site_pbe_ddec_sum_bond_order
 _atom_site_pbe_magmom
Zn  Zn0  1  0.35836184  0.95898004  0.77246083  1  1.243048  0  0.687714  0.756553  0  2.417484  0
Zn  Zn1  1  0.14165170  0.54101779  0.27245812  1  1.243155  0  0.68778  0.756659  0  2.417453  0
Zn  Zn2  1  0.64163961  0.04101775  0.22753922  1  1.24311  0  0.687725  0.756548  0  2.417573  0
Zn  Zn3  1  0.85835587  0.45898493  0.72754293  1  1.243194  0  0.687779  0.756649  0  2.417462  0
H  H4  1  0.26399450  0.89115284  0.90188125  1  0.129404  0  0.117188  0.090438  0  1.012296  0
H  H5  1  0.23601386  0.60884538  0.40187463  1  0.129395  0  0.117172  0.090378  0  1.01221  0
H  H6  1  0.73600465  0.10883881  0.09811781  1  0.129274  0  0.117184  0.090466  0  1.012193  0
H  H7  1  0.76398114  0.39115853  0.59812343  1  0.129327  0  0.117198  0.090401  0  1.01227  0
H  H8  1  0.35829359  0.84436376  0.00616336  1  0.073438  0  0.108453  0.120567  0  1.014303  0
H  H9  1  0.14171713  0.65563826  0.50615773  1  0.073519  0  0.108441  0.120526  0  1.014354  0
H  H10  1  0.64170361  0.15562787  0.99383719  1  0.073626  0  0.108427  0.120517  0  1.014259  0
H  H11  1  0.85828166  0.34436382  0.49384133  1  0.07346  0  0.108448  0.120552  0  1.014361  0
H  H12  1  0.72365231  0.96463484  0.94310788  1  0.093815  0  0.109882  0.119227  0  1.020678  0
H  H13  1  0.77635287  0.53537109  0.44310806  1  0.093939  0  0.109894  0.119241  0  1.020616  0
H  H14  1  0.27634065  0.03536722  0.05689317  1  0.093704  0  0.109887  0.119162  0  1.020742  0
H  H15  1  0.22364376  0.46462730  0.55689149  1  0.093911  0  0.109884  0.119226  0  1.020646  0
H  H16  1  0.60895676  0.00811782  0.84183724  1  0.130294  0  0.118937  0.099743  0  1.002006  0
H  H17  1  0.89105023  0.49188362  0.34183721  1  0.131694  0  0.118941  0.099788  0  1.001926  0
H  H18  1  0.39103605  0.99188178  0.15816630  1  0.13054  0  0.118909  0.099707  0  1.001972  0
H  H19  1  0.10894668  0.50811968  0.65816234  1  0.13156  0  0.118969  0.099787  0  1.001943  0
H  H20  1  0.77106755  0.95745295  0.04975446  1  0.079611  0  0.112059  0.096553  0  0.987959  0
H  H21  1  0.72893864  0.54255123  0.54975071  1  0.079743  0  0.11206  0.09663  0  0.98789  0
H  H22  1  0.22892987  0.04254237  0.95024509  1  0.079531  0  0.112053  0.096538  0  0.9879  0
H  H23  1  0.27106018  0.45745146  0.45025084  1  0.079686  0  0.112016  0.096518  0  0.987938  0
H  H24  1  0.81244297  0.86352671  0.01074672  1  0.045023  0  0.107393  0.084711  0  0.959225  0
H  H25  1  0.68756793  0.63647977  0.51074599  1  0.045055  0  0.107449  0.084709  0  0.959329  0
H  H26  1  0.18754865  0.13646921  0.98925283  1  0.040253  0  0.10735  0.084662  0  0.959306  0
H  H27  1  0.31243773  0.36352356  0.48925605  1  0.044958  0  0.107374  0.084623  0  0.959248  0
H  H28  1  0.46285579  0.78721179  0.06799554  1  0.063683  0  0.119404  0.102339  0  0.977333  0
H  H29  1  0.03715750  0.71278648  0.56799747  1  0.063601  0  0.119395  0.102371  0  0.977196  0
H  H30  1  0.53714378  0.21278722  0.93200501  1  0.063719  0  0.119408  0.102356  0  0.977261  0
H  H31  1  0.96284416  0.28721499  0.43200408  1  0.063557  0  0.119407  0.102333  0  0.977257  0
H  H32  1  0.52920780  0.84734461  0.13392552  1  0.091825  0  0.109945  0.09709  0  1.006517  0
H  H33  1  0.97079448  0.65265126  0.63392735  1  0.091758  0  0.109919  0.097027  0  1.00649  0
H  H34  1  0.47079063  0.15265133  0.86607353  1  0.091808  0  0.109899  0.097064  0  1.006461  0
H  H35  1  0.02920524  0.34735021  0.36607569  1  0.091796  0  0.109926  0.097049  0  1.006482  0
H  H36  1  0.59252384  0.70587095  0.14456984  1  0.074903  0  0.113327  0.095161  0  0.977554  0
H  H37  1  0.90748329  0.79412788  0.64456998  1  0.074527  0  0.113317  0.095178  0  0.977514  0
H  H38  1  0.40747675  0.29412868  0.85543021  1  0.074645  0  0.113323  0.095179  0  0.977536  0
H  H39  1  0.09251445  0.20587297  0.35543206  1  0.074429  0  0.113329  0.095215  0  0.977559  0
H  H40  1  0.64794287  0.70258623  0.06026457  1  0.048297  0  0.106294  0.080492  0  0.957962  0
H  H41  1  0.85206389  0.79741416  0.56026644  1  0.048312  0  0.106273  0.080496  0  0.957983  0
H  H42  1  0.35205462  0.29741033  0.93973549  1  0.04839  0  0.106274  0.080507  0  0.958045  0
H  H43  1  0.14793777  0.20258732  0.43973710  1  0.048276  0  0.106293  0.080498  0  0.958007  0
H  H44  1  0.90291948  0.87358007  0.12133866  1  0.072472  0  0.119924  0.111679  0  0.97498  0
H  H45  1  0.59708526  0.62642086  0.62133593  1  0.072575  0  0.11995  0.111702  0  0.974906  0
H  H46  1  0.09707510  0.12641647  0.87865990  1  0.072407  0  0.119911  0.111739  0  0.974835  0
H  H47  1  0.40291352  0.37358123  0.37866362  1  0.072564  0  0.119963  0.111716  0  0.974955  0
H  H48  1  0.75489552  0.89570133  0.15884947  1  0.101226  0  0.106685  0.092237  0  1.027576  0
H  H49  1  0.74510432  0.60429364  0.65884919  1  0.101185  0  0.106698  0.092192  0  1.027659  0
H  H50  1  0.24510593  0.10429647  0.84115008  1  0.101196  0  0.106683  0.092212  0  1.027634  0
H  H51  1  0.25488852  0.39570658  0.34115285  1  0.101171  0  0.106719  0.092232  0  1.027625  0
H  H52  1  0.73359998  0.60769955  0.13897280  1  0.080373  0  0.108811  0.118471  0  1.01519  0
H  H53  1  0.76640703  0.89229566  0.63897591  1  0.080349  0  0.108837  0.118466  0  1.01509  0
H  H54  1  0.26640535  0.39229825  0.86102825  1  0.080355  0  0.108812  0.118453  0  1.015163  0
H  H55  1  0.23359258  0.10770397  0.36102315  1  0.080363  0  0.1088  0.118449  0  1.015084  0
H  H56  1  0.88655182  0.51858604  0.19566138  1  0.109198  0  0.117658  0.097225  0  0.999149  0
H  H57  1  0.61344735  0.98140851  0.69566408  1  0.109377  0  0.117677  0.09728  0  0.999072  0
H  H58  1  0.11344988  0.48141605  0.80433967  1  0.109197  0  0.117619  0.097211  0  0.99901  0
H  H59  1  0.38655021  0.01858927  0.30433597  1  0.109294  0  0.117687  0.097269  0  0.999011  0
H  H60  1  0.14210912  0.71458154  0.23813369  1  0.142551  0  0.118614  0.096188  0  0.996663  0
H  H61  1  0.35789695  0.78541113  0.73813761  1  0.142466  0  0.118639  0.096232  0  0.996653  0
H  H62  1  0.85789927  0.28541874  0.76185989  1  0.142554  0  0.118673  0.096244  0  0.996602  0
H  H63  1  0.64209881  0.21458910  0.26185896  1  0.142475  0  0.118651  0.096223  0  0.996613  0
H  H64  1  0.00002596  0.81412520  0.18695689  1  0.085884  0  0.112803  0.128328  0  1.005708  0
H  H65  1  0.49998595  0.68586867  0.68696084  1  0.086088  0  0.112888  0.128399  0  1.00583  0
H  H66  1  0.99998237  0.18587385  0.81303818  1  0.086218  0  0.112859  0.12833  0  1.005711  0
H  H67  1  0.50001075  0.31413094  0.31303722  1  0.086124  0  0.112903  0.128428  0  1.005775  0
H  H68  1  0.85276659  0.92729284  0.84158732  1  0.048405  0  0.097128  0.09597  0  1.022619  0
H  H69  1  0.64724538  0.57271548  0.34159582  1  0.048536  0  0.097153  0.095983  0  1.022506  0
H  H70  1  0.14724112  0.07271234  0.15841024  1  0.048385  0  0.097138  0.096022  0  1.022587  0
H  H71  1  0.35275549  0.42728907  0.65841420  1  0.048655  0  0.097168  0.096021  0  1.022589  0
H  H72  1  0.66536955  0.82358713  0.84039914  1  0.07172  0  0.091891  0.09088  0  1.030675  0
H  H73  1  0.83463563  0.67642118  0.34040007  1  0.071089  0  0.091877  0.09084  0  1.030738  0
H  H74  1  0.33463423  0.17641743  0.15960440  1  0.071186  0  0.091866  0.090844  0  1.030707  0
H  H75  1  0.16536704  0.32358092  0.65960447  1  0.07121  0  0.091893  0.090916  0  1.030634  0
H  H76  1  0.70267819  0.67931816  0.80492462  1  0.088858  0  0.103035  0.107743  0  1.002836  0
H  H77  1  0.79733049  0.82068932  0.30492024  1  0.089353  0  0.10306  0.107792  0  1.002804  0
H  H78  1  0.29732066  0.32068515  0.19507842  1  0.089436  0  0.103013  0.107698  0  1.002802  0
H  H79  1  0.20267985  0.17931096  0.69508031  1  0.089439  0  0.103056  0.107757  0  1.002873  0
H  H80  1  0.10359008  0.74498648  0.76574141  1  0.108564  0  0.101322  0.109376  0  1.021989  0
H  H81  1  0.39641498  0.75501386  0.26574599  1  0.108372  0  0.101286  0.109355  0  1.021986  0
H  H82  1  0.89640259  0.25501067  0.23425415  1  0.108519  0  0.101284  0.109357  0  1.022046  0
H  H83  1  0.60359251  0.24498764  0.73425655  1  0.108536  0  0.101275  0.109357  0  1.021925  0
C  C84  1  0.36623600  0.90519515  0.91285532  1  0.397492  0  0.035749  0.097588  0  4.008217  0
C  C85  1  0.13377040  0.59480601  0.41285276  1  0.397508  0  0.035753  0.097672  0  4.008087  0
C  C86  1  0.63376034  0.09479833  0.08714224  1  0.397372  0  0.035766  0.097555  0  4.007873  0
C  C87  1  0.86622558  0.40519791  0.58714330  1  0.397577  0  0.035744  0.097621  0  4.007941  0
C  C88  1  0.42076670  0.87845478  0.97130047  1  0.011727  0  -0.108519  -0.258943  0  4.001961  0
C  C89  1  0.07924154  0.62154573  0.47129748  1  0.011875  0  -0.108505  -0.258948  0  4.001943  0
C  C90  1  0.57922370  0.12153683  0.02869859  1  0.011906  0  -0.10836  -0.258699  0  4.002004  0
C  C91  1  0.92075641  0.37845881  0.52869858  1  0.011783  0  -0.108476  -0.258916  0  4.00199  0
C  C92  1  0.55443675  0.89643941  0.98473363  1  0.444645  0  0.121748  0.226642  0  4.064003  0
C  C93  1  0.94557321  0.60356116  0.48473255  1  0.44441  0  0.121796  0.226754  0  4.063825  0
C  C94  1  0.44555390  0.10355650  0.01526792  1  0.444255  0  0.121599  0.226419  0  4.064685  0
C  C95  1  0.05442651  0.39644031  0.51526850  1  0.44445  0  0.121718  0.226658  0  4.064059  0
C  C96  1  0.62172581  0.94618545  0.93661167  1  -0.020562  0  -0.103274  -0.251999  0  3.988905  0
C  C97  1  0.87828416  0.55381750  0.43661175  1  -0.020461  0  -0.103323  -0.252064  0  3.988657  0
C  C98  1  0.37826516  0.05381599  0.06338838  1  -0.020912  0  -0.103225  -0.251732  0  3.988999  0
C  C99  1  0.12171358  0.44618335  0.56338681  1  -0.020403  0  -0.103287  -0.252  0  3.988607  0
C  C100  1  0.55875490  0.97061972  0.87971381  1  0.430398  0  0.038492  0.097616  0  3.98466  0
C  C101  1  0.94125407  0.52938202  0.37971327  1  0.428876  0  0.038518  0.097596  0  3.984643  0
C  C102  1  0.44124180  0.02937990  0.12028824  1  0.430838  0  0.038557  0.097566  0  3.984504  0
C  C103  1  0.05874184  0.47062067  0.62028678  1  0.429227  0  0.03853  0.097647  0  3.984622  0
C  C104  1  0.75386169  0.89035626  0.05073292  1  0.301577  0  -0.051658  -0.074447  0  3.900274  0
C  C105  1  0.74614542  0.60964731  0.55073111  1  0.301527  0  -0.051649  -0.074393  0  3.900485  0
C  C106  1  0.24613975  0.10964153  0.94926713  1  0.306465  0  -0.05162  -0.074441  0  3.900283  0
C  C107  1  0.25385138  0.39035415  0.44927043  1  0.301662  0  -0.051531  -0.074108  0  3.900142  0
C  C108  1  0.55387768  0.81369600  0.08834785  1  0.306378  0  -0.050892  -0.079162  0  3.89763  0
C  C109  1  0.94612856  0.68630407  0.58834856  1  0.306415  0  -0.050784  -0.078971  0  3.897234  0
C  C110  1  0.44611876  0.18629932  0.91165470  1  0.306536  0  -0.050779  -0.079058  0  3.897528  0
C  C111  1  0.05387123  0.31369863  0.41165448  1  0.306518  0  -0.050794  -0.078902  0  3.897289  0
C  C112  1  0.64000764  0.74245098  0.10452614  1  0.308715  0  -0.04964  -0.078441  0  3.911325  0
C  C113  1  0.85999838  0.75755014  0.60452725  1  0.309017  0  -0.049635  -0.078505  0  3.911195  0
C  C114  1  0.35998319  0.25754801  0.89547242  1  0.309033  0  -0.049755  -0.07876  0  3.911604  0
C  C115  1  0.14000425  0.24245134  0.39547479  1  0.309152  0  -0.049675  -0.078575  0  3.91131  0
C  C116  1  0.79809667  0.86039947  0.11843877  1  0.316791  0  -0.055741  -0.088772  0  3.897243  0
C  C117  1  0.70191094  0.63959966  0.61843845  1  0.316332  0  -0.055773  -0.088799  0  3.897224  0
C  C118  1  0.20190298  0.13960078  0.88155929  1  0.316924  0  -0.055688  -0.088776  0  3.897085  0
C  C119  1  0.29808868  0.36039997  0.38156160  1  0.316423  0  -0.055779  -0.088868  0  3.897312  0
C  C120  1  0.85162898  0.72104026  0.15583107  1  0.415286  0  0.121949  0.22179  0  4.064849  0
C  C121  1  0.64837776  0.77895538  0.65583551  1  0.415318  0  0.121924  0.221715  0  4.064786  0
C  C122  1  0.14837344  0.27895754  0.84416898  1  0.415523  0  0.12198  0.221747  0  4.064955  0
C  C123  1  0.35162002  0.22104608  0.34416504  1  0.415336  0  0.121932  0.221791  0  4.064916  0
C  C124  1  0.82275046  0.63515420  0.15979801  1  0.009462  0  -0.105448  -0.2524  0  3.986571  0
C  C125  1  0.67725430  0.86484200  0.65979873  1  0.010794  0  -0.105488  -0.252342  0  3.9865  0
C  C126  1  0.17725095  0.36484298  0.84020454  1  0.009311  0  -0.105496  -0.252363  0  3.986667  0
C  C127  1  0.32274445  0.13515947  0.34020032  1  0.010804  0  -0.105417  -0.252307  0  3.986414  0
C  C128  1  0.90793482  0.58454285  0.19123209  1  0.483959  0  0.039165  0.101745  0  3.990525  0
C  C129  1  0.59207214  0.91545055  0.69123286  1  0.482463  0  0.039173  0.101701  0  3.990448  0
C  C130  1  0.09207149  0.41545496  0.80876796  1  0.483992  0  0.039196  0.101697  0  3.990486  0
C  C131  1  0.40792557  0.08454969  0.30876520  1  0.482597  0  0.039116  0.101677  0  3.990471  0
C  C132  1  0.05019322  0.69399387  0.21529378  1  0.426901  0  0.036214  0.09723  0  3.995823  0
C  C133  1  0.44981514  0.80599783  0.71530012  1  0.427323  0  0.036213  0.097182  0  3.995918  0
C  C134  1  0.94981607  0.30600518  0.78470079  1  0.427447  0  0.036156  0.09713  0  3.995815  0
C  C135  1  0.55018058  0.19400179  0.28469794  1  0.42749  0  0.036184  0.097229  0  3.995849  0
C  C136  1  0.97071328  0.74925930  0.18541456  1  -0.030911  0  -0.103232  -0.25175  0  3.986898  0
C  C137  1  0.52929375  0.75073355  0.68542026  1  -0.031897  0  -0.103368  -0.251891  0  3.98719  0
C  C138  1  0.02929220  0.25074096  0.81458300  1  -0.031997  0  -0.103257  -0.251696  0  3.98701  0
C  C139  1  0.47070000  0.24926544  0.31457930  1  -0.032032  0  -0.103349  -0.251953  0  3.987321  0
C  C140  1  0.10122230  0.90500366  0.80592785  1  1.57932  0  0.19337  0.566028  0  4.242675  0
C  C141  1  0.39878775  0.59499440  0.30593402  1  1.578919  0  0.193466  0.566251  0  4.242774  0
C  C142  1  0.89877825  0.09499536  0.19406373  1  1.578774  0  0.193196  0.565727  0  4.24301  0
C  C143  1  0.60121784  0.40500770  0.69406952  1  1.578826  0  0.193317  0.56605  0  4.242491  0
C  C144  1  0.98911008  0.84277482  0.80394520  1  -0.014414  0  -0.026312  -0.042044  0  3.993061  0
C  C145  1  0.51090021  0.65722654  0.30395325  1  -0.014337  0  -0.026339  -0.042357  0  3.993482  0
C  C146  1  0.01089162  0.15722727  0.19604738  1  -0.014562  0  -0.02623  -0.041939  0  3.993064  0
C  C147  1  0.48910624  0.34277372  0.69605129  1  -0.014573  0  -0.026315  -0.042239  0  3.993384  0
C  C148  1  0.86547159  0.86427086  0.82538335  1  -0.027837  0  -0.087953  -0.096797  0  3.990081  0
C  C149  1  0.63453858  0.63573518  0.32538898  1  -0.027776  0  -0.087965  -0.096678  0  3.990142  0
C  C150  1  0.13453309  0.13573247  0.17461271  1  -0.027593  0  -0.088014  -0.096904  0  3.990185  0
C  C151  1  0.36546513  0.36426815  0.67461705  1  -0.027966  0  -0.088046  -0.096807  0  3.99032  0
C  C152  1  0.76200445  0.80613359  0.82511271  1  -0.089281  0  -0.10166  -0.098668  0  4.04801  0
C  C153  1  0.73800487  0.69387428  0.32511447  1  -0.088774  0  -0.101772  -0.09882  0  4.047865  0
C  C154  1  0.23799632  0.19386911  0.17488734  1  -0.088794  0  -0.10162  -0.098662  0  4.048031  0
C  C155  1  0.26200370  0.30612906  0.67488907  1  -0.088601  0  -0.101753  -0.098913  0  4.047947  0
C  C156  1  0.78199112  0.72568114  0.80511912  1  0.002748  0  -0.08616  -0.086205  0  3.968106  0
C  C157  1  0.71801360  0.77432510  0.30511841  1  0.001578  0  -0.086012  -0.085988  0  3.96759  0
C  C158  1  0.21800471  0.27432032  0.19488193  1  0.001677  0  -0.086186  -0.086159  0  3.967881  0
C  C159  1  0.28199390  0.22567639  0.69488264  1  0.001643  0  -0.086088  -0.086055  0  3.967631  0
C  C160  1  0.90555678  0.70323371  0.78415287  1  -0.034683  0  -0.025325  -0.042364  0  3.987997  0
C  C161  1  0.59444429  0.79677030  0.28415557  1  -0.034179  0  -0.025509  -0.042631  0  3.987981  0
C  C162  1  0.09443510  0.29676651  0.21584569  1  -0.03417  0  -0.025337  -0.042325  0  3.988139  0
C  C163  1  0.40556612  0.20323121  0.71584547  1  -0.03414  0  -0.025447  -0.042382  0  3.987995  0
C  C164  1  0.00807473  0.76234257  0.78276944  1  -0.086343  0  -0.083922  -0.113716  0  3.947334  0
C  C165  1  0.49192818  0.73765941  0.28277420  1  -0.086027  0  -0.083807  -0.113525  0  3.947192  0
C  C166  1  0.99191999  0.23765643  0.21722612  1  -0.086341  0  -0.083926  -0.11379  0  3.947403  0
C  C167  1  0.50807737  0.26234208  0.71722785  1  -0.086445  0  -0.083828  -0.113646  0  3.947319  0
C  C168  1  0.92838392  0.61695350  0.76225124  1  1.555881  0  0.1945  0.556387  0  4.237429  0
C  C169  1  0.57161859  0.88305199  0.26224947  1  1.555853  0  0.194548  0.556413  0  4.237568  0
C  C170  1  0.07160601  0.38304671  0.23775030  1  1.556276  0  0.194604  0.556397  0  4.237574  0
C  C171  1  0.42839574  0.11695015  0.73775158  1  1.55585  0  0.194661  0.556309  0  4.237355  0
N  N172  1  0.43263651  0.95008907  0.86638778  1  -1.270857  0  -0.356693  -0.280767  0  3.602966  0
N  N173  1  0.06737272  0.54991322  0.36638585  1  -1.270973  0  -0.35678  -0.28088  0  3.603083  0
N  N174  1  0.56735882  0.04990379  0.13361576  1  -1.270801  0  -0.356765  -0.280818  0  3.602766  0
N  N175  1  0.93262639  0.45009439  0.63361321  1  -1.271271  0  -0.356836  -0.280925  0  3.60303  0
N  N176  1  0.61590098  0.86888623  0.03958057  1  -1.176434  0  -0.276581  -0.065897  0  3.615255  0
N  N177  1  0.88411005  0.63111441  0.53957846  1  -1.176275  0  -0.276671  -0.066119  0  3.615538  0
N  N178  1  0.38409853  0.13111156  0.96042198  1  -1.176626  0  -0.276618  -0.065885  0  3.615505  0
N  N179  1  0.11588856  0.36888461  0.46042408  1  -1.176368  0  -0.276676  -0.06618  0  3.615633  0
N  N180  1  0.76890031  0.77250747  0.12618991  1  -1.205944  0  -0.278821  -0.051652  0  3.595384  0
N  N181  1  0.73110906  0.72749096  0.62619333  1  -1.205395  0  -0.278787  -0.051577  0  3.595269  0
N  N182  1  0.23109729  0.22749092  0.87380915  1  -1.206165  0  -0.278767  -0.051403  0  3.59554  0
N  N183  1  0.26889354  0.27250991  0.37380872  1  -1.205497  0  -0.278822  -0.05165  0  3.595487  0
N  N184  1  0.02120498  0.61228594  0.21893182  1  -1.278033  0  -0.355531  -0.275137  0  3.594894  0
N  N185  1  0.47879933  0.88770387  0.71893496  1  -1.277673  0  -0.355552  -0.275101  0  3.59456  0
N  N186  1  0.97880234  0.38771249  0.78106425  1  -1.277847  0  -0.355538  -0.275109  0  3.594774  0
N  N187  1  0.52119726  0.11229391  0.28106260  1  -1.277769  0  -0.355516  -0.275099  0  3.59462  0
O  O188  1  0.20179966  0.88507952  0.77111351  1  -1.181524  0  -0.346436  -0.570888  0  2.335332  0
O  O189  1  0.29821653  0.61491343  0.27111404  1  -1.181627  0  -0.346499  -0.570956  0  2.335402  0
O  O190  1  0.79819703  0.11492010  0.22887607  1  -1.18139  0  -0.346274  -0.570688  0  2.335475  0
O  O191  1  0.70179737  0.38508134  0.72888202  1  -1.1813  0  -0.346391  -0.570808  0  2.335176  0
O  O192  1  0.09466824  0.96846440  0.84060378  1  -1.194434  0  -0.340714  -0.572129  0  2.104155  0
O  O193  1  0.40533938  0.53153573  0.34061535  1  -1.194048  0  -0.34073  -0.572156  0  2.104118  0
O  O194  1  0.90533707  0.03153279  0.15938880  1  -1.194034  0  -0.340697  -0.572014  0  2.104175  0
O  O195  1  0.59465764  0.46846942  0.65939268  1  -1.194162  0  -0.340698  -0.572122  0  2.104044  0
O  O196  1  0.82681641  0.56678558  0.76514835  1  -1.174388  0  -0.337967  -0.547042  0  2.321317  0
O  O197  1  0.67318310  0.93321925  0.26514775  1  -1.174287  0  -0.337951  -0.54701  0  2.321718  0
O  O198  1  0.17317067  0.43321585  0.23485270  1  -1.174556  0  -0.338104  -0.547178  0  2.32121  0
O  O199  1  0.32683116  0.06678166  0.73485529  1  -1.173959  0  -0.338094  -0.547144  0  2.321274  0
O  O200  1  0.03790439  0.59740884  0.74144083  1  -1.188421  0  -0.337194  -0.576822  0  2.123613  0
O  O201  1  0.46210032  0.90259484  0.24143760  1  -1.188449  0  -0.33719  -0.576783  0  2.1235  0
O  O202  1  0.96208446  0.40258952  0.25855922  1  -1.18863  0  -0.337124  -0.576683  0  2.123747  0
O  O203  1  0.53791703  0.09740915  0.75856195  1  -1.188739  0  -0.337091  -0.576564  0  2.123665  0
