# generated using pymatgen
data_CuH26C20(NO3)2
_symmetry_space_group_name_H-M   'P 1'
_cell_length_a   9.70037051
_cell_length_b   10.94519097
_cell_length_c   11.11579784
_cell_angle_alpha   105.77170952
_cell_angle_beta   96.75407400
_cell_angle_gamma   108.29554003
_symmetry_Int_Tables_number   1
_chemical_formula_structural   CuH26C20(NO3)2
_chemical_formula_sum   'Cu2 H52 C40 N4 O12'
_cell_volume   1051.41426038
_cell_formula_units_Z   2
loop_
 _symmetry_equiv_pos_site_id
 _symmetry_equiv_pos_as_xyz
  1  'x, y, z'
loop_
 _atom_site_type_symbol
 _atom_site_label
 _atom_site_symmetry_multiplicity
 _atom_site_fract_x
 _atom_site_fract_y
 _atom_site_fract_z
 _atom_site_occupancy
 _atom_site_hle17_ddec_charge
 _atom_site_hle17_ddec_spin_density
 _atom_site_hle17_ddec_sum_bond_order
 _atom_site_hle17_magmom
 _atom_site_hse06_10hf_ddec_charge
 _atom_site_hse06_10hf_ddec_spin_density
 _atom_site_hse06_10hf_ddec_sum_bond_order
 _atom_site_hse06_10hf_magmom
 _atom_site_hse06_ddec_charge
 _atom_site_hse06_ddec_spin_density
 _atom_site_hse06_ddec_sum_bond_order
 _atom_site_hse06_magmom
 _atom_site_pbe_cm5_charge
 _atom_site_pbe_ddec_charge
 _atom_site_pbe_ddec_spin_density
 _atom_site_pbe_ddec_sum_bond_order
 _atom_site_pbe_magmom
Cu  Cu0  1  0.78614151  0.50530347  0.39097235  1  0.863555  0.729252  1.77244  0.503  0.837338  0.808691  2.160496  0.618  0.930411  0.887147  2.090857  0.706  0.738253  0.780233  0.751096  2.208268  0.56
Cu  Cu1  1  0.21385661  0.49469781  0.60902902  1  0.863344  -0.729243  1.772513  -0.503  0.837313  -0.808708  2.160493  -0.618  0.930374  -0.88717  2.090959  -0.706  0.738237  0.780176  -0.7511  2.208266  -0.56
H  H2  1  0.98983078  0.27320056  0.68747009  1  0.37427  -0.000121  0.903444  0.0  0.347438  -0.000108  0.985679  0.0  0.358079  -4.4e-05  0.972589  0.0  0.293113  0.339662  -0.000142  0.995427  0.0
H  H3  1  0.01017151  0.72680075  0.31253083  1  0.374234  0.000116  0.903504  0.0  0.34742  0.000107  0.985737  0.0  0.358061  4.3e-05  0.972648  0.0  0.29313  0.339646  0.000142  0.995489  0.0
H  H4  1  0.75558385  0.32868998  0.84014799  1  0.108613  0.000319  0.96427  0.0  0.128517  0.00014  1.027204  0.0  0.129675  8.1e-05  1.028036  0.0  0.085976  0.127845  0.000214  1.026367  0.0
H  H5  1  0.24442048  0.67130321  0.15985005  1  0.108578  -0.000327  0.964279  0.0  0.128522  -0.00014  1.027187  0.0  0.129682  -8e-05  1.028012  0.0  0.085959  0.12785  -0.000215  1.026348  0.0
H  H6  1  0.70382352  0.42579283  0.74973197  1  0.121153  -3.2e-05  0.967109  0.0  0.139526  2e-06  1.030661  0.0  0.141267  -1.2e-05  1.03042  0.0  0.090496  0.138298  2.2e-05  1.031011  0.0
H  H7  1  0.29618187  0.57420849  0.25027197  1  0.121156  1.8e-05  0.967171  0.0  0.139537  -3e-06  1.030723  0.0  0.141254  1.1e-05  1.03051  0.0  0.090487  0.138307  -2.2e-05  1.031069  0.0
H  H8  1  0.89586813  0.45799770  0.80802213  1  0.111092  2.2e-05  0.948432  0.0  0.129906  4.1e-05  1.009073  0.0  0.131222  3.6e-05  1.009564  0.0  0.086134  0.129091  5.3e-05  1.008768  0.0
H  H9  1  0.10414114  0.54199756  0.19197789  1  0.111075  -2.5e-05  0.948519  0.0  0.129894  -4.2e-05  1.009168  0.0  0.131205  -3.6e-05  1.009663  0.0  0.086158  0.12908  -5.3e-05  1.00886  0.0
H  H10  1  0.63683641  0.08302011  0.50170010  1  0.107435  0.00012  0.945606  0.0  0.129627  5.5e-05  1.00392  0.0  0.130781  3e-05  1.004109  0.0  0.089759  0.12881  8.2e-05  1.003834  0.0
H  H11  1  0.36315989  0.91697914  0.49829694  1  0.107459  -0.000122  0.945604  0.0  0.129659  -5.6e-05  1.003906  0.0  0.130812  -3e-05  1.004096  0.0  0.089783  0.128844  -8.2e-05  1.003822  0.0
H  H12  1  0.54967434  0.20138324  0.56045444  1  0.119702  0.000208  0.944777  0.0  0.139064  0.000187  1.005015  0.0  0.140469  0.000118  1.005807  0.0  0.092577  0.138167  0.000251  1.004443  0.0
H  H13  1  0.45032573  0.79861502  0.43954272  1  0.119696  -0.000208  0.944777  0.0  0.139027  -0.000187  1.005034  0.0  0.140428  -0.000117  1.005834  0.0  0.092567  0.138132  -0.000251  1.004462  0.0
H  H14  1  0.59616301  0.10776106  0.65676738  1  0.100193  -6.9e-05  0.965448  0.0  0.119068  -6.4e-05  1.030288  0.0  0.120608  -5.1e-05  1.029892  0.0  0.08536  0.11802  -7.1e-05  1.03057  0.0
H  H15  1  0.40383578  0.89223922  0.34322839  1  0.100249  5.9e-05  0.965441  0.0  0.119101  6.3e-05  1.0303  0.0  0.120653  5.1e-05  1.029895  0.0  0.085354  0.118052  7.1e-05  1.030578  0.0
H  H16  1  0.70968558  0.58836153  0.97399630  1  0.118191  5.4e-05  0.951232  0.0  0.139189  2.4e-05  1.010827  0.0  0.140833  1.1e-05  1.010409  0.0  0.091138  0.137876  5.1e-05  1.01128  0.0
H  H17  1  0.29031305  0.41163570  0.02600133  1  0.118212  -5.7e-05  0.951213  0.0  0.139201  -2.6e-05  1.010808  0.0  0.140842  -1.1e-05  1.010394  0.0  0.091146  0.13789  -5.1e-05  1.011258  0.0
H  H18  1  0.88646551  0.69665518  0.07785025  1  0.115097  8.1e-05  0.953295  0.0  0.133909  9.1e-05  1.015504  0.0  0.136137  6.4e-05  1.014659  0.0  0.089163  0.132277  0.00013  1.016051  0.0
H  H19  1  0.11353351  0.30334306  0.92214860  1  0.115151  -8.4e-05  0.953273  0.0  0.133936  -9.4e-05  1.015504  0.0  0.136165  -6.5e-05  1.014657  0.0  0.089162  0.132303  -0.00013  1.016052  0.0
H  H20  1  0.78332788  0.76199346  0.98442802  1  0.102498  6e-05  0.956844  0.0  0.123877  -1.5e-05  1.019672  0.0  0.124727  -2.8e-05  1.020921  0.0  0.084175  0.123235  -1.5e-05  1.01884  0.0
H  H21  1  0.21667114  0.23800478  0.01557172  1  0.102562  -6.2e-05  0.956722  0.0  0.123938  1.3e-05  1.019557  0.0  0.124785  2.8e-05  1.020806  0.0  0.08422  0.123296  1.5e-05  1.018724  0.0
H  H22  1  0.77985885  0.94678261  0.18455590  1  0.109419  0.000129  0.954646  0.0  0.129751  4e-05  1.015914  0.0  0.130876  1.3e-05  1.016822  0.0  0.08601  0.129082  7e-05  1.015011  0.0
H  H23  1  0.22014187  0.05321463  0.81544106  1  0.109435  -0.000136  0.954644  0.0  0.129768  -4.1e-05  1.015913  0.0  0.130889  -1.3e-05  1.016824  0.0  0.08604  0.1291  -7e-05  1.015012  0.0
H  H24  1  0.89426758  0.89240860  0.27957498  1  0.113059  2.7e-05  0.964528  0.0  0.13254  3.2e-05  1.028166  0.0  0.133926  1.9e-05  1.028346  0.0  0.08988  0.131362  6.2e-05  1.02829  0.0
H  H25  1  0.10573353  0.10758966  0.72042319  1  0.113085  -2.5e-05  0.964471  0.0  0.132569  -3.4e-05  1.028122  0.0  0.133956  -1.9e-05  1.028297  0.0  0.089886  0.131391  -6.2e-05  1.028247  0.0
H  H26  1  0.72230447  0.89960626  0.31672471  1  0.110173  4.7e-05  0.942742  0.0  0.130008  3.2e-05  1.003925  0.0  0.131479  2.2e-05  1.003518  0.0  0.088855  0.128682  5.9e-05  1.004608  0.0
H  H27  1  0.27769847  0.10039405  0.68327330  1  0.110125  -5e-05  0.942746  0.0  0.129962  -3.4e-05  1.003939  0.0  0.131432  -2.2e-05  1.00353  0.0  0.088822  0.128637  -5.9e-05  1.004625  0.0
H  H28  1  0.60715878  0.50205710  0.59129809  1  0.09268  0.000888  0.958979  0.002  0.099936  0.000674  1.023856  0.001  0.102462  0.000469  1.021554  0.001  0.120194  0.097967  0.000887  1.025721  0.002
H  H29  1  0.39283895  0.49794317  0.40870117  1  0.092631  -0.000897  0.959046  -0.002  0.09989  -0.000674  1.023924  -0.001  0.102418  -0.000468  1.021619  -0.001  0.120181  0.097923  -0.000887  1.025785  -0.002
H  H30  1  0.55897602  0.66906621  0.76337376  1  0.112972  0.000485  0.980814  0.0  0.117636  0.000489  1.053506  0.0  0.120789  0.00039  1.05196  0.0  0.106643  0.11525  0.000557  1.054952  0.0
H  H31  1  0.44101898  0.33093505  0.23662728  1  0.113046  -0.000485  0.980875  0.0  0.117645  -0.00049  1.053617  0.0  0.120797  -0.00039  1.052071  0.0  0.106669  0.115261  -0.000556  1.055065  0.0
H  H32  1  0.84412761  0.98769700  0.64646000  1  0.11974  0.000513  0.983969  0.0  0.128299  0.000473  1.046075  0.0  0.132201  0.000336  1.044306  0.0  0.10719  0.125407  0.000507  1.047634  0.001
H  H33  1  0.15587445  0.01230635  0.35353875  1  0.119768  -0.000515  0.983967  0.0  0.128327  -0.000473  1.046068  0.0  0.132228  -0.000336  1.044301  0.0  0.107194  0.125435  -0.000507  1.047631  -0.001
H  H34  1  0.88945372  0.80462918  0.48342993  1  0.091547  0.000818  0.948034  0.002  0.099641  0.000689  1.009205  0.001  0.102425  0.000507  1.006414  0.001  0.121844  0.097423  0.000806  1.011211  0.001
H  H35  1  0.11055362  0.19536911  0.51657159  1  0.091596  -0.00082  0.948072  -0.002  0.099654  -0.000689  1.009276  -0.001  0.102426  -0.000507  1.00648  -0.001  0.121863  0.097439  -0.000806  1.011274  -0.001
H  H36  1  0.62419496  0.01009485  0.78406474  1  0.085076  -0.000198  0.940571  0.0  0.105436  -4.4e-05  0.995528  0.0  0.106722  -6.3e-05  0.994879  0.0  0.101235  0.104328  -4.9e-05  0.996287  0.0
H  H37  1  0.37580550  0.98990441  0.21593454  1  0.085073  0.000192  0.940573  0.0  0.105441  4.2e-05  0.995523  0.0  0.106726  6.3e-05  0.994876  0.0  0.101235  0.104332  4.9e-05  0.996279  0.0
H  H38  1  0.59753661  0.90160733  0.87847878  1  0.084148  7e-06  0.931675  0.0  0.102118  1.9e-05  0.989245  0.0  0.10284  9e-06  0.990146  0.0  0.09678  0.101595  1.6e-05  0.988639  0.0
H  H39  1  0.40246530  0.09839298  0.12151822  1  0.084119  -8e-06  0.931701  0.0  0.102093  -2e-05  0.989271  0.0  0.102814  -9e-06  0.990174  0.0  0.096774  0.101571  -1.6e-05  0.988664  0.0
H  H40  1  0.89720872  0.10019400  0.86738881  1  0.092661  -0.000257  0.939098  0.0  0.110554  -4.1e-05  1.003425  0.0  0.111785  -8.6e-05  1.003264  0.0  0.102589  0.109625  -4.8e-05  1.00336  0.0
H  H41  1  0.10279083  0.89980830  0.13261388  1  0.092696  0.000254  0.939052  0.0  0.110565  4e-05  1.003404  0.0  0.111795  8.6e-05  1.003244  0.0  0.102583  0.109636  4.8e-05  1.003337  0.0
H  H42  1  0.88029254  0.98812609  0.95742753  1  0.068037  -0.000106  0.951438  0.0  0.085747  -4.1e-05  1.017036  0.0  0.086969  -4.5e-05  1.016401  0.0  0.092509  0.084765  -6e-05  1.017588  0.0
H  H43  1  0.11970597  0.01187620  0.04257505  1  0.068083  0.000103  0.951391  0.0  0.085766  4e-05  1.017018  0.0  0.086991  4.5e-05  1.01638  0.0  0.092513  0.084782  6e-05  1.017572  0.0
H  H44  1  0.60602574  0.16876671  0.94267720  1  0.115467  0.000444  0.975664  0.0  0.122422  0.000436  1.040165  0.0  0.126197  0.000318  1.038244  0.0  0.107896  0.119614  0.000534  1.041938  0.001
H  H45  1  0.39397137  0.83123458  0.05731957  1  0.115456  -0.000449  0.975686  0.0  0.122447  -0.000436  1.04015  0.0  0.126222  -0.000317  1.038229  0.0  0.107895  0.119633  -0.000534  1.041929  -0.001
H  H46  1  0.60762726  0.35142918  0.12694375  1  0.085488  0.000978  0.972815  0.002  0.089558  0.00078  1.045634  0.001  0.092011  0.000561  1.042414  0.001  0.116801  0.087432  0.000958  1.048272  0.001
H  H47  1  0.39236632  0.64857106  0.87305507  1  0.085524  -0.000983  0.972803  -0.002  0.08959  -0.000782  1.045624  -0.001  0.092042  -0.000561  1.042404  -0.001  0.116835  0.087461  -0.000958  1.048257  -0.001
H  H48  1  0.01320239  0.17640888  0.15831540  1  0.099192  0.000474  0.966561  0.0  0.107935  0.000474  1.031762  0.0  0.109962  0.000342  1.03342  0.0  0.103128  0.106427  0.0006  1.030833  0.001
H  H49  1  0.98679941  0.82359649  0.84168656  1  0.099195  -0.000478  0.966519  0.0  0.107934  -0.000475  1.031733  0.0  0.109961  -0.000342  1.03339  0.0  0.103116  0.106427  -0.0006  1.030807  -0.001
H  H50  1  0.98958360  0.35435027  0.34103764  1  0.096621  0.001241  0.979178  0.002  0.099254  0.001  1.048984  0.001  0.100989  0.000738  1.047665  0.001  0.118569  0.097573  0.001168  1.050216  0.001
H  H51  1  0.01041322  0.64565303  0.65896505  1  0.096573  -0.00125  0.979231  -0.002  0.099218  -0.001  1.049012  -0.001  0.100953  -0.000738  1.047692  -0.001  0.118542  0.09754  -0.001168  1.050246  -0.001
H  H52  1  0.48562285  0.64563869  0.12538911  1  0.356224  6.4e-05  0.907192  0.0  0.332451  4e-05  0.985146  0.0  0.342832  2.6e-05  0.972933  0.0  0.294418  0.324894  7.2e-05  0.994164  0.0
H  H53  1  0.51437368  0.35435850  0.87461279  1  0.356177  -6.6e-05  0.907159  0.0  0.332404  -3.9e-05  0.985129  0.0  0.342786  -2.7e-05  0.972915  0.0  0.294408  0.324845  -7.2e-05  0.994153  0.0
C  C54  1  0.83475622  0.34505365  0.54879878  1  0.603849  -0.002746  3.817757  -0.007  0.572857  0.001021  4.106155  -0.002  0.609861  0.00018  4.099355  -0.002  0.213347  0.548059  0.002033  4.109688  -0.001
C  C55  1  0.16524526  0.65494560  0.45120510  1  0.60366  0.002748  3.818035  0.007  0.572819  -0.001018  4.106206  0.002  0.609824  -0.000175  4.0994  0.002  0.213298  0.548019  -0.002032  4.109738  0.001
C  C56  1  0.78496632  0.27124727  0.64604118  1  0.291612  0.011656  3.61904  0.012  0.303967  0.006296  3.85712  0.007  0.305462  0.004199  3.870521  0.005  0.06052  0.302793  0.008127  3.84766  0.009
C  C57  1  0.21503438  0.72874996  0.35395847  1  0.291572  -0.011667  3.619417  -0.012  0.303949  -0.006293  3.857361  -0.007  0.305454  -0.00421  3.870739  -0.005  0.060486  0.302774  -0.008128  3.847921  -0.009
C  C58  1  0.78465324  0.37835365  0.76826334  1  -0.379173  0.001014  3.657829  0.001  -0.456988  0.00035  3.88864  0.0  -0.459962  0.000105  3.897386  0.0  -0.2507  -0.454729  0.000637  3.882428  0.001
C  C59  1  0.21535034  0.62164563  0.23173806  1  -0.379118  -0.00098  3.658046  -0.001  -0.457001  -0.000347  3.888861  0.0  -0.459954  -0.000103  3.897629  0.0  -0.250699  -0.454739  -0.000637  3.882643  -0.001
C  C60  1  0.63233990  0.15903688  0.58754343  1  -0.350117  -0.000226  3.672633  -0.001  -0.432728  0.000206  3.912454  0.0  -0.435278  0.000109  3.921811  0.0  -0.245645  -0.430639  0.000292  3.905774  0.0
C  C61  1  0.36765848  0.84096237  0.41245472  1  -0.350189  0.000246  3.672717  0.001  -0.43278  -0.000204  3.912594  0.0  -0.435335  -0.00011  3.921941  0.0  -0.245643  -0.430696  -0.000292  3.905919  0.0
C  C62  1  0.68066995  0.62872996  0.22425389  1  0.578858  -0.002997  3.851459  -0.006  0.537104  0.000357  4.151113  -0.002  0.570357  -0.000306  4.148017  -0.002  0.20519  0.514809  0.001031  4.15255  -0.002
C  C63  1  0.31932609  0.37127131  0.77574726  1  0.578995  0.002981  3.85107  0.006  0.537182  -0.000347  4.150811  0.002  0.570439  0.000304  4.147704  0.002  0.205203  0.514884  -0.001031  4.152248  0.002
C  C64  1  0.69606527  0.72965315  0.14808624  1  0.28983  0.009352  3.622014  0.01  0.302724  0.005591  3.862222  0.006  0.305055  0.00383  3.874789  0.005  0.059223  0.300998  0.006927  3.853492  0.008
C  C65  1  0.30393166  0.27034507  0.85191329  1  0.289739  -0.009344  3.622173  -0.01  0.302684  -0.005589  3.862344  -0.006  0.30501  -0.003826  3.874908  -0.005  0.059249  0.300959  -0.006927  3.853613  -0.008
C  C66  1  0.77449177  0.69163527  0.03973927  1  -0.359263  -0.000258  3.647587  0.0  -0.439135  5.1e-05  3.879985  0.0  -0.442017  -7e-06  3.888631  0.0  -0.246852  -0.436736  9.4e-05  3.874007  0.0
C  C67  1  0.22550581  0.30836194  0.96026005  1  -0.359388  0.00027  3.64752  0.0  -0.439237  -4.1e-05  3.879937  0.0  -0.442114  8e-06  3.888582  0.0  -0.246911  -0.436841  -9.4e-05  3.873961  0.0
C  C68  1  0.77891412  0.87596428  0.23833288  1  -0.364352  -0.000187  3.661605  0.0  -0.443746  0.0  3.895206  0.0  -0.446143  -5.2e-05  3.903498  0.0  -0.247738  -0.441705  8.6e-05  3.889529  0.0
C  C69  1  0.22108738  0.12403499  0.76166651  1  -0.364305  0.000198  3.661607  0.0  -0.443717  6e-06  3.895186  0.0  -0.446114  5.2e-05  3.903492  0.0  -0.247732  -0.441671  -8.6e-05  3.889501  0.0
C  C70  1  0.65784880  0.61052002  0.60680189  1  0.134853  -0.006546  3.691599  -0.007  0.105422  -0.000508  3.947894  -0.001  0.115101  -0.001573  3.966318  -0.002  0.048754  0.099005  0.000362  3.936208  0.0
C  C71  1  0.34215532  0.38948333  0.39319977  1  0.134915  0.006563  3.691588  0.007  0.105476  0.000513  3.947902  0.001  0.115153  0.001572  3.966328  0.002  0.048806  0.099057  -0.000363  3.936215  0.0
C  C72  1  0.63155651  0.70599975  0.70334832  1  -0.171822  0.010106  3.70336  0.01  -0.191827  0.004023  3.952768  0.005  -0.200811  0.003655  3.973159  0.004  -0.08351  -0.18616  0.004347  3.939149  0.005
C  C73  1  0.36844592  0.29400460  0.29665434  1  -0.171972  -0.010101  3.703366  -0.01  -0.191872  -0.004024  3.952801  -0.005  -0.200856  -0.003654  3.973191  -0.004  -0.083572  -0.186209  -0.004347  3.939187  -0.005
C  C74  1  0.69858091  0.84465805  0.72134233  1  0.156579  -0.008389  3.718576  -0.008  0.174334  -0.002631  3.95126  -0.003  0.180902  -0.002811  3.972561  -0.003  0.013663  0.169996  -0.002462  3.936753  -0.002
C  C75  1  0.30141697  0.15534527  0.27865866  1  0.156636  0.008371  3.718431  0.008  0.174278  0.00263  3.951259  0.003  0.180843  0.00281  3.972561  0.003  0.013575  0.169935  0.002462  3.936755  0.002
C  C76  1  0.79136100  0.88112798  0.63909354  1  -0.183949  0.009313  3.69666  0.009  -0.197825  0.003448  3.935006  0.004  -0.207149  0.003238  3.955734  0.004  -0.087066  -0.191697  0.003737  3.921029  0.004
C  C77  1  0.20864311  0.11887535  0.36091082  1  -0.184009  -0.009303  3.696733  -0.009  -0.197841  -0.003449  3.935086  -0.004  -0.207166  -0.003238  3.955809  -0.004  -0.087033  -0.191716  -0.003737  3.921113  -0.004
C  C78  1  0.81491169  0.78023179  0.54644060  1  0.131441  -0.006375  3.690999  -0.007  0.105548  -0.000513  3.939016  -0.001  0.115056  -0.001534  3.957666  -0.002  0.043504  0.099777  0.000263  3.926061  0.0
C  C79  1  0.18509203  0.21977053  0.45356344  1  0.131411  0.006371  3.691002  0.007  0.105558  0.000516  3.939035  0.001  0.115089  0.001535  3.957656  0.002  0.043518  0.099785  -0.000263  3.926079  0.0
C  C80  1  0.67570457  0.95095114  0.82693123  1  -0.148763  0.000509  3.68864  0.001  -0.19146  0.000144  3.935969  0.0  -0.192905  5.9e-05  3.947064  0.0  -0.152796  -0.190414  0.000216  3.928482  0.0
C  C81  1  0.32429787  0.04905322  0.17307053  1  -0.148728  -0.000494  3.688496  -0.001  -0.191398  -0.000141  3.935839  0.0  -0.192841  -5.9e-05  3.946931  0.0  -0.15275  -0.19035  -0.000216  3.928349  0.0
C  C82  1  0.82354360  0.04763760  0.92059166  1  -0.152083  0.000191  3.694031  0.001  -0.19892  -4.7e-05  3.946991  0.0  -0.200391  -0.0001  3.958111  0.0  -0.151767  -0.197576  -7e-06  3.939241  0.0
C  C83  1  0.17645518  0.95236268  0.07940771  1  -0.152168  -0.000187  3.69401  -0.001  -0.198975  4.9e-05  3.946985  0.0  -0.20045  0.000101  3.958109  0.0  -0.151768  -0.197631  7e-06  3.939234  0.0
C  C84  1  0.81129465  0.15451110  0.03247696  1  0.154046  -0.009148  3.719483  -0.009  0.171597  -0.002745  3.951578  -0.003  0.17787  -0.002976  3.973028  -0.003  0.014292  0.167357  -0.002497  3.937296  -0.002
C  C85  1  0.18870332  0.84548713  0.96752357  1  0.154049  0.00914  3.719567  0.009  0.171587  0.002745  3.951674  0.003  0.177859  0.002972  3.973128  0.003  0.014291  0.167348  0.002497  3.937395  0.002
C  C86  1  0.69591074  0.20533970  0.02709998  1  -0.177498  0.010061  3.706941  0.01  -0.191834  0.003709  3.947007  0.004  -0.20086  0.003499  3.967748  0.004  -0.088113  -0.186351  0.003932  3.933547  0.004
C  C87  1  0.30408620  0.79465854  0.97289775  1  -0.177406  -0.01005  3.706996  -0.01  -0.191767  -0.003711  3.947051  -0.004  -0.200795  -0.003495  3.967796  -0.004  -0.088075  -0.186285  -0.003931  3.933591  -0.004
C  C88  1  0.69431574  0.30821301  0.13219158  1  0.127154  -0.007703  3.69941  -0.008  0.098472  -0.000964  3.95468  -0.002  0.108325  -0.001947  3.972696  -0.003  0.045537  0.092395  -0.000173  3.942553  -0.001
C  C89  1  0.30568135  0.69178827  0.86780788  1  0.127056  0.007703  3.699488  0.008  0.098361  0.000971  3.954786  0.002  0.10821  0.001945  3.972799  0.003  0.045452  0.092293  0.000173  3.942651  0.001
C  C90  1  0.92007848  0.21097926  0.14707110  1  -0.176318  0.010236  3.716406  0.01  -0.18907  0.00376  3.955076  0.004  -0.198188  0.003515  3.976659  0.004  -0.085208  -0.183451  0.003751  3.94075  0.004
C  C91  1  0.07991965  0.78902203  0.85292937  1  -0.176347  -0.010231  3.716445  -0.01  -0.189111  -0.003763  3.955116  -0.004  -0.198228  -0.003511  3.976699  -0.004  -0.085197  -0.18349  -0.003751  3.940798  -0.004
C  C92  1  0.91004173  0.31168342  0.24930343  1  0.133311  -0.007579  3.681206  -0.008  0.107431  -0.000916  3.930573  -0.002  0.117283  -0.001941  3.948983  -0.003  0.046327  0.101281  -0.000121  3.918542  -0.001
C  C93  1  0.08995511  0.68831989  0.75069746  1  0.13345  0.007599  3.681075  0.008  0.107584  0.000923  3.9304  0.002  0.117432  0.001939  3.948806  0.003  0.046446  0.101435  0.000121  3.91838  0.001
N  N94  1  0.74857950  0.64651752  0.52962634  1  -0.303919  0.075709  3.320098  0.091  -0.254421  0.052151  3.609837  0.068  -0.284815  0.043787  3.631248  0.06  -0.347599  -0.236202  0.056369  3.597123  0.07
N  N95  1  0.25142551  0.35348279  0.47037459  1  -0.30382  -0.075719  3.319961  -0.091  -0.254384  -0.052157  3.609747  -0.068  -0.284778  -0.043784  3.631173  -0.06  -0.347607  -0.23616  -0.056375  3.597022  -0.07
N  N96  1  0.79825949  0.35962841  0.24234725  1  -0.296519  0.078346  3.331248  0.095  -0.248486  0.053775  3.624582  0.07  -0.278837  0.04522  3.644835  0.062  -0.349494  -0.230359  0.057836  3.612313  0.072
N  N97  1  0.20173447  0.64037284  0.75765457  1  -0.296559  -0.078357  3.331034  -0.095  -0.248542  -0.053782  3.624372  -0.07  -0.278881  -0.045214  3.644634  -0.062  -0.349555  -0.230418  -0.057837  3.612101  -0.072
O  O98  1  0.73616374  0.37997858  0.49332715  1  -0.591568  0.106375  2.079625  0.137  -0.571512  0.065116  2.363115  0.093  -0.615543  0.049065  2.355921  0.074  -0.324696  -0.5417  0.07652  2.366898  0.105
O  O99  1  0.26383473  0.62001559  0.50667144  1  -0.591436  -0.106367  2.079733  -0.137  -0.57147  -0.065114  2.363172  -0.093  -0.615496  -0.04906  2.355982  -0.074  -0.32469  -0.541654  -0.076512  2.366957  -0.105
O  O100  1  0.96485249  0.36808505  0.53303657  1  -0.631389  0.001991  2.120796  0.002  -0.60461  0.00087  2.391849  0.001  -0.633904  0.000247  2.379833  0.0  -0.325893  -0.584836  0.001506  2.399763  0.002
O  O101  1  0.03514619  0.63192031  0.46696416  1  -0.631308  -0.002006  2.120857  -0.002  -0.604562  -0.00087  2.391825  -0.001  -0.633855  -0.000239  2.379796  0.0  -0.325817  -0.584791  -0.001507  2.399752  -0.002
O  O102  1  0.88788416  0.20837756  0.67593934  1  -0.592761  0.006981  2.011546  0.008  -0.55318  0.002754  2.232717  0.003  -0.569262  0.001361  2.220853  0.002  -0.407846  -0.540542  0.005013  2.240483  0.006
O  O103  1  0.11211786  0.79161768  0.32405272  1  -0.592664  -0.006976  2.011648  -0.008  -0.553166  -0.002756  2.232834  -0.003  -0.569252  -0.00136  2.220969  -0.002  -0.407863  -0.540514  -0.005012  2.240581  -0.006
O  O104  1  0.80308935  0.62473682  0.27905053  1  -0.609841  0.085874  2.150125  0.11  -0.571232  0.058239  2.424502  0.082  -0.613952  0.04545  2.420482  0.068  -0.318286  -0.543602  0.065286  2.42775  0.088
O  O105  1  0.19690461  0.37526443  0.72095130  1  -0.609849  -0.085875  2.150007  -0.11  -0.57125  -0.05824  2.424394  -0.082  -0.61397  -0.045442  2.420392  -0.068  -0.318309  -0.543612  -0.065282  2.427628  -0.088
O  O106  1  0.55235749  0.55793235  0.22748221  1  -0.604804  0.000613  1.958914  0.002  -0.56527  2e-05  2.192831  0.001  -0.590198  -0.000696  2.184394  0.0  -0.312261  -0.548229  0.000687  2.198974  0.002
O  O107  1  0.44764504  0.44206692  0.77251998  1  -0.604829  -0.000611  1.958685  -0.002  -0.565311  -2.3e-05  2.192687  -0.001  -0.590242  0.000694  2.184256  0.0  -0.312247  -0.548257  -0.000687  2.198805  -0.002
O  O108  1  0.54806116  0.71622196  0.09457322  1  -0.581706  0.002623  2.0022  0.003  -0.537954  0.001586  2.215756  0.002  -0.553727  0.000937  2.20508  0.001  -0.405583  -0.526479  0.002277  2.223235  0.003
O  O109  1  0.45193681  0.28377626  0.90542821  1  -0.58167  -0.002622  2.002211  -0.003  -0.537919  -0.001587  2.215746  -0.002  -0.553692  -0.000937  2.205065  -0.001  -0.405602  -0.526446  -0.002277  2.223241  -0.003
