# generated using pymatgen
data_MnH7C7N8
_symmetry_space_group_name_H-M   'P 1'
_cell_length_a   7.63619441
_cell_length_b   8.40465654
_cell_length_c   17.25251370
_cell_angle_alpha   95.99429903
_cell_angle_beta   90.00685075
_cell_angle_gamma   117.01043156
_symmetry_Int_Tables_number   1
_chemical_formula_structural   MnH7C7N8
_chemical_formula_sum   'Mn4 H28 C28 N32'
_cell_volume   979.67635168
_cell_formula_units_Z   4
loop_
 _symmetry_equiv_pos_site_id
 _symmetry_equiv_pos_as_xyz
  1  'x, y, z'
loop_
 _atom_site_type_symbol
 _atom_site_label
 _atom_site_symmetry_multiplicity
 _atom_site_fract_x
 _atom_site_fract_y
 _atom_site_fract_z
 _atom_site_occupancy
 _atom_site_hle17_ddec_charge
 _atom_site_hle17_ddec_spin_density
 _atom_site_hle17_ddec_sum_bond_order
 _atom_site_hle17_magmom
 _atom_site_hse06_10hf_ddec_charge
 _atom_site_hse06_10hf_ddec_spin_density
 _atom_site_hse06_10hf_ddec_sum_bond_order
 _atom_site_hse06_10hf_magmom
 _atom_site_hse06_ddec_charge
 _atom_site_hse06_ddec_spin_density
 _atom_site_hse06_ddec_sum_bond_order
 _atom_site_hse06_magmom
 _atom_site_pbe_cm5_charge
 _atom_site_pbe_ddec_charge
 _atom_site_pbe_ddec_spin_density
 _atom_site_pbe_ddec_sum_bond_order
 _atom_site_pbe_magmom
Mn  Mn0  1  0.75571132  0.77512576  0.72893844  1  0.956989  -4.726582  2.177074  -4.578  0.798659  -4.613929  2.719971  -4.405  0.853034  -4.696679  2.65683  -4.505  0.66554  0.756451  -4.524151  2.766725  -4.297
Mn  Mn1  1  0.98058591  0.22524148  0.77109455  1  0.956529  -4.724406  2.176557  -4.578  0.798404  -4.6122  2.719223  -4.405  0.852722  -4.694778  2.65622  -4.505  0.665272  0.756261  -4.522693  2.765772  -4.298
Mn  Mn2  1  0.24452798  0.22500213  0.26930867  1  0.947568  4.738386  2.224395  4.554  0.790664  4.58118  2.777606  4.36  0.846622  4.702055  2.710217  4.478  0.671183  0.744822  4.43992  2.83051  4.22
Mn  Mn3  1  0.01961320  0.77485746  0.23063246  1  0.947643  -4.706709  2.224005  -4.554  0.790582  -4.572228  2.776823  -4.36  0.846452  -4.673903  2.709936  -4.478  0.670991  0.744623  -4.447418  2.829642  -4.22
H  H4  1  0.53430328  0.39525582  0.62704774  1  0.070699  -0.000337  0.948177  0.0  0.080898  -0.000779  1.009427  -0.001  0.082838  -0.000569  1.008116  0.0  0.118134  0.079262  -0.000977  1.010818  -0.001
H  H5  1  0.13822883  0.60510950  0.87309166  1  0.071119  -0.000345  0.948  0.0  0.081039  -0.000782  1.009449  -0.001  0.083082  -0.000583  1.008003  0.0  0.118345  0.079343  -0.000959  1.010915  -0.001
H  H6  1  0.46428387  0.60574780  0.37193955  1  0.070516  0.000272  0.946309  0.0  0.080687  0.000769  1.007522  0.0  0.082726  0.0006  1.006029  0.0  0.11807  0.079005  0.000897  1.009019  0.001
H  H7  1  0.85913180  0.39410289  0.12796468  1  0.070016  -0.000272  0.947224  0.0  0.08079  -0.000805  1.007792  -0.001  0.082746  -0.000616  1.006396  0.0  0.118197  0.079197  -0.000969  1.009166  -0.001
H  H8  1  0.26191529  0.23743052  0.52293312  1  0.109167  -0.000211  0.967258  0.0  0.114548  -0.000418  1.034131  0.0  0.117487  -0.000345  1.033619  0.0  0.106806  0.112105  -0.000518  1.03516  0.0
H  H9  1  0.02334586  0.76232017  0.97731265  1  0.109167  6.5e-05  0.967747  0.0  0.114577  -0.000232  1.034609  0.0  0.117517  -0.000136  1.03408  0.0  0.106894  0.112126  -0.000341  1.035669  0.0
H  H10  1  0.73648262  0.76409569  0.47594147  1  0.109024  -7e-05  0.965401  0.0  0.114803  -0.000424  1.031711  0.0  0.117667  -0.000356  1.031267  0.0  0.106671  0.11244  -0.000517  1.032661  0.0
H  H11  1  0.97313918  0.23611782  0.02391200  1  0.109444  -0.000785  0.964888  0.0  0.115427  -0.000914  1.030899  0.0  0.118362  -0.000781  1.030426  0.0  0.107194  0.113014  -0.001025  1.031847  0.0
H  H12  1  0.11147713  0.41572531  0.46901373  1  0.093319  -0.000374  0.955767  0.0  0.103573  -0.000555  1.017572  0.0  0.106027  -0.000539  1.016138  0.0  0.108214  0.10152  -0.000582  1.019012  0.0
H  H13  1  0.69475541  0.58336542  0.03118938  1  0.093465  0.000312  0.956727  0.0  0.103996  0.000425  1.018071  0.0  0.106477  0.00043  1.016622  0.0  0.108721  0.101946  0.000406  1.019497  0.0
H  H14  1  0.88820647  0.58700790  0.52988041  1  0.093699  1.4e-05  0.960208  0.0  0.10321  4.1e-05  1.023075  0.0  0.105654  0.000108  1.021681  0.0  0.107854  0.101149  -4.7e-05  1.024562  0.0
H  H15  1  0.30181822  0.41352355  0.96997429  1  0.093617  0.000226  0.960139  0.0  0.103139  -7.3e-05  1.022992  0.0  0.105584  5.4e-05  1.021598  0.0  0.107758  0.101075  -0.000222  1.024498  0.0
H  H16  1  0.20978595  0.73047311  0.53123957  1  0.114231  -0.000226  0.972962  0.0  0.120936  -0.000554  1.041018  0.0  0.124396  -0.000421  1.039193  0.0  0.10923  0.118212  -0.000693  1.042738  0.0
H  H17  1  0.47883692  0.26871402  0.96881777  1  0.114414  1.8e-05  0.972476  0.0  0.120994  -0.000195  1.040619  0.0  0.124345  -0.00013  1.038954  0.0  0.109587  0.118317  -0.000264  1.042294  0.0
H  H18  1  0.79084125  0.27225365  0.46767978  1  0.112876  2.5e-05  0.972134  0.0  0.120424  -0.000325  1.039149  0.0  0.123694  -0.000287  1.037611  0.0  0.109059  0.117815  -0.000373  1.04075  0.0
H  H19  1  0.51895424  0.72825285  0.03225058  1  0.113023  -0.000572  0.972607  0.0  0.120494  -0.000778  1.039559  0.0  0.123864  -0.00063  1.037922  0.0  0.109644  0.117816  -0.000925  1.041253  -0.001
H  H20  1  0.47073113  0.15064748  0.67326547  1  0.128009  0.000321  0.947966  0.0  0.145366  0.000318  1.009226  0.0  0.147807  0.000355  1.008284  0.0  0.100414  0.143373  0.000256  1.010145  0.0
H  H21  1  0.32042746  0.84888093  0.82673160  1  0.127637  0.000323  0.947542  0.0  0.145018  0.000317  1.008929  0.0  0.147471  0.000355  1.007998  0.0  0.10008  0.143021  0.000255  1.009847  0.0
H  H22  1  0.52974237  0.85107215  0.32679055  1  0.127228  0.000116  0.949103  0.0  0.144459  0.000212  1.011092  0.0  0.146911  0.00021  1.010206  0.0  0.099759  0.142412  0.00021  1.012042  0.0
H  H23  1  0.67861692  0.14919687  0.17322890  1  0.127333  -0.000109  0.9498  0.0  0.144237  -0.000199  1.011993  0.0  0.146672  -0.0002  1.011133  0.0  0.09969  0.142205  -0.000196  1.012908  0.0
H  H24  1  0.23016102  0.97155106  0.65254623  1  0.147916  0.000309  0.950445  -0.001  0.16381  -1.4e-05  1.018588  -0.001  0.166446  0.000338  1.018269  -0.001  0.10491  0.161348  -0.000556  1.019193  -0.002
H  H25  1  0.25826195  0.02760847  0.84749477  1  0.147978  0.00031  0.949126  -0.001  0.163786  -6e-06  1.017408  -0.001  0.166452  0.000345  1.017074  -0.001  0.104987  0.16132  -0.000549  1.018013  -0.002
H  H26  1  0.77039440  0.03032483  0.34645778  1  0.148381  -0.00089  0.949178  -0.001  0.164205  -0.001142  1.01737  -0.001  0.166877  -0.000941  1.017037  0.0  0.105301  0.161696  -0.001476  1.017973  -0.001
H  H27  1  0.74029405  0.97011032  0.15352880  1  0.148276  0.000888  0.949416  0.001  0.164087  0.001122  1.01752  0.001  0.166783  0.000923  1.017172  0.0  0.10494  0.161548  0.001449  1.018146  0.001
H  H28  1  0.39761503  0.02942421  0.57702838  1  0.13404  -0.000783  0.952834  -0.001  0.15282  -0.001122  1.016442  -0.001  0.154689  -0.000943  1.015779  -0.001  0.100878  0.151221  -0.001337  1.017032  -0.001
H  H29  1  0.36840321  0.97006841  0.92297211  1  0.133824  -0.000901  0.952267  -0.001  0.152684  -0.001317  1.015864  -0.001  0.154582  -0.001095  1.015174  -0.001  0.100794  0.151086  -0.00157  1.016461  -0.001
H  H30  1  0.60481197  0.97347093  0.42271355  1  0.133423  0.000169  0.951734  0.0  0.152221  8.1e-05  1.015669  0.0  0.154117  0.000135  1.01497  0.0  0.100597  0.15059  -8.4e-05  1.016308  0.0
H  H31  1  0.63130732  0.02682445  0.07731427  1  0.134194  -0.000293  0.950946  0.0  0.152383  -0.000505  1.015376  0.0  0.154289  -0.000474  1.014681  0.0  0.100399  0.150747  -0.00043  1.016012  0.0
C  C32  1  0.45203263  0.46115839  0.60623106  1  0.140504  7.6e-05  3.710265  0.0  0.110442  -0.004216  3.966969  -0.003  0.117008  -0.002922  3.984206  -0.002  0.056899  0.105769  -0.005315  3.956291  -0.003
C  C33  1  0.99011762  0.53894335  0.89388238  1  0.139271  0.000148  3.707778  0.0  0.109765  -0.004149  3.964128  -0.003  0.116292  -0.002842  3.981334  -0.002  0.056502  0.105116  -0.005215  3.953509  -0.003
C  C34  1  0.54673620  0.53994670  0.39270839  1  0.139448  0.005091  3.709822  0.005  0.110017  0.006281  3.966542  0.005  0.116631  0.005957  3.983819  0.005  0.056506  0.10516  0.006714  3.955853  0.006
C  C35  1  0.00733452  0.46009059  0.10719489  1  0.14002  -0.005053  3.709274  -0.005  0.109836  -0.006375  3.966516  -0.005  0.116504  -0.005986  3.983826  -0.005  0.056403  0.104937  -0.006941  3.955819  -0.006
C  C36  1  0.30375730  0.37557047  0.54732984  1  -0.095618  -0.006031  3.692683  -0.005  -0.113387  -0.006644  3.949157  -0.005  -0.117834  -0.004629  3.968588  -0.004  -0.07799  -0.111826  -0.010404  3.938065  -0.008
C  C37  1  0.92724802  0.62417663  0.95287230  1  -0.095005  -0.005856  3.692578  -0.005  -0.112994  -0.006479  3.948842  -0.005  -0.117428  -0.004466  3.968268  -0.004  -0.077888  -0.111454  -0.010242  3.937777  -0.008
C  C38  1  0.69511213  0.62606854  0.45154094  1  -0.095115  -0.00502  3.692769  -0.004  -0.113003  -0.004981  3.948604  -0.004  -0.117459  -0.004165  3.968087  -0.004  -0.07747  -0.111424  -0.007361  3.937533  -0.006
C  C39  1  0.06971817  0.37417076  0.04831436  1  -0.096646  0.004753  3.692779  0.004  -0.114406  0.004308  3.948615  0.003  -0.118942  0.003671  3.968024  0.003  -0.078693  -0.112763  0.00648  3.937586  0.005
C  C40  1  0.21856477  0.47455602  0.51846260  1  0.002622  0.001224  3.701504  0.001  -0.016492  -0.002843  3.955868  -0.002  -0.01308  -0.001637  3.972308  -0.001  -0.063634  -0.01913  -0.004282  3.94629  -0.002
C  C41  1  0.74322098  0.52485240  0.98170870  1  0.002092  0.001515  3.704208  0.001  -0.017257  -0.00242  3.958567  -0.001  -0.013854  -0.001185  3.974931  -0.001  -0.064067  -0.019899  -0.003869  3.949038  -0.002
C  C42  1  0.78121353  0.52780866  0.48041025  1  0.003555  0.004968  3.703635  0.004  -0.015778  0.004809  3.95864  0.004  -0.012128  0.005096  3.974877  0.004  -0.063804  -0.018758  0.004417  3.949375  0.004
C  C43  1  0.25396022  0.47259964  0.01945613  1  0.004231  -0.004864  3.702463  -0.004  -0.015101  -0.005004  3.957289  -0.004  -0.01147  -0.005116  3.97358  -0.004  -0.06276  -0.018069  -0.004866  3.947996  -0.004
C  C44  1  0.27294565  0.64934471  0.55278214  1  -0.128581  -0.005492  3.671774  -0.005  -0.150813  -0.005381  3.920574  -0.004  -0.156187  -0.004169  3.940215  -0.003  -0.075778  -0.147959  -0.007564  3.909057  -0.005
C  C45  1  0.62302997  0.35010069  0.94729303  1  -0.128846  -0.005506  3.671142  -0.005  -0.150476  -0.005293  3.920522  -0.004  -0.155781  -0.00414  3.940169  -0.003  -0.076395  -0.147671  -0.007415  3.909048  -0.005
C  C46  1  0.72725179  0.35309609  0.44615526  1  -0.128769  -0.005142  3.669801  -0.004  -0.151277  -0.004581  3.918474  -0.004  -0.156615  -0.004223  3.938014  -0.004  -0.075888  -0.148506  -0.005771  3.907218  -0.005
C  C47  1  0.37458326  0.64729873  0.05376087  1  -0.129286  0.004811  3.669073  0.004  -0.151391  0.003665  3.918059  0.003  -0.156813  0.003533  3.937535  0.003  -0.0773  -0.1486  0.004574  3.906841  0.004
C  C48  1  0.41092102  0.71962513  0.61620909  1  0.160113  0.002612  3.753995  0.003  0.158343  -0.002917  3.99945  -0.001  0.16291  -0.000787  4.018815  0.0  0.121606  0.154397  -0.005749  3.988018  -0.003
C  C49  1  0.69091930  0.28018513  0.88381077  1  0.159743  0.002713  3.753941  0.003  0.157134  -0.002822  4.001126  -0.001  0.16176  -0.000682  4.020466  0.0  0.121445  0.153093  -0.00562  3.989799  -0.003
C  C50  1  0.58868995  0.28195161  0.38292708  1  0.161116  0.00491  3.750598  0.005  0.159527  0.004692  3.995275  0.005  0.164243  0.005249  4.014491  0.005  0.121633  0.155285  0.003351  3.984116  0.004
C  C51  1  0.30704894  0.71821523  0.11702953  1  0.160711  -0.004908  3.750954  -0.005  0.158196  -0.004885  3.997199  -0.005  0.16294  -0.005318  4.0163  -0.005  0.120731  0.154067  -0.003741  3.986039  -0.005
C  C52  1  0.45791394  0.89194646  0.66325331  1  0.263947  -0.022755  3.652276  -0.02  0.251148  -0.028465  3.915143  -0.023  0.266476  -0.02337  3.925387  -0.019  0.156196  0.238894  -0.036132  3.910267  -0.028
C  C53  1  0.56580142  0.10784617  0.83673992  1  0.263622  -0.022864  3.650855  -0.02  0.25044  -0.028564  3.915864  -0.023  0.265703  -0.023461  3.926163  -0.019  0.156363  0.238281  -0.036256  3.910947  -0.029
C  C54  1  0.54186661  0.10932235  0.33636182  1  0.261655  -0.008784  3.655751  -0.007  0.249576  -0.009562  3.917174  -0.008  0.265114  -0.005581  3.927312  -0.005  0.155796  0.236969  -0.016426  3.91245  -0.013
C  C55  1  0.43266563  0.89079768  0.16362991  1  0.262274  0.008863  3.653377  0.007  0.249554  0.009625  3.916363  0.008  0.265169  0.005685  3.926299  0.005  0.1556  0.236691  0.016394  3.911985  0.013
C  C56  1  0.38629071  0.01834366  0.63978171  1  -0.379545  0.001306  3.679476  0.002  -0.459427  -7.4e-05  3.916255  0.001  -0.464615  0.000294  3.921214  0.001  -0.237805  -0.454923  -0.000489  3.913699  0.001
C  C57  1  0.36797802  0.98115118  0.86022148  1  -0.378924  0.001265  3.676044  0.002  -0.458503  -0.000145  3.913584  0.001  -0.463727  0.000235  3.918462  0.001  -0.237364  -0.45405  -0.000567  3.911077  0.001
C  C58  1  0.61464934  0.98377494  0.35987163  1  -0.379135  0.000448  3.677222  0.001  -0.459637  -0.000123  3.914592  0.0  -0.464929  2.5e-05  3.919441  0.0  -0.238154  -0.455043  -0.000396  3.912201  0.0
C  C59  1  0.63093748  0.01651154  0.14014440  1  -0.379717  -0.000462  3.676357  -0.001  -0.459117  4e-06  3.914326  0.0  -0.464419  -0.0001  3.91909  0.0  -0.236893  -0.454451  0.00023  3.91203  0.0
N  N60  1  0.50599556  0.62877219  0.63958121  1  -0.35348  -0.034217  3.272019  -0.023  -0.293741  -0.037768  3.546139  -0.023  -0.312028  -0.033341  3.562503  -0.019  -0.315766  -0.280697  -0.043288  3.535596  -0.028
N  N61  1  0.87676412  0.37133535  0.86045040  1  -0.352404  -0.034264  3.268842  -0.023  -0.292375  -0.037875  3.542929  -0.023  -0.310641  -0.033437  3.55925  -0.019  -0.315752  -0.279374  -0.043431  3.532477  -0.028
N  N62  1  0.49273986  0.37212197  0.35946107  1  -0.352934  0.02621  3.263724  0.014  -0.29352  0.028439  3.537723  0.013  -0.311993  0.026511  3.553719  0.011  -0.315613  -0.279894  0.028275  3.527658  0.013
N  N63  1  0.12101495  0.62789155  0.14049013  1  -0.352297  -0.026097  3.263658  -0.014  -0.292088  -0.02861  3.537647  -0.013  -0.310585  -0.026494  3.553729  -0.011  -0.314489  -0.278474  -0.028672  3.527518  -0.013
N  N64  1  0.56273746  0.91999714  0.72746194  1  -0.238826  -0.006357  3.286984  0.003  -0.18627  -0.01151  3.561531  0.0  -0.204205  -0.008566  3.580421  0.003  -0.201135  -0.174146  -0.014485  3.550271  -0.002
N  N65  1  0.64262500  0.08002407  0.77250471  1  -0.236399  -0.006256  3.285989  0.003  -0.185298  -0.01151  3.562096  0.0  -0.203112  -0.008513  3.580932  0.003  -0.200913  -0.173298  -0.014528  3.550846  -0.002
N  N66  1  0.43584090  0.08010851  0.27239139  1  -0.235078  0.025766  3.291853  0.017  -0.182435  0.021031  3.564804  0.01  -0.200698  0.023859  3.583862  0.013  -0.201196  -0.16967  0.016308  3.553196  0.005
N  N67  1  0.35580038  0.91990909  0.22760749  1  -0.235635  -0.025645  3.291042  -0.017  -0.183027  -0.021197  3.564613  -0.01  -0.201289  -0.023829  3.583632  -0.013  -0.201311  -0.17019  -0.016754  3.553082  -0.005
N  N68  1  0.94223900  0.02591855  0.66981928  1  -0.579733  -0.017119  2.755412  0.009  -0.535814  -0.033777  3.065983  0.0  -0.566389  -0.020979  3.071159  0.011  -0.290544  -0.511653  -0.045332  3.060887  -0.01
N  N69  1  0.91658879  0.97445843  0.83019009  1  -0.579621  -0.017194  2.756276  0.009  -0.536399  -0.033864  3.067699  0.0  -0.566978  -0.02114  3.072829  0.011  -0.291002  -0.512227  -0.045404  3.062625  -0.01
N  N70  1  0.05871444  0.97676356  0.33074815  1  -0.577055  -0.00051  2.752271  0.002  -0.533777  -0.001582  3.063251  0.002  -0.564877  8.9e-05  3.068461  0.003  -0.290353  -0.508322  -0.003172  3.058226  0.0
N  N71  1  0.08192229  0.02313166  0.16918805  1  -0.57594  0.000716  2.751157  -0.002  -0.533142  0.001512  3.062511  -0.002  -0.564133  0.00012  3.067575  -0.003  -0.28959  -0.507774  0.002918  3.057594  0.0
N  N72  1  0.88349704  0.04112739  0.60727705  1  0.40084  -0.002354  4.197542  -0.002  0.431996  -0.016856  4.481933  -0.016  0.448652  -0.010621  4.515045  -0.01  0.095617  0.420342  -0.021925  4.457055  -0.02
N  N73  1  0.84264187  0.95921343  0.89273644  1  0.400893  -0.002415  4.200302  -0.002  0.432227  -0.016873  4.484692  -0.016  0.448915  -0.010645  4.517713  -0.01  0.095583  0.420561  -0.021945  4.459851  -0.02
N  N74  1  0.11831888  0.96265648  0.39327759  1  0.401086  -6.4e-05  4.200878  0.0  0.432267  -0.001192  4.48561  -0.001  0.449094  -0.000762  4.518784  -0.001  0.095604  0.420451  -0.00163  4.460295  -0.002
N  N75  1  0.15560807  0.03723613  0.10667177  1  0.401171  1.8e-05  4.199948  0.0  0.43251  0.000934  4.484649  0.001  0.449332  0.000602  4.517804  0.001  0.095063  0.420702  0.001258  4.45935  0.002
N  N76  1  0.82443073  0.05446087  0.54714180  1  -0.387625  -0.080085  2.405501  -0.078  -0.386997  -0.078414  2.639359  -0.07  -0.397836  -0.075333  2.651675  -0.069  -0.180615  -0.376788  -0.084218  2.629464  -0.074
N  N77  1  0.77028990  0.94588111  0.95286082  1  -0.387554  -0.079844  2.407548  -0.078  -0.386895  -0.078341  2.641177  -0.07  -0.397884  -0.075182  2.65369  -0.069  -0.18009  -0.376589  -0.084106  2.631179  -0.074
N  N78  1  0.17777077  0.94992399  0.45343436  1  -0.389998  -0.00876  2.411586  -0.009  -0.388394  -0.00659  2.645675  -0.006  -0.399592  -0.005978  2.658062  -0.005  -0.18061  -0.377681  -0.007819  2.635611  -0.007
N  N79  1  0.22776978  0.04994164  0.04650723  1  -0.390337  0.008875  2.41037  0.009  -0.388854  0.006551  2.644541  0.006  -0.40004  0.00597  2.656898  0.005  -0.180668  -0.378107  0.007643  2.634447  0.007
N  N80  1  0.92895257  0.65540517  0.68602221  1  -0.504228  -0.050565  2.695217  -0.029  -0.482834  -0.062281  2.999301  -0.032  -0.50551  -0.050787  3.003225  -0.022  -0.260601  -0.464151  -0.073998  2.995177  -0.042
N  N81  1  0.27359022  0.34533073  0.81400906  1  -0.50538  -0.050656  2.697784  -0.03  -0.483838  -0.062304  3.001953  -0.032  -0.506496  -0.050825  3.005841  -0.022  -0.260878  -0.465141  -0.074033  2.997805  -0.042
N  N82  1  0.06933916  0.34134192  0.30694730  1  -0.497646  -0.05306  2.714149  -0.073  -0.478265  -0.042972  3.025524  -0.065  -0.501245  -0.052245  3.028464  -0.075  -0.26338  -0.458575  -0.037391  3.022382  -0.059
N  N83  1  0.72809830  0.65819656  0.19293234  1  -0.497095  0.053485  2.713085  0.073  -0.477336  0.043023  3.023963  0.065  -0.500347  0.052691  3.027074  0.075  -0.262596  -0.457641  0.037163  3.020602  0.059
N  N84  1  0.96328862  0.53280107  0.69139736  1  0.415212  -0.01724  4.227243  -0.021  0.45456  -0.030484  4.499252  -0.034  0.47199  -0.024958  4.532953  -0.029  0.105177  0.442504  -0.035824  4.473651  -0.039
N  N85  1  0.43068642  0.46759006  0.80859666  1  0.416332  -0.017192  4.231218  -0.021  0.455469  -0.030422  4.503187  -0.034  0.472913  -0.024909  4.536913  -0.029  0.105119  0.4434  -0.035752  4.47758  -0.039
N  N86  1  0.04450428  0.47066958  0.30643307  1  0.409864  -0.003166  4.214442  -0.004  0.449198  -0.003206  4.487356  -0.004  0.466282  -0.003347  4.522075  -0.004  0.101899  0.437072  -0.003505  4.460201  -0.004
N  N87  1  0.57374213  0.52917858  0.19353692  1  0.408777  0.003324  4.213078  0.004  0.448093  0.003264  4.48616  0.004  0.465163  0.003504  4.520855  0.004  0.101142  0.436097  0.003474  4.458838  0.004
N  N88  1  0.00400508  0.41355030  0.69318603  1  -0.47051  -0.052958  2.684732  -0.035  -0.460887  -0.0649  2.988247  -0.038  -0.481621  -0.054291  2.996221  -0.029  -0.244773  -0.443651  -0.075919  2.98155  -0.048
N  N89  1  0.59082595  0.58653988  0.80677112  1  -0.470589  -0.052841  2.685296  -0.035  -0.460747  -0.064845  2.988664  -0.038  -0.48149  -0.054226  2.99663  -0.029  -0.244308  -0.443491  -0.075861  2.981971  -0.048
N  N90  1  0.01372398  0.59672194  0.30901326  1  -0.464492  0.059909  2.691731  0.076  -0.455892  0.048264  2.998078  0.066  -0.476895  0.058531  3.005518  0.076  -0.244558  -0.437632  0.041468  2.991918  0.059
N  N91  1  0.41671998  0.40343895  0.19102845  1  -0.463817  -0.059291  2.690596  -0.076  -0.455332  -0.048068  2.997254  -0.066  -0.476318  -0.057931  3.004552  -0.076  -0.244369  -0.43716  -0.041568  2.991111  -0.059
