# generated using pymatgen
data_CuH3C5N4
_symmetry_space_group_name_H-M   'P 1'
_cell_length_a   23.76358869
_cell_length_b   24.15086886
_cell_length_c   27.74583595
_cell_angle_alpha   91.95479240
_cell_angle_beta   99.92296121
_cell_angle_gamma   91.93872862
_symmetry_Int_Tables_number   1
_chemical_formula_structural   CuH3C5N4
_chemical_formula_sum   'Cu12 H36 C60 N48'
_cell_volume   15663.55136717
_cell_formula_units_Z   12
loop_
 _symmetry_equiv_pos_site_id
 _symmetry_equiv_pos_as_xyz
  1  'x, y, z'
loop_
 _atom_site_type_symbol
 _atom_site_label
 _atom_site_symmetry_multiplicity
 _atom_site_fract_x
 _atom_site_fract_y
 _atom_site_fract_z
 _atom_site_occupancy
 _atom_site_pbe_bader_charge
 _atom_site_pbe_bader_spin_density
 _atom_site_pbe_cm5_charge
 _atom_site_pbe_ddec_charge
 _atom_site_pbe_ddec_spin_density
 _atom_site_pbe_ddec_sum_bond_order
 _atom_site_pbe_magmom
Cu  Cu0  1  0.14296577  0.82828959  0.08928382  1  0.547702  0  0.500037  0.21708  0  2.143403  0
Cu  Cu1  1  0.09565029  0.75665139  0.16787297  1  0.555526  0  0.490619  0.219021  0  2.063591  0
Cu  Cu2  1  0.13109052  0.89030873  0.18326260  1  0.55592  0  0.49842  0.222097  0  2.101275  0
Cu  Cu3  1  0.68381345  0.18843256  0.43100630  1  0.556473  0  0.495376  0.218868  0  2.085566  0
Cu  Cu4  1  0.59133589  0.24424610  0.35303413  1  0.550536  0  0.498068  0.217194  0  2.117144  0
Cu  Cu5  1  0.67630829  0.16579180  0.31568430  1  0.554008  0  0.499051  0.225759  0  2.095835  0
Cu  Cu6  1  0.36737958  0.31053754  0.94412895  1  0.558739  0  0.492067  0.223388  0  2.042628  0
Cu  Cu7  1  0.45602351  0.27766117  0.87193254  1  0.549418  0  0.49582  0.21326  0  2.127476  0
Cu  Cu8  1  0.39241166  0.38368626  0.85315007  1  0.550338  0  0.497792  0.221949  0  2.10548  0
Cu  Cu9  1  0.78715690  0.66362181  0.55936547  1  0.548238  0  0.497294  0.217396  0  2.11996  0
Cu  Cu10  1  0.91203392  0.65616191  0.61407781  1  0.555751  0  0.49632  0.22129  0  2.088368  0
Cu  Cu11  1  0.80451888  0.59283704  0.65231534  1  0.554118  0  0.492708  0.22038  0  2.066567  0
H  H12  1  0.58440322  0.34475302  0.65113275  1  0.112502  0  0.108186  0.120009  0  1.016274  0
H  H13  1  0.52705996  0.51113887  0.66567993  1  0.1004  0  0.111791  0.125842  0  0.991061  0
H  H14  1  0.60146037  0.46181209  0.53999114  1  0.124228  0  0.109135  0.123811  0  1.005891  0
H  H15  1  0.03120743  0.63761938  0.88058349  1  0.1019  0  0.110514  0.122659  0  1.001554  0
H  H16  1  0.12953744  0.52378293  0.80934453  1  0.114478  0  0.112022  0.123448  0  0.992667  0
H  H17  1  0.17382794  0.55816955  0.96534547  1  0.118167  0  0.108906  0.121104  0  1.015135  0
H  H18  1  0.95624550  0.81818502  0.38998547  1  0.124221  0  0.108254  0.117987  0  1.022943  0
H  H19  1  0.92021605  0.97394365  0.32132692  1  0.071797  0  0.110829  0.120891  0  0.996055  0
H  H20  1  0.83027422  0.92341827  0.43610645  1  0.1035  0  0.108607  0.11676  0  1.01457  0
H  H21  1  0.32834577  0.04140333  0.03022839  1  0.117732  0  0.108643  0.119304  0  1.018446  0
H  H22  1  0.34895410  0.12937448  0.17033168  1  0.100063  0  0.109278  0.121342  0  0.996596  0
H  H23  1  0.47668378  0.15043678  0.07856278  1  0.105442  0  0.108711  0.123825  0  1.005102  0
H  H24  1  0.12759520  0.74398130  0.00064030  1  0.11968  0  0.127796  0.123809  0  0.984781  0
H  H25  1  0.09548963  0.63300840  0.11365233  1  0.116851  0  0.130049  0.128375  0  0.973061  0
H  H26  1  0.20934909  0.00370494  0.17646139  1  0.128301  0  0.130465  0.126093  0  0.980456  0
H  H27  1  0.21620140  0.91470483  0.03890622  1  0.11945  0  0.13172  0.12794  0  0.97083  0
H  H28  1  0.02516282  0.74398417  0.25489868  1  0.103364  0  0.130448  0.12747  0  0.972179  0
H  H29  1  0.06268958  0.92155696  0.26493071  1  0.137954  0  0.127558  0.121781  0  0.988093  0
H  H30  1  0.67209844  0.26029058  0.52837735  1  0.12285  0  0.130375  0.12691  0  0.980134  0
H  H31  1  0.55791940  0.34423698  0.41739575  1  0.108626  0  0.131762  0.12851  0  0.970683  0
H  H32  1  0.77230330  0.07887263  0.31508520  1  0.130147  0  0.128951  0.123466  0  0.984264  0
H  H33  1  0.76366957  0.08918498  0.47020427  1  0.090177  0  0.131131  0.12886  0  0.971377  0
H  H34  1  0.48715725  0.23292683  0.26159760  1  0.121511  0  0.129479  0.125105  0  0.98058  0
H  H35  1  0.62031557  0.14786280  0.20291252  1  0.108227  0  0.131922  0.129111  0  0.970122  0
H  H36  1  0.37300852  0.20111741  0.00821138  1  0.129624  0  0.125971  0.124048  0  0.994461  0
H  H37  1  0.48472782  0.15972114  0.90495587  1  0.100996  0  0.131018  0.125381  0  0.972379  0
H  H38  1  0.29503634  0.46692604  0.84876536  1  0.100989  0  0.127438  0.121452  0  0.986078  0
H  H39  1  0.27257358  0.38582387  0.98177113  1  0.124663  0  0.130819  0.1283  0  0.971866  0
H  H40  1  0.53727014  0.27970031  0.78920193  1  0.141557  0  0.131039  0.128072  0  0.97207  0
H  H41  1  0.45087862  0.43489002  0.76683984  1  0.123166  0  0.12855  0.122851  0  0.986749  0
H  H42  1  0.80207032  0.75661257  0.48433555  1  0.130834  0  0.128154  0.123074  0  0.985345  0
H  H43  1  0.97993478  0.73216955  0.54567556  1  0.074177  0  0.130929  0.128319  0  0.970886  0
H  H44  1  0.67783771  0.53308148  0.64310788  1  0.124323  0  0.127095  0.126031  0  0.986529  0
H  H45  1  0.65452657  0.64555991  0.52294954  1  0.137498  0  0.132291  0.127371  0  0.969373  0
H  H46  1  0.01118371  0.63217788  0.70041924  1  0.109231  0  0.128868  0.124958  0  0.98261  0
H  H47  1  0.86512364  0.57177928  0.76106466  1  0.127918  0  0.130478  0.127442  0  0.970253  0
C  C48  1  0.59553884  0.39955454  0.59320552  1  0.355501  0  0.082214  0.192151  0  4.074711  0
C  C49  1  0.58089123  0.38680887  0.63829106  1  -0.052898  0  -0.082638  -0.216524  0  3.876193  0
C  C50  1  0.55620119  0.42773911  0.66436415  1  0.392217  0  0.082037  0.188083  0  4.077288  0
C  C51  1  0.54871497  0.48087911  0.64613525  1  -0.037469  0  -0.079575  -0.215583  0  3.891817  0
C  C52  1  0.56668070  0.49407390  0.60225217  1  0.255601  0  0.077425  0.175638  0  4.07481  0
C  C53  1  0.59031374  0.45343577  0.57559348  1  -0.026388  0  -0.086737  -0.227977  0  3.888997  0
C  C54  1  0.10121764  0.60077697  0.92733464  1  0.365531  0  0.086461  0.189859  0  4.070249  0
C  C55  1  0.06465962  0.60759980  0.88261554  1  -0.015737  0  -0.076313  -0.208762  0  3.875104  0
C  C56  1  0.07335657  0.57797184  0.84049810  1  0.2922  0  0.08388  0.188227  0  4.090805  0
C  C57  1  0.12020658  0.54407774  0.84259768  1  -0.02153  0  -0.07291  -0.201984  0  3.873447  0
C  C58  1  0.15457607  0.53486859  0.88776328  1  0.364075  0  0.085092  0.18896  0  4.071448  0
C  C59  1  0.14518310  0.56291028  0.93072206  1  -0.003076  0  -0.079042  -0.210115  0  3.847028  0
C  C60  1  0.89337528  0.86782530  0.41763775  1  0.329171  0  0.086413  0.190534  0  4.072297  0
C  C61  1  0.93359171  0.85669908  0.38733756  1  0.002695  0  -0.078609  -0.206893  0  3.85632  0
C  C62  1  0.94260262  0.89522706  0.35246072  1  0.36007  0  0.084115  0.18713  0  4.071674  0
C  C63  1  0.91295057  0.94455851  0.34879508  1  -0.001001  0  -0.071635  -0.198987  0  3.874147  0
C  C64  1  0.87293167  0.95522717  0.37917639  1  0.369176  0  0.082221  0.184911  0  4.080111  0
C  C65  1  0.86241672  0.91628000  0.41318746  1  -0.003692  0  -0.073831  -0.200092  0  3.868477  0
C  C66  1  0.40206905  0.09796984  0.04752022  1  0.311569  0  0.079526  0.181138  0  4.062662  0
C  C67  1  0.35104073  0.07281788  0.05614110  1  -0.07192  0  -0.083415  -0.215631  0  3.884778  0
C  C68  1  0.33147764  0.08471063  0.10009832  1  0.417803  0  0.079539  0.185465  0  4.068242  0
C  C69  1  0.36265627  0.12217938  0.13519283  1  0.043604  0  -0.079998  -0.214375  0  3.889849  0
C  C70  1  0.41545880  0.14440274  0.12753057  1  0.219661  0  0.081364  0.18804  0  4.078747  0
C  C71  1  0.43481114  0.13393934  0.08321373  1  -0.020014  0  -0.087959  -0.230114  0  3.888157  0
C  C72  1  0.11930511  0.72528730  0.03382335  1  0.48713  0  0.019651  -0.059101  0  3.933057  0
C  C73  1  0.10975318  0.66893159  0.04239264  1  0.413356  0  0.066262  0.079802  0  4.123952  0
C  C74  1  0.10415320  0.66789438  0.09203355  1  0.40225  0  0.021854  -0.057117  0  3.910581  0
C  C75  1  0.20415942  0.97498297  0.14497929  1  0.424065  0  0.02706  -0.044892  0  3.894779  0
C  C76  1  0.22771209  0.97787745  0.10162841  1  0.46786  0  0.069552  0.078901  0  4.140742  0
C  C77  1  0.20733433  0.92903374  0.07421870  1  0.448057  0  0.025478  -0.05225  0  3.930113  0
C  C78  1  0.04084734  0.78611179  0.25131040  1  0.473539  0  0.023593  -0.053029  0  3.916201  0
C  C79  1  0.02897310  0.83524787  0.27560056  1  0.415805  0  0.065415  0.079884  0  4.125875  0
C  C80  1  0.05974941  0.87737370  0.25610198  1  0.441049  0  0.021674  -0.053657  0  3.916647  0
C  C81  1  0.64582202  0.27361442  0.49522001  1  0.411684  0  0.024638  -0.050964  0  3.898427  0
C  C82  1  0.61053456  0.31958146  0.48817865  1  0.456996  0  0.067813  0.080431  0  4.134915  0
C  C83  1  0.58762077  0.31687305  0.43791129  1  0.469621  0  0.025955  -0.052099  0  3.926568  0
C  C84  1  0.76412444  0.08962091  0.35142792  1  0.42338  0  0.023459  -0.049011  0  3.906896  0
C  C85  1  0.78443451  0.06517456  0.39623586  1  0.460632  0  0.067798  0.079072  0  4.134107  0
C  C86  1  0.75920157  0.09450381  0.43107227  1  0.475206  0  0.024853  -0.053405  0  3.921747  0
C  C87  1  0.52631154  0.21465767  0.25499042  1  0.42237  0  0.025488  -0.046986  0  3.900634  0
C  C88  1  0.53761505  0.18555352  0.21293020  1  0.474881  0  0.067503  0.077215  0  4.133128  0
C  C89  1  0.59511597  0.17143700  0.22482267  1  0.433254  0  0.025163  -0.04999  0  3.924087  0
C  C90  1  0.39947211  0.19991023  0.98004900  1  0.406838  0  0.02259  -0.050469  0  3.89253  0
C  C91  1  0.43295658  0.15702841  0.96519614  1  0.348015  0  0.057105  0.06196  0  4.085941  0
C  C92  1  0.45674757  0.17952705  0.92677655  1  0.521139  0  0.027012  -0.041923  0  3.938118  0
C  C93  1  0.29737141  0.44074867  0.87996904  1  0.456903  0  0.021449  -0.051365  0  3.919486  0
C  C94  1  0.26441148  0.44152267  0.91759423  1  0.467278  0  0.06575  0.077822  0  4.128931  0
C  C95  1  0.28621698  0.39958566  0.94862771  1  0.382535  0  0.023295  -0.053153  0  3.914795  0
C  C96  1  0.51109507  0.31548071  0.79055035  1  0.39513  0  0.024131  -0.053909  0  3.921536  0
C  C97  1  0.50783886  0.36261483  0.76193903  1  0.461929  0  0.067345  0.079134  0  4.131022  0
C  C98  1  0.46693392  0.39546410  0.77935877  1  0.447482  0  0.025121  -0.048096  0  3.905505  0
C  C99  1  0.84216591  0.74404917  0.50511312  1  0.45673  0  0.022503  -0.053239  0  3.918382  0
C  C100  1  0.89844798  0.76140208  0.50145257  1  0.473809  0  0.066611  0.077963  0  4.130269  0
C  C101  1  0.93364417  0.73095178  0.53610833  1  0.434224  0  0.02521  -0.051007  0  3.915409  0
C  C102  1  0.68203276  0.56235576  0.61502194  1  0.413946  0  0.022509  -0.050144  0  3.894009  0
C  C103  1  0.64018761  0.58262071  0.57774318  1  0.449367  0  0.057802  0.06042  0  4.08833  0
C  C104  1  0.67082579  0.62052334  0.55363417  1  0.424846  0  0.02723  -0.041813  0  3.930489  0
C  C105  1  0.96942332  0.61820096  0.70697106  1  0.42789  0  0.021794  -0.056062  0  3.911969  0
C  C106  1  0.95372327  0.59778006  0.74995664  1  0.399715  0  0.065943  0.07866  0  4.133855  0
C  C107  1  0.89420842  0.58814708  0.73839030  1  0.438601  0  0.023765  -0.05279  0  3.919274  0
N  N108  1  0.10907856  0.72016711  0.11134845  1  -0.766931  0  -0.330595  -0.137919  0  3.727206  0
N  N109  1  0.11954693  0.75537620  0.07526112  1  -0.787636  0  -0.339863  -0.133449  0  3.77246  0
N  N110  1  0.17425645  0.89927917  0.09903592  1  -0.797265  0  -0.340223  -0.138217  0  3.763766  0
N  N111  1  0.17238484  0.92769594  0.14296858  1  -0.777748  0  -0.329762  -0.13225  0  3.738066  0
N  N112  1  0.08758055  0.85479026  0.22270262  1  -0.772878  0  -0.331359  -0.128218  0  3.754183  0
N  N113  1  0.07559908  0.79803274  0.21923566  1  -0.798325  0  -0.332362  -0.142731  0  3.732961  0
N  N114  1  0.60719711  0.27263186  0.41655469  1  -0.786605  0  -0.337869  -0.13883  0  3.757506  0
N  N115  1  0.64380000  0.24608578  0.45205609  1  -0.775619  0  -0.327999  -0.127862  0  3.735253  0
N  N116  1  0.72650760  0.13367833  0.40883967  1  -0.791577  0  -0.33511  -0.1403  0  3.746244  0
N  N117  1  0.72929216  0.13023191  0.35928770  1  -0.786694  0  -0.332335  -0.132637  0  3.741533  0
N  N118  1  0.61651649  0.18996749  0.27069504  1  -0.785296  0  -0.340414  -0.150161  0  3.738712  0
N  N119  1  0.57380709  0.21718783  0.28913903  1  -0.773341  0  -0.331903  -0.128376  0  3.751994  0
N  N120  1  0.43966874  0.23113279  0.91927805  1  -0.811147  0  -0.337988  -0.138657  0  3.764936  0
N  N121  1  0.40362449  0.24381046  0.95206943  1  -0.76152  0  -0.32405  -0.126465  0  3.715259  0
N  N122  1  0.32859844  0.37502700  0.93048689  1  -0.778362  0  -0.331193  -0.141721  0  3.72763  0
N  N123  1  0.33582342  0.40133731  0.88820188  1  -0.77131  0  -0.333  -0.132528  0  3.758772  0
N  N124  1  0.44761517  0.36948105  0.81553308  1  -0.794867  0  -0.332812  -0.130212  0  3.74695  0
N  N125  1  0.47524505  0.32009366  0.82284353  1  -0.764892  0  -0.338986  -0.140729  0  3.753569  0
N  N126  1  0.90069437  0.69827782  0.55914548  1  -0.790394  0  -0.335627  -0.143375  0  3.741211  0
N  N127  1  0.84404263  0.70605115  0.53932873  1  -0.797757  0  -0.3358  -0.130401  0  3.760038  0
N  N128  1  0.72609906  0.62254683  0.57416044  1  -0.784087  0  -0.337438  -0.138836  0  3.762259  0
N  N129  1  0.73301194  0.58724172  0.61287425  1  -0.776513  0  -0.327953  -0.130521  0  3.719929  0
N  N130  1  0.87576247  0.60091210  0.69168802  1  -0.767759  0  -0.33157  -0.139246  0  3.740626  0
N  N131  1  0.92245551  0.62060582  0.67256251  1  -0.765302  0  -0.331843  -0.13001  0  3.741817  0
N  N132  1  0.09487824  0.63918199  0.96521703  1  -0.477792  0  -0.155545  -0.143723  0  3.288514  0
N  N133  1  0.10853455  0.62416029  0.00900071  1  -0.498081  0  -0.153985  -0.120661  0  3.270886  0
N  N134  1  0.61237868  0.35494205  0.56479099  1  -0.476087  0  -0.163899  -0.155691  0  3.210231  0
N  N135  1  0.59663722  0.36104180  0.51919687  1  -0.505841  0  -0.155283  -0.12378  0  3.376546  0
N  N136  1  0.42617759  0.07475578  0.00814402  1  -0.417979  0  -0.147774  -0.117247  0  3.296212  0
N  N137  1  0.44249031  0.10109556  0.97448077  1  -0.425564  0  -0.14978  -0.12359  0  3.401353  0
N  N138  1  0.87809251  0.83059268  0.45178552  1  -0.492971  0  -0.158072  -0.146715  0  3.266764  0
N  N139  1  0.91742375  0.79971807  0.47089363  1  -0.493429  0  -0.155378  -0.122446  0  3.308625  0
N  N140  1  0.28545617  0.05478099  0.11517377  1  -0.483202  0  -0.167262  -0.161204  0  3.224116  0
N  N141  1  0.26687743  0.01369901  0.08628824  1  -0.527025  0  -0.156251  -0.121172  0  3.385467  0
N  N142  1  0.54811308  0.54419079  0.58017599  1  -0.40777  0  -0.147198  -0.117789  0  3.286181  0
N  N143  1  0.58024212  0.58040072  0.56622063  1  -0.483801  0  -0.147894  -0.118868  0  3.380531  0
N  N144  1  0.84248150  0.00418105  0.37096050  1  -0.486679  0  -0.164624  -0.15621  0  3.254165  0
N  N145  1  0.81891541  0.02041937  0.40649266  1  -0.509707  0  -0.155231  -0.122605  0  3.334635  0
N  N146  1  0.19943653  0.49892932  0.88468562  1  -0.476979  0  -0.16164  -0.153228  0  3.28252  0
N  N147  1  0.21903784  0.47459780  0.92360492  1  -0.501401  0  -0.15588  -0.123425  0  3.295329  0
N  N148  1  0.98028507  0.88872459  0.31868954  1  -0.518826  0  -0.162361  -0.153677  0  3.265759  0
N  N149  1  0.99206642  0.83895967  0.30927653  1  -0.491688  0  -0.156061  -0.123458  0  3.306927  0
N  N150  1  0.53174096  0.41882482  0.70649280  1  -0.499366  0  -0.165732  -0.161187  0  3.277786  0
N  N151  1  0.53775099  0.37086147  0.72384010  1  -0.517216  0  -0.158122  -0.124367  0  3.324621  0
N  N152  1  0.03933802  0.58347146  0.79402021  1  -0.483819  0  -0.159939  -0.149993  0  3.25063  0
N  N153  1  0.98657609  0.58861116  0.79525546  1  -0.467264  0  -0.152859  -0.120976  0  3.324364  0
N  N154  1  0.44948074  0.17146573  0.16923138  1  -0.480839  0  -0.165129  -0.158148  0  3.232121  0
N  N155  1  0.50267926  0.16602951  0.17011612  1  -0.508818  0  -0.156801  -0.123476  0  3.353147  0
