# generated using pymatgen
data_ZnSiH16C20S2(N2F3)2
_symmetry_space_group_name_H-M   'P 1'
_cell_length_a   7.70207333
_cell_length_b   10.21838237
_cell_length_c   16.35823203
_cell_angle_alpha   103.31131925
_cell_angle_beta   89.99957490
_cell_angle_gamma   89.99963493
_symmetry_Int_Tables_number   1
_chemical_formula_structural   ZnSiH16C20S2(N2F3)2
_chemical_formula_sum   'Zn2 Si2 H32 C40 S4 N8 F12'
_cell_volume   1252.84846232
_cell_formula_units_Z   2
loop_
 _symmetry_equiv_pos_site_id
 _symmetry_equiv_pos_as_xyz
  1  'x, y, z'
loop_
 _atom_site_type_symbol
 _atom_site_label
 _atom_site_symmetry_multiplicity
 _atom_site_fract_x
 _atom_site_fract_y
 _atom_site_fract_z
 _atom_site_occupancy
 _atom_site_hle17_bader_spin_density
 _atom_site_hle17_ddec_charge
 _atom_site_hle17_ddec_spin_density
 _atom_site_hle17_ddec_sum_bond_order
 _atom_site_hle17_magmom
 _atom_site_hse06_10hf_bader_spin_density
 _atom_site_hse06_10hf_ddec_charge
 _atom_site_hse06_10hf_ddec_spin_density
 _atom_site_hse06_10hf_ddec_sum_bond_order
 _atom_site_hse06_10hf_magmom
 _atom_site_hse06_bader_spin_density
 _atom_site_hse06_ddec_charge
 _atom_site_hse06_ddec_spin_density
 _atom_site_hse06_ddec_sum_bond_order
 _atom_site_hse06_magmom
 _atom_site_pbe_bader_spin_density
 _atom_site_pbe_cm5_charge
 _atom_site_pbe_ddec_charge
 _atom_site_pbe_ddec_spin_density
 _atom_site_pbe_ddec_sum_bond_order
 _atom_site_pbe_magmom
Zn  Zn0  1  0.69745766  0.75000020  0.75000012  1  0  0.979754  0  1.891894  0  0  0.776663  0  2.348238  0  0  0.821241  0  2.300686  0  0  0.708457  0.745403  0  2.381171  0
Zn  Zn1  1  0.30254408  0.25000085  0.25000064  1  0  0.979748  0  1.891875  0  0  0.77666  0  2.348241  0  0  0.821236  0  2.300683  0  0  0.708451  0.745399  0  2.381165  0
Si  Si2  1  0.19982542  0.74999878  0.74999957  1  0  1.985817  0  3.316625  0  0  1.774574  0  3.868541  0  0  1.833873  0  3.780766  0  0  0.260753  1.732479  0  3.930318  0
Si  Si3  1  0.80017632  0.24999922  0.24999771  1  0  1.985907  0  3.316476  0  0  1.774735  0  3.868175  0  0  1.833992  0  3.780747  0  0  0.260817  1.732633  0  3.929969  0
H  H4  1  0.98222179  0.30386459  0.58969884  1  0  0.112319  0  0.938989  0  0  0.12719  0  0.989588  0  0  0.1301  0  0.989176  0  0  0.11252  0.125098  0  0.990081  0
H  H5  1  0.98222490  0.19613475  0.91029807  1  0  0.11231  0  0.938886  0  0  0.12712  0  0.989555  0  0  0.130025  0  0.989146  0  0  0.112478  0.125029  0  0.990046  0
H  H6  1  0.01777346  0.69613647  0.41030253  1  0  0.112318  0  0.93898  0  0  0.127171  0  0.989599  0  0  0.13008  0  0.989188  0  0  0.112493  0.125081  0  0.990091  0
H  H7  1  0.01777555  0.80386530  0.08970316  1  0  0.112335  0  0.938915  0  0  0.127168  0  0.989557  0  0  0.130078  0  0.989146  0  0  0.112487  0.12508  0  0.990048  0
H  H8  1  0.44821658  0.34907608  0.52070231  1  0  0.110559  0  0.95193  0  0  0.119662  0  1.012536  0  0  0.122318  0  1.013031  0  0  0.10757  0.117719  0  1.012686  0
H  H9  1  0.44821898  0.15092574  0.97929987  1  0  0.11063  0  0.952033  0  0  0.119737  0  1.012609  0  0  0.122391  0  1.013108  0  0  0.107622  0.117797  0  1.012756  0
H  H10  1  0.55177737  0.65092197  0.47929925  1  0  0.110507  0  0.952054  0  0  0.119595  0  1.012675  0  0  0.122249  0  1.013171  0  0  0.107562  0.117655  0  1.012821  0
H  H11  1  0.55177757  0.84907729  0.02069750  1  0  0.110679  0  0.951982  0  0  0.119762  0  1.012586  0  0  0.122415  0  1.013084  0  0  0.107632  0.117819  0  1.012731  0
H  H12  1  0.45018314  0.57700600  0.61959534  1  0  0.103832  0  0.957342  0  0  0.10717  0  1.025838  0  0  0.110897  0  1.02168  0  0  0.117514  0.104181  0  1.029305  0
H  H13  1  0.45017703  0.92299799  0.88040444  1  0  0.103806  0  0.957304  0  0  0.107141  0  1.025799  0  0  0.110867  0  1.021642  0  0  0.117509  0.104158  0  1.029259  0
H  H14  1  0.54981210  0.42299404  0.38040467  1  0  0.103847  0  0.957347  0  0  0.107182  0  1.025846  0  0  0.11087  0  1.021731  0  0  0.117505  0.104197  0  1.029306  0
H  H15  1  0.54981951  0.07700304  0.11959387  1  0  0.103832  0  0.957324  0  0  0.107154  0  1.025834  0  0  0.11088  0  1.021674  0  0  0.117512  0.104166  0  1.029292  0
H  H16  1  0.96487410  0.53173497  0.68488688  1  0  0.105557  0  0.971904  0  0  0.11001  0  1.038259  0  0  0.113769  0  1.033479  0  0  0.116894  0.107191  0  1.041917  0
H  H17  1  0.96486864  0.96826470  0.81511110  1  0  0.105639  0  0.972037  0  0  0.11009  0  1.03838  0  0  0.113846  0  1.033601  0  0  0.116937  0.10727  0  1.042038  0
H  H18  1  0.03512245  0.46826708  0.31511280  1  0  0.105531  0  0.971958  0  0  0.109975  0  1.038311  0  0  0.113732  0  1.03353  0  0  0.116876  0.107156  0  1.041968  0
H  H19  1  0.03513180  0.03173337  0.18489169  1  0  0.105603  0  0.972113  0  0  0.110051  0  1.038442  0  0  0.113804  0  1.033661  0  0  0.1169  0.107233  0  1.042103  0
H  H20  1  0.52081769  0.16348121  0.63458883  1  0  0.112279  0  0.941056  0  0  0.125289  0  0.993693  0  0  0.128186  0  0.993798  0  0  0.107472  0.123222  0  0.993811  0
H  H21  1  0.52081514  0.33651512  0.86541294  1  0  0.112233  0  0.940791  0  0  0.125185  0  0.993536  0  0  0.12808  0  0.993647  0  0  0.107443  0.123118  0  0.993651  0
H  H22  1  0.47918924  0.83651985  0.36541254  1  0  0.112262  0  0.941035  0  0  0.125259  0  0.993693  0  0  0.128155  0  0.9938  0  0  0.107465  0.123192  0  0.993814  0
H  H23  1  0.47919180  0.66348493  0.13458829  1  0  0.112179  0  0.940809  0  0  0.125113  0  0.993586  0  0  0.128007  0  0.993699  0  0  0.10743  0.123047  0  0.993703  0
H  H24  1  0.89893865  0.90218960  0.48292193  1  0  0.099922  0  0.977668  0  0  0.107566  0  1.043593  0  0  0.110849  0  1.042649  0  0  0.100516  0.105291  0  1.0444  0
H  H25  1  0.89894361  0.59781045  0.01707616  1  0  0.099947  0  0.977749  0  0  0.107585  0  1.043678  0  0  0.110867  0  1.042732  0  0  0.100534  0.105316  0  1.04448  0
H  H26  1  0.10105660  0.09780639  0.51707507  1  0  0.099929  0  0.977622  0  0  0.107576  0  1.043545  0  0  0.110859  0  1.042598  0  0  0.100506  0.105301  0  1.04435  0
H  H27  1  0.10105942  0.40219262  0.98292550  1  0  0.099931  0  0.977616  0  0  0.107572  0  1.043547  0  0  0.110856  0  1.042602  0  0  0.100514  0.105307  0  1.044346  0
H  H28  1  0.88176385  0.75614477  0.58563195  1  0  0.091062  0  0.93145  0  0  0.095669  0  0.999982  0  0  0.09864  0  0.996822  0  0  0.119275  0.093728  0  1.001632  0
H  H29  1  0.88177039  0.74385644  0.91436654  1  0  0.091072  0  0.931355  0  0  0.095669  0  0.999901  0  0  0.098639  0  0.996744  0  0  0.119277  0.093728  0  1.001552  0
H  H30  1  0.11823529  0.24385326  0.41436717  1  0  0.091055  0  0.931476  0  0  0.095673  0  0.999999  0  0  0.098644  0  0.99684  0  0  0.119267  0.093732  0  1.00165  0
H  H31  1  0.11823005  0.25614562  0.08563436  1  0  0.090998  0  0.931405  0  0  0.09562  0  0.999916  0  0  0.098591  0  0.996757  0  0  0.119259  0.093681  0  1.001569  0
H  H32  1  0.50144597  0.99726672  0.72374368  1  0  0.092567  0  0.938367  0  0  0.100187  0  1.001587  0  0  0.102909  0  0.998556  0  0  0.118846  0.098313  0  1.003645  0
H  H33  1  0.50145283  0.50273394  0.77625789  1  0  0.092572  0  0.938393  0  0  0.10019  0  1.001626  0  0  0.102915  0  0.998586  0  0  0.118839  0.098314  0  1.003684  0
H  H34  1  0.49855706  0.00273332  0.27625694  1  0  0.092525  0  0.938392  0  0  0.100148  0  1.001614  0  0  0.102869  0  0.998582  0  0  0.118833  0.098273  0  1.003674  0
H  H35  1  0.49855281  0.49726612  0.22374395  1  0  0.092551  0  0.938323  0  0  0.100164  0  1.001559  0  0  0.102885  0  0.998526  0  0  0.118823  0.098287  0  1.003617  0
C  C36  1  0.71575100  0.30867234  0.54725804  1  0  0.092751  0  3.764361  0  0  0.108814  0  4.020653  0  0  0.113473  0  4.042875  0  0  0.015384  0.105447  0  4.005931  0
C  C37  1  0.71576386  0.19132972  0.95273957  1  0  0.092834  0  3.76419  0  0  0.108839  0  4.02055  0  0  0.113502  0  4.042768  0  0  0.015345  0.105449  0  4.005859  0
C  C38  1  0.28424295  0.69132771  0.45274319  1  0  0.092774  0  3.764267  0  0  0.108829  0  4.020566  0  0  0.11349  0  4.042785  0  0  0.015382  0.10546  0  4.005854  0
C  C39  1  0.28423528  0.80867233  0.04726010  1  0  0.092806  0  3.764226  0  0  0.108821  0  4.020569  0  0  0.113481  0  4.042789  0  0  0.015321  0.105448  0  4.005854  0
C  C40  1  0.86202271  0.36110549  0.59415693  1  0  -0.148078  0  3.711256  0  0  -0.165807  0  3.951044  0  0  -0.173596  0  3.973065  0  0  -0.078717  -0.160213  0  3.936111  0
C  C41  1  0.86201209  0.13889666  0.90584262  1  0  -0.14813  0  3.71168  0  0  -0.165774  0  3.951503  0  0  -0.17356  0  3.973522  0  0  -0.078699  -0.160171  0  3.936572  0
C  C42  1  0.13797254  0.63889457  0.40584491  1  0  -0.14805  0  3.711215  0  0  -0.165773  0  3.950998  0  0  -0.173558  0  3.973014  0  0  -0.078641  -0.16018  0  3.936071  0
C  C43  1  0.13798446  0.86110338  0.09415738  1  0  -0.148112  0  3.711597  0  0  -0.165798  0  3.951398  0  0  -0.173585  0  3.973416  0  0  -0.078713  -0.160205  0  3.93647  0
C  C44  1  0.56506261  0.38655678  0.55582331  1  0  -0.154769  0  3.720007  0  0  -0.171949  0  3.965015  0  0  -0.179651  0  3.986895  0  0  -0.080685  -0.167708  0  3.950823  0
C  C45  1  0.56505159  0.11344327  0.94417760  1  0  -0.154848  0  3.719527  0  0  -0.172022  0  3.964547  0  0  -0.179726  0  3.986425  0  0  -0.080699  -0.167781  0  3.950375  0
C  C46  1  0.43493264  0.61344127  0.44417825  1  0  -0.154714  0  3.72009  0  0  -0.171888  0  3.965109  0  0  -0.179586  0  3.986977  0  0  -0.080698  -0.167648  0  3.950919  0
C  C47  1  0.43494366  0.88655775  0.05582071  1  0  -0.154957  0  3.719612  0  0  -0.172106  0  3.964642  0  0  -0.179806  0  3.986517  0  0  -0.080746  -0.167865  0  3.950454  0
C  C48  1  0.56612759  0.51369606  0.61023036  1  0  0.12799  0  3.671405  0  0  0.099327  0  3.922454  0  0  0.105832  0  3.939666  0  0  0.052031  0.095512  0  3.911216  0
C  C49  1  0.56613378  0.98630818  0.88976782  1  0  0.128058  0  3.671846  0  0  0.099402  0  3.922863  0  0  0.105905  0  3.940078  0  0  0.05206  0.095581  0  3.911619  0
C  C50  1  0.43386636  0.48630399  0.38977026  1  0  0.127967  0  3.671479  0  0  0.099312  0  3.922514  0  0  0.105845  0  3.939737  0  0  0.052077  0.095491  0  3.911273  0
C  C51  1  0.43386666  0.01369487  0.11023138  1  0  0.128047  0  3.671731  0  0  0.099404  0  3.922761  0  0  0.10591  0  3.939971  0  0  0.052076  0.095591  0  3.911509  0
C  C52  1  0.85329553  0.48833248  0.64727597  1  0  0.141898  0  3.659281  0  0  0.111809  0  3.906786  0  0  0.118683  0  3.923895  0  0  0.054379  0.107269  0  3.894695  0
C  C53  1  0.85330500  0.01166768  0.85272028  1  0  0.141819  0  3.658938  0  0  0.111705  0  3.906438  0  0  0.118585  0  3.923536  0  0  0.054322  0.107166  0  3.894345  0
C  C54  1  0.14669842  0.51166858  0.35272540  1  0  0.141876  0  3.659312  0  0  0.111825  0  3.90677  0  0  0.118704  0  3.923873  0  0  0.054347  0.107287  0  3.894677  0
C  C55  1  0.14669675  0.98833238  0.14728156  1  0  0.141813  0  3.659076  0  0  0.111751  0  3.906555  0  0  0.118637  0  3.923647  0  0  0.054388  0.107206  0  3.894472  0
C  C56  1  0.71170641  0.04601186  0.55032402  1  0  0.078202  0  3.79347  0  0  0.092466  0  4.053941  0  0  0.098646  0  4.075457  0  0  0.005552  0.088017  0  4.039731  0
C  C57  1  0.71170803  0.45398321  0.94967507  1  0  0.078318  0  3.793264  0  0  0.092576  0  4.053725  0  0  0.098759  0  4.075237  0  0  0.005664  0.088132  0  4.039504  0
C  C58  1  0.28829533  0.95398617  0.44967570  1  0  0.07832  0  3.793365  0  0  0.092553  0  4.053873  0  0  0.098733  0  4.075391  0  0  0.005601  0.088111  0  4.039653  0
C  C59  1  0.28829760  0.54601685  0.05032677  1  0  0.078247  0  3.793248  0  0  0.092513  0  4.0537  0  0  0.098694  0  4.075214  0  0  0.005616  0.088061  0  4.039496  0
C  C60  1  0.60202748  0.07377986  0.62069671  1  0  -0.17514  0  3.753152  0  0  -0.193043  0  4.003843  0  0  -0.201475  0  4.025184  0  0  -0.093767  -0.187018  0  3.989306  0
C  C61  1  0.60203823  0.42623001  0.87930545  1  0  -0.175188  0  3.753361  0  0  -0.193046  0  4.00412  0  0  -0.201481  0  4.02547  0  0  -0.093794  -0.187016  0  3.989567  0
C  C62  1  0.39797556  0.92622119  0.37930405  1  0  -0.175203  0  3.753183  0  0  -0.193089  0  4.003906  0  0  -0.201521  0  4.025249  0  0  -0.09379  -0.187063  0  3.98937  0
C  C63  1  0.39797000  0.57377106  0.12069653  1  0  -0.17501  0  3.753183  0  0  -0.192852  0  4.003932  0  0  -0.201285  0  4.025282  0  0  -0.093746  -0.186824  0  3.989387  0
C  C64  1  0.80892990  0.92673597  0.53556605  1  0  -0.182608  0  3.758354  0  0  -0.200257  0  4.011198  0  0  -0.208851  0  4.032022  0  0  -0.09512  -0.195386  0  3.997914  0
C  C65  1  0.80893448  0.57326672  0.96443351  1  0  -0.18269  0  3.758261  0  0  -0.200335  0  4.011139  0  0  -0.208928  0  4.03196  0  0  -0.095183  -0.195474  0  3.997853  0
C  C66  1  0.19106795  0.07326105  0.46443292  1  0  -0.182693  0  3.758311  0  0  -0.20034  0  4.011191  0  0  -0.208932  0  4.03201  0  0  -0.095148  -0.195473  0  3.997905  0
C  C67  1  0.19106856  0.42673535  0.03556861  1  0  -0.182752  0  3.758249  0  0  -0.200414  0  4.011132  0  0  -0.20901  0  4.031955  0  0  -0.095212  -0.195548  0  3.997844  0
C  C68  1  0.79824826  0.84424040  0.59207605  1  0  0.144323  0  3.703205  0  0  0.111091  0  3.962668  0  0  0.120029  0  3.978156  0  0  0.051822  0.105198  0  3.952319  0
C  C69  1  0.79825045  0.65575734  0.90792408  1  0  0.144261  0  3.703331  0  0  0.11104  0  3.962798  0  0  0.11997  0  3.978285  0  0  0.051789  0.105149  0  3.952452  0
C  C70  1  0.20175088  0.15575661  0.40792292  1  0  0.144327  0  3.703303  0  0  0.111084  0  3.962768  0  0  0.120023  0  3.978255  0  0  0.051831  0.105193  0  3.952419  0
C  C71  1  0.20175129  0.34424473  0.09207804  1  0  0.144401  0  3.703402  0  0  0.11118  0  3.962867  0  0  0.12011  0  3.978351  0  0  0.051854  0.105283  0  3.952526  0
C  C72  1  0.59329314  0.98271787  0.67170692  1  0  0.14404  0  3.705064  0  0  0.109969  0  3.962573  0  0  0.118515  0  3.979119  0  0  0.050271  0.104184  0  3.951068  0
C  C73  1  0.59329386  0.51727619  0.82829525  1  0  0.144126  0  3.705147  0  0  0.110051  0  3.962606  0  0  0.11859  0  3.97915  0  0  0.05031  0.104271  0  3.951094  0
C  C74  1  0.40670989  0.01728116  0.32829295  1  0  0.144125  0  3.705066  0  0  0.110052  0  3.962573  0  0  0.1186  0  3.979116  0  0  0.050294  0.104263  0  3.951073  0
C  C75  1  0.40670788  0.48272387  0.17170599  1  0  0.14406  0  3.705051  0  0  0.110004  0  3.96254  0  0  0.118544  0  3.979078  0  0  0.050298  0.104228  0  3.951025  0
S  S76  1  0.72785936  0.14779515  0.47701122  1  0  0.063624  0  2.414598  0  0  0.053119  0  2.742115  0  0  0.050417  0  2.742503  0  0  0.070625  0.056102  0  2.741915  0
S  S77  1  0.72786339  0.35220281  0.02298927  1  0  0.063555  0  2.414559  0  0  0.053079  0  2.74209  0  0  0.050375  0  2.742476  0  0  0.070603  0.056069  0  2.7419  0
S  S78  1  0.27213979  0.85220489  0.52298940  1  0  0.063555  0  2.414614  0  0  0.053072  0  2.742138  0  0  0.050369  0  2.742528  0  0  0.070595  0.056058  0  2.741934  0
S  S79  1  0.27213965  0.64779624  0.97701243  1  0  0.063606  0  2.414508  0  0  0.053132  0  2.742016  0  0  0.05043  0  2.742404  0  0  0.070638  0.056122  0  2.74182  0
N  N80  1  0.70791872  0.56378935  0.65475158  1  0  -0.326056  0  3.270589  0  0  -0.249663  0  3.538235  0  0  -0.268079  0  3.556317  0  0  -0.318616  -0.237431  0  3.525811  0
N  N81  1  0.70790137  0.93621200  0.84524998  1  0  -0.326072  0  3.270665  0  0  -0.249635  0  3.538236  0  0  -0.26805  0  3.556316  0  0  -0.318577  -0.237396  0  3.525807  0
N  N82  1  0.29207783  0.43621171  0.34524918  1  0  -0.326013  0  3.270537  0  0  -0.249644  0  3.538179  0  0  -0.268056  0  3.556245  0  0  -0.318615  -0.237407  0  3.52575  0
N  N83  1  0.29209388  0.06378805  0.15475125  1  0  -0.326007  0  3.27062  0  0  -0.249636  0  3.538262  0  0  -0.268051  0  3.556338  0  0  -0.318567  -0.237398  0  3.525832  0
N  N84  1  0.69174513  0.87071831  0.65898606  1  0  -0.32934  0  3.274504  0  0  -0.253282  0  3.54597  0  0  -0.271945  0  3.562219  0  0  -0.325609  -0.240499  0  3.535342  0
N  N85  1  0.69175379  0.62928415  0.84101510  1  0  -0.329332  0  3.274327  0  0  -0.253267  0  3.545788  0  0  -0.271902  0  3.562006  0  0  -0.325597  -0.240489  0  3.535165  0
N  N86  1  0.30825661  0.12928073  0.34101441  1  0  -0.329309  0  3.274496  0  0  -0.253245  0  3.545959  0  0  -0.271907  0  3.562208  0  0  -0.325581  -0.240458  0  3.535326  0
N  N87  1  0.30824795  0.37071792  0.15898642  1  0  -0.329314  0  3.274344  0  0  -0.253275  0  3.54582  0  0  -0.271905  0  3.56203  0  0  -0.325586  -0.240496  0  3.535197  0
F  F88  1  0.42646699  0.75000108  0.75000072  1  0  -0.584839  0  1.108207  0  0  -0.512582  0  1.333465  0  0  -0.529991  0  1.306879  0  0  -0.204027  -0.500064  0  1.352006  0
F  F89  1  0.57353345  0.24999591  0.24999519  1  0  -0.584855  0  1.108232  0  0  -0.512582  0  1.333465  0  0  -0.529986  0  1.306891  0  0  -0.204056  -0.500065  0  1.352007  0
F  F90  1  0.97229794  0.74999829  0.74999815  1  0  -0.585975  0  1.106027  0  0  -0.513464  0  1.326311  0  0  -0.531653  0  1.301065  0  0  -0.201023  -0.500133  0  1.34339  0
F  F91  1  0.02770250  0.24999972  0.24999974  1  0  -0.585978  0  1.106021  0  0  -0.513482  0  1.326293  0  0  -0.531669  0  1.301068  0  0  -0.201018  -0.50015  0  1.343372  0
F  F92  1  0.19953142  0.91044734  0.73695256  1  0  -0.600133  0  0.897006  0  0  -0.557638  0  1.073509  0  0  -0.570918  0  1.048948  0  0  -0.249969  -0.547877  0  1.090564  0
F  F93  1  0.19953127  0.58955022  0.76304658  1  0  -0.600124  0  0.897017  0  0  -0.557624  0  1.073517  0  0  -0.570905  0  1.048957  0  0  -0.249943  -0.547862  0  1.090573  0
F  F94  1  0.80046902  0.08955169  0.26304669  1  0  -0.600126  0  0.896974  0  0  -0.557648  0  1.073465  0  0  -0.570929  0  1.048928  0  0  -0.24996  -0.547884  0  1.090522  0
F  F95  1  0.80046788  0.41044574  0.23694796  1  0  -0.600138  0  0.897013  0  0  -0.557656  0  1.073504  0  0  -0.570939  0  1.048968  0  0  -0.249952  -0.547891  0  1.09056  0
F  F96  1  0.19964645  0.81155771  0.85665769  1  0  -0.602163  0  0.934621  0  0  -0.550282  0  1.118698  0  0  -0.565474  0  1.095585  0  0  -0.240285  -0.539182  0  1.134761  0
F  F97  1  0.19965254  0.68843784  0.64334117  1  0  -0.602197  0  0.934609  0  0  -0.550323  0  1.118687  0  0  -0.565517  0  1.095578  0  0  -0.240303  -0.539221  0  1.134749  0
F  F98  1  0.80035659  0.18843628  0.14333963  1  0  -0.602216  0  0.934584  0  0  -0.550353  0  1.118657  0  0  -0.565533  0  1.095553  0  0  -0.240336  -0.539244  0  1.134715  0
F  F99  1  0.80034660  0.31156217  0.35665578  1  0  -0.602207  0  0.934672  0  0  -0.550325  0  1.118734  0  0  -0.565505  0  1.095631  0  0  -0.240283  -0.539224  0  1.134798  0
