# generated using pymatgen
data_CdH8C8(NO)6
_symmetry_space_group_name_H-M   'P 1'
_cell_length_a   7.02822029
_cell_length_b   10.80377274
_cell_length_c   15.80600000
_cell_angle_alpha   90.00000000
_cell_angle_beta   90.00000000
_cell_angle_gamma   90.00000000
_symmetry_Int_Tables_number   1
_chemical_formula_structural   CdH8C8(NO)6
_chemical_formula_sum   'Cd4 H32 C32 N24 O24'
_cell_volume   1200.17004511
_cell_formula_units_Z   4
loop_
 _symmetry_equiv_pos_site_id
 _symmetry_equiv_pos_as_xyz
  1  'x, y, z'
loop_
 _atom_site_type_symbol
 _atom_site_label
 _atom_site_symmetry_multiplicity
 _atom_site_fract_x
 _atom_site_fract_y
 _atom_site_fract_z
 _atom_site_occupancy
 _atom_site_hle17_bader_spin_density
 _atom_site_hle17_ddec_charge
 _atom_site_hle17_ddec_spin_density
 _atom_site_hle17_ddec_sum_bond_order
 _atom_site_hle17_magmom
 _atom_site_hse06_10hf_bader_spin_density
 _atom_site_hse06_10hf_ddec_charge
 _atom_site_hse06_10hf_ddec_spin_density
 _atom_site_hse06_10hf_ddec_sum_bond_order
 _atom_site_hse06_10hf_magmom
 _atom_site_hse06_bader_spin_density
 _atom_site_hse06_ddec_charge
 _atom_site_hse06_ddec_spin_density
 _atom_site_hse06_ddec_sum_bond_order
 _atom_site_hse06_magmom
 _atom_site_pbe_bader_charge
 _atom_site_pbe_bader_spin_density
 _atom_site_pbe_cm5_charge
 _atom_site_pbe_ddec_charge
 _atom_site_pbe_ddec_spin_density
 _atom_site_pbe_ddec_sum_bond_order
 _atom_site_pbe_magmom
Cd  Cd0  1  0.48474007  0.66558971  0.24921549  1  0  1.031538  0  1.717588  0  0  0.8142  0  2.164253  0  0  0.870202  0  2.120007  0  1.257812  0  0.782834  0.772841  0  2.195497  0
Cd  Cd1  1  0.51526131  0.16559030  0.75078325  1  0  1.031522  0  1.717576  0  0  0.81419  0  2.164233  0  0  0.870188  0  2.119986  0  1.257872  0  0.782838  0.772836  0  2.195477  0
Cd  Cd2  1  0.98473863  0.66559064  0.75078325  1  0  1.03158  0  1.717544  0  0  0.814227  0  2.164231  0  0  0.870224  0  2.119984  0  1.257865  0  0.782848  0.772871  0  2.195477  0
Cd  Cd3  1  0.01525991  0.16558938  0.24921549  1  0  1.031548  0  1.717565  0  0  0.814206  0  2.164234  0  0  0.870207  0  2.119988  0  1.257809  0  0.782828  0.772845  0  2.195477  0
H  H4  1  0.53275934  0.53306471  0.44099140  1  0  0.095312  0  0.946571  0  0  0.100504  0  1.014643  0  0  0.103776  0  1.0102  0  0.152608  0  0.121805  0.098095  0  1.017953  0
H  H5  1  0.46723920  0.03306438  0.55900544  1  0  0.09533  0  0.946517  0  0  0.10052  0  1.014592  0  0  0.103792  0  1.010149  0  0.152487  0  0.121787  0.098112  0  1.017899  0
H  H6  1  0.03276078  0.53306471  0.55900544  1  0  0.095327  0  0.946515  0  0  0.100505  0  1.014604  0  0  0.103776  0  1.010162  0  0.1525  0  0.121775  0.098096  0  1.017912  0
H  H7  1  0.96724060  0.03306438  0.44099203  1  0  0.09533  0  0.94655  0  0  0.100498  0  1.014645  0  0  0.10377  0  1.010201  0  0.152547  0  0.121798  0.098089  0  1.017953  0
H  H8  1  0.39701089  0.34847642  0.52141022  1  0  0.126579  0  0.959433  0  0  0.132975  0  1.022563  0  0  0.136421  0  1.022404  0  0.128481  0  0.112388  0.130533  0  1.022843  0
H  H9  1  0.60298765  0.84847583  0.47858725  1  0  0.126554  0  0.959355  0  0  0.132973  0  1.022481  0  0  0.136419  0  1.022322  0  0.128413  0  0.112376  0.13053  0  1.022761  0
H  H10  1  0.89701229  0.34847642  0.47858725  1  0  0.126567  0  0.959364  0  0  0.132978  0  1.022486  0  0  0.136424  0  1.022326  0  0.128424  0  0.112377  0.130535  0  1.022765  0
H  H11  1  0.10298909  0.84847675  0.52141022  1  0  0.126574  0  0.959434  0  0  0.132971  0  1.022563  0  0  0.136417  0  1.022404  0  0.12848  0  0.112391  0.130528  0  1.022843  0
H  H12  1  0.18069439  0.20614003  0.44186258  1  0  0.088232  0  0.938182  0  0  0.093667  0  1.008684  0  0  0.096614  0  1.004383  0  0.139142  0  0.122615  0.091388  0  1.012034  0
H  H13  1  0.81930414  0.70613944  0.55813615  1  0  0.088212  0  0.938178  0  0  0.09364  0  1.008683  0  0  0.096587  0  1.00438  0  0.138571  0  0.122599  0.091361  0  1.012033  0
H  H14  1  0.68069580  0.20613910  0.55813615  1  0  0.088238  0  0.938221  0  0  0.093668  0  1.008731  0  0  0.096617  0  1.004425  0  0.138567  0  0.122611  0.091389  0  1.012081  0
H  H15  1  0.31930559  0.70613944  0.44186195  1  0  0.088215  0  0.938191  0  0  0.093652  0  1.008683  0  0  0.096598  0  1.004383  0  0.139136  0  0.122608  0.091373  0  1.012033  0
H  H16  1  0.19793347  0.44292675  0.23396242  1  0  0.084651  0  0.952628  0  0  0.087269  0  1.023777  0  0  0.089852  0  1.019697  0  0.167317  0  0.131377  0.08527  0  1.026846  0
H  H17  1  0.80206507  0.94292894  0.76603505  1  0  0.084629  0  0.952604  0  0  0.087225  0  1.023793  0  0  0.089805  0  1.019711  0  0.167372  0  0.131346  0.085226  0  1.026861  0
H  H18  1  0.69793487  0.44292861  0.76603505  1  0  0.084558  0  0.952641  0  0  0.087158  0  1.023828  0  0  0.089738  0  1.019746  0  0.167378  0  0.131316  0.085159  0  1.026896  0
H  H19  1  0.30206794  0.94292709  0.23396242  1  0  0.08465  0  0.952624  0  0  0.087268  0  1.023773  0  0  0.089851  0  1.019694  0  0.167315  0  0.131376  0.085269  0  1.026842  0
H  H20  1  0.53254591  0.76962837  0.05668923  1  0  0.079327  0  0.960593  0  0  0.084539  0  1.03119  0  0  0.086763  0  1.028675  0  0.143663  0  0.119628  0.082829  0  1.033262  0
H  H21  1  0.46744978  0.26962896  0.94331077  1  0  0.079321  0  0.960535  0  0  0.084535  0  1.031145  0  0  0.086751  0  1.028637  0  0.143734  0  0.119603  0.082826  0  1.033219  0
H  H22  1  0.03255020  0.76962837  0.94331077  1  0  0.079319  0  0.960524  0  0  0.084542  0  1.031121  0  0  0.086755  0  1.028623  0  0.143732  0  0.119605  0.082831  0  1.033197  0
H  H23  1  0.96745402  0.26962803  0.05668923  1  0  0.079291  0  0.960574  0  0  0.08451  0  1.031183  0  0  0.086731  0  1.028673  0  0.143719  0  0.119612  0.082801  0  1.033258  0
H  H24  1  0.72458884  0.92736308  0.97625395  1  0  0.133453  0  0.96212  0  0  0.135517  0  1.030628  0  0  0.139393  0  1.029567  0  0.171177  0  0.115027  0.132629  0  1.031802  0
H  H25  1  0.27540827  0.42736367  0.02374478  1  0  0.133446  0  0.962056  0  0  0.135526  0  1.030566  0  0  0.139401  0  1.029502  0  0.171201  0  0.115024  0.132637  0  1.031741  0
H  H26  1  0.22459171  0.92736401  0.02374478  1  0  0.133448  0  0.962056  0  0  0.135527  0  1.030567  0  0  0.139402  0  1.029504  0  0.171201  0  0.115024  0.132637  0  1.031743  0
H  H27  1  0.77541110  0.42736182  0.97625459  1  0  0.133457  0  0.962139  0  0  0.135521  0  1.030646  0  0  0.139397  0  1.029585  0  0.171184  0  0.11503  0.132633  0  1.031819  0
H  H28  1  0.92505211  0.07394361  0.06107870  1  0  0.077543  0  0.970198  0  0  0.082367  0  1.04127  0  0  0.084515  0  1.038353  0  0.129483  0  0.118659  0.080709  0  1.04361  0
H  H29  1  0.07494500  0.57394488  0.93891940  1  0  0.077563  0  0.970241  0  0  0.082394  0  1.04129  0  0  0.084543  0  1.03837  0  0.129426  0  0.118663  0.080733  0  1.043636  0
H  H30  1  0.42505355  0.07394454  0.93891940  1  0  0.077583  0  0.970212  0  0  0.082408  0  1.041265  0  0  0.084557  0  1.038346  0  0.12944  0  0.118662  0.080746  0  1.043615  0
H  H31  1  0.57494925  0.57394395  0.06107870  1  0  0.077533  0  0.97019  0  0  0.082362  0  1.041265  0  0  0.084511  0  1.038347  0  0.129486  0  0.118659  0.0807  0  1.043615  0
H  H32  1  0.75023118  0.90222094  0.28352461  1  0  0.066843  0  0.922841  0  0  0.073093  0  0.991289  0  0  0.074769  0  0.988864  0  0.11049  0  0.127774  0.071822  0  0.993017  0
H  H33  1  0.24976736  0.40222153  0.71647412  1  0  0.066834  0  0.922862  0  0  0.073083  0  0.991306  0  0  0.074756  0  0.988877  0  0.11059  0  0.127787  0.071813  0  0.993033  0
H  H34  1  0.25023120  0.90222094  0.71647412  1  0  0.066849  0  0.922859  0  0  0.073093  0  0.991301  0  0  0.074766  0  0.988871  0  0.110589  0  0.127785  0.071822  0  0.993028  0
H  H35  1  0.74976734  0.40222060  0.28352461  1  0  0.066867  0  0.922817  0  0  0.073119  0  0.991263  0  0  0.074796  0  0.988837  0  0.11049  0  0.127787  0.071848  0  0.99299  0
C  C36  1  0.42860068  0.47044029  0.41310262  1  0  0.190744  0  3.63608  0  0  0.153634  0  3.888723  0  0  0.165812  0  3.90336  0  0.487696  0  0.07116  0.145589  0  3.879052  0
C  C37  1  0.57139643  0.97044155  0.58689485  1  0  0.190623  0  3.636144  0  0  0.153521  0  3.888791  0  0  0.165696  0  3.903427  0  0.487852  0  0.071126  0.145476  0  3.879121  0
C  C38  1  0.92860208  0.47044122  0.58689485  1  0  0.190659  0  3.636116  0  0  0.153544  0  3.888768  0  0  0.165722  0  3.903404  0  0.48807  0  0.071144  0.145499  0  3.879098  0
C  C39  1  0.07139930  0.97044063  0.41310262  1  0  0.19069  0  3.635992  0  0  0.153618  0  3.888615  0  0  0.165795  0  3.903251  0  0.487768  0  0.071152  0.145573  0  3.878944  0
C  C40  1  0.35799390  0.36821767  0.45628812  1  0  -0.155426  0  3.668391  0  0  -0.164808  0  3.918446  0  0  -0.177725  0  3.940322  0  0.015233  0  -0.075522  -0.156852  0  3.904325  0
C  C41  1  0.64200606  0.86821708  0.54370935  1  0  -0.155476  0  3.668393  0  0  -0.164913  0  3.918479  0  0  -0.177828  0  3.940353  0  0.015209  0  -0.075585  -0.156956  0  3.904359  0
C  C42  1  0.85799388  0.36821767  0.54370998  1  0  -0.155513  0  3.6684  0  0  -0.164903  0  3.91844  0  0  -0.17782  0  3.940316  0  0.015211  0  -0.075587  -0.156945  0  3.904319  0
C  C43  1  0.14200608  0.86821708  0.45628812  1  0  -0.155432  0  3.668366  0  0  -0.164826  0  3.918416  0  0  -0.177742  0  3.940291  0  0.015239  0  -0.075543  -0.15687  0  3.904295  0
C  C44  1  0.23561441  0.29017734  0.41258067  1  0  0.197728  0  3.643525  0  0  0.157987  0  3.900239  0  0  0.170524  0  3.915046  0  0.493318  0  0.072622  0.149783  0  3.890485  0
C  C45  1  0.76438412  0.79017767  0.58741680  1  0  0.197719  0  3.643582  0  0  0.158005  0  3.900297  0  0  0.170541  0  3.915104  0  0.493899  0  0.072617  0.149803  0  3.890537  0
C  C46  1  0.73561582  0.29017734  0.58741680  1  0  0.197685  0  3.64357  0  0  0.157963  0  3.900273  0  0  0.170497  0  3.91508  0  0.493896  0  0.072612  0.149759  0  3.890516  0
C  C47  1  0.26438557  0.79017675  0.41258067  1  0  0.197753  0  3.643473  0  0  0.15802  0  3.900189  0  0  0.170556  0  3.914994  0  0.493307  0  0.072632  0.149815  0  3.890435  0
C  C48  1  0.24596981  0.41964415  0.29738644  1  0  0.322843  0  3.667801  0  0  0.263749  0  3.940627  0  0  0.281219  0  3.9517  0  1.103993  0  0.186145  0.252014  0  3.93313  0
C  C49  1  0.75402730  0.91964448  0.70261103  1  0  0.322806  0  3.66777  0  0  0.263722  0  3.940604  0  0  0.281195  0  3.951674  0  1.104002  0  0.186139  0.251988  0  3.933105  0
C  C50  1  0.74597121  0.41964415  0.70261040  1  0  0.322917  0  3.667828  0  0  0.263851  0  3.940641  0  0  0.281326  0  3.951707  0  1.104001  0  0.18619  0.252118  0  3.933143  0
C  C51  1  0.25403017  0.91964356  0.29738644  1  0  0.322849  0  3.667758  0  0  0.263751  0  3.940594  0  0  0.28122  0  3.951667  0  1.103999  0  0.186146  0.252016  0  3.933097  0
C  C52  1  0.62561215  0.83457142  0.08933000  1  0  0.198359  0  3.64188  0  0  0.157286  0  3.898262  0  0  0.169156  0  3.913542  0  0.436118  0  0.072972  0.149465  0  3.888172  0
C  C53  1  0.37438496  0.33457201  0.91066937  1  0  0.198292  0  3.641872  0  0  0.157227  0  3.898268  0  0  0.169106  0  3.913546  0  0.436117  0  0.072988  0.149401  0  3.888183  0
C  C54  1  0.12561502  0.83457235  0.91066937  1  0  0.198318  0  3.641867  0  0  0.157237  0  3.898272  0  0  0.169116  0  3.913547  0  0.436125  0  0.072986  0.149411  0  3.888188  0
C  C55  1  0.87438637  0.33457109  0.08933000  1  0  0.198452  0  3.641844  0  0  0.157342  0  3.898262  0  0  0.169218  0  3.913535  0  0.43609  0  0.072975  0.149516  0  3.888179  0
C  C56  1  0.72970678  0.92208715  0.04498355  1  0  -0.143269  0  3.650703  0  0  -0.152419  0  3.903584  0  0  -0.164277  0  3.923143  0  0.066442  0  -0.068236  -0.144945  0  3.890887  0
C  C57  1  0.27028891  0.42208866  0.95501518  1  0  -0.143234  0  3.6508  0  0  -0.152419  0  3.903684  0  0  -0.164278  0  3.923239  0  0.066378  0  -0.068275  -0.144943  0  3.890988  0
C  C58  1  0.22971107  0.92208900  0.95501518  1  0  -0.143247  0  3.650801  0  0  -0.152435  0  3.903698  0  0  -0.164293  0  3.923252  0  0.066373  0  -0.06828  -0.144958  0  3.891001  0
C  C59  1  0.77029174  0.42208774  0.04498355  1  0  -0.143364  0  3.650808  0  0  -0.152485  0  3.903682  0  0  -0.164346  0  3.923238  0  0.066419  0  -0.068273  -0.145009  0  3.890987  0
C  C60  1  0.83869454  0.00392733  0.09220929  1  0  0.213938  0  3.630771  0  0  0.174753  0  3.88556  0  0  0.187681  0  3.898873  0  0.507238  0  0.076866  0.166281  0  3.876759  0
C  C61  1  0.16130257  0.50392767  0.90779008  1  0  0.213891  0  3.630933  0  0  0.174725  0  3.885714  0  0  0.187656  0  3.899025  0  0.507309  0  0.076886  0.166254  0  3.87691  0
C  C62  1  0.33869599  0.00392826  0.90779008  1  0  0.21388  0  3.630892  0  0  0.174718  0  3.885682  0  0  0.187647  0  3.898997  0  0.507306  0  0.076883  0.166246  0  3.876877  0
C  C63  1  0.66130540  0.50392674  0.09220865  1  0  0.214005  0  3.630781  0  0  0.174807  0  3.885592  0  0  0.187735  0  3.898905  0  0.507215  0  0.076884  0.166334  0  3.87679  0
C  C64  1  0.74340584  0.90997101  0.21481020  1  0  0.325379  0  3.675077  0  0  0.266559  0  3.947982  0  0  0.283286  0  3.960911  0  1.138051  0  0.18643  0.255527  0  3.938938  0
C  C65  1  0.25659270  0.40997160  0.78518917  1  0  0.325338  0  3.675105  0  0  0.266526  0  3.947988  0  0  0.28326  0  3.96091  0  1.137888  0  0.186398  0.255494  0  3.938946  0
C  C66  1  0.24340586  0.90997194  0.78518917  1  0  0.325289  0  3.675237  0  0  0.266493  0  3.948093  0  0  0.283227  0  3.961014  0  1.137844  0  0.186374  0.25546  0  3.93905  0
C  C67  1  0.75659410  0.40997160  0.21480957  1  0  0.325356  0  3.67512  0  0  0.266539  0  3.948028  0  0  0.283266  0  3.960959  0  1.138062  0  0.186404  0.255507  0  3.938985  0
N  N68  1  0.87153216  0.64280601  0.35671201  1  0  0.68122  0  4.162021  0  0  0.714878  0  4.456091  0  0  0.742729  0  4.462468  0  0.809258  0  0.089952  0.696005  0  4.451263  0
N  N69  1  0.12846638  0.14280382  0.64328736  1  0  0.681487  0  4.161664  0  0  0.715102  0  4.455737  0  0  0.742951  0  4.462108  0  0.809546  0  0.089981  0.696227  0  4.450913  0
N  N70  1  0.37153360  0.64280415  0.64328736  1  0  0.681476  0  4.161679  0  0  0.715092  0  4.455749  0  0  0.742942  0  4.46212  0  0.809538  0  0.089974  0.696217  0  4.450925  0
N  N71  1  0.62846778  0.14280474  0.35671201  1  0  0.681529  0  4.161726  0  0  0.715102  0  4.45585  0  0  0.742953  0  4.462225  0  0.809407  0  0.089986  0.696228  0  4.451024  0
N  N72  1  0.15074656  0.68716088  0.11707137  1  0  0.701359  0  4.131976  0  0  0.734973  0  4.418728  0  0  0.763757  0  4.423827  0  0.838352  0  0.10137  0.715335  0  4.414644  0
N  N73  1  0.84925340  0.18715962  0.88292610  1  0  0.701281  0  4.132119  0  0  0.734888  0  4.418878  0  0  0.763669  0  4.423984  0  0.838369  0  0.101359  0.715254  0  4.414788  0
N  N74  1  0.65074796  0.68715996  0.88292547  1  0  0.701264  0  4.132093  0  0  0.734905  0  4.418774  0  0  0.763692  0  4.423873  0  0.838261  0  0.101319  0.715271  0  4.414686  0
N  N75  1  0.34925342  0.18716055  0.11707200  1  0  0.701404  0  4.131898  0  0  0.735008  0  4.418673  0  0  0.763789  0  4.423774  0  0.838373  0  0.101381  0.715369  0  4.41459  0
N  N76  1  0.37027439  0.49683848  0.33396811  1  0  -0.370199  0  3.189283  0  0  -0.292455  0  3.462062  0  0  -0.316552  0  3.478368  0  -1.243231  0  -0.321924  -0.275708  0  3.450801  0
N  N77  1  0.62972272  0.99683974  0.66602936  1  0  -0.37001  0  3.189269  0  0  -0.292253  0  3.462007  0  0  -0.316346  0  3.478309  0  -1.243284  0  -0.321794  -0.275508  0  3.450746  0
N  N78  1  0.87027722  0.49683940  0.66602936  1  0  -0.370068  0  3.189235  0  0  -0.292303  0  3.461954  0  0  -0.316396  0  3.478256  0  -1.243514  0  -0.321809  -0.275557  0  3.450694  0
N  N79  1  0.12972559  0.99683881  0.33396748  1  0  -0.370144  0  3.189153  0  0  -0.292417  0  3.461951  0  0  -0.316513  0  3.478254  0  -1.243229  0  -0.321897  -0.27567  0  3.450691  0
N  N80  1  0.18116820  0.31528801  0.33270783  1  0  -0.363827  0  3.181868  0  0  -0.283539  0  3.451919  0  0  -0.30736  0  3.467404  0  -1.242359  0  -0.320232  -0.267162  0  3.441342  0
N  N81  1  0.81883034  0.81528835  0.66728964  1  0  -0.363727  0  3.181815  0  0  -0.283455  0  3.451855  0  0  -0.307275  0  3.467341  0  -1.242352  0  -0.320173  -0.267079  0  3.441278  0
N  N82  1  0.68117102  0.31528893  0.66728964  1  0  -0.363725  0  3.181821  0  0  -0.28349  0  3.451901  0  0  -0.30731  0  3.467385  0  -1.242365  0  -0.320191  -0.267115  0  3.441326  0
N  N83  1  0.31883178  0.81528742  0.33270783  1  0  -0.363839  0  3.181867  0  0  -0.283554  0  3.451919  0  0  -0.307374  0  3.467403  0  -1.242365  0  -0.320229  -0.267177  0  3.441342  0
N  N84  1  0.63573278  0.82673805  0.17429331  1  0  -0.367826  0  3.204102  0  0  -0.284568  0  3.475022  0  0  -0.308412  0  3.490516  0  -1.268844  0  -0.321137  -0.268018  0  3.464145  0
N  N85  1  0.36426576  0.32673864  0.82570543  1  0  -0.367733  0  3.204061  0  0  -0.284491  0  3.474979  0  0  -0.308336  0  3.49047  0  -1.268875  0  -0.321079  -0.26794  0  3.464101  0
N  N86  1  0.13573280  0.82673897  0.82570543  1  0  -0.367749  0  3.204175  0  0  -0.284483  0  3.475062  0  0  -0.308327  0  3.490551  0  -1.268837  0  -0.321054  -0.267932  0  3.464185  0
N  N87  1  0.86426716  0.32673864  0.17429394  1  0  -0.367867  0  3.204175  0  0  -0.284586  0  3.475081  0  0  -0.308432  0  3.490574  0  -1.268844  0  -0.321101  -0.268034  0  3.464205  0
N  N88  1  0.84237542  0.00016846  0.17723143  1  0  -0.362074  0  3.171899  0  0  -0.285662  0  3.441318  0  0  -0.308959  0  3.457501  0  -1.220305  0  -0.316219  -0.269608  0  3.430114  0
N  N89  1  0.15762312  0.50016972  0.82276730  1  0  -0.362078  0  3.171959  0  0  -0.285667  0  3.441358  0  0  -0.308964  0  3.457539  0  -1.22032  0  -0.316237  -0.269609  0  3.430144  0
N  N90  1  0.34237686  0.00016939  0.82276667  1  0  -0.362052  0  3.171946  0  0  -0.285647  0  3.441321  0  0  -0.308946  0  3.457503  0  -1.220323  0  -0.316226  -0.26959  0  3.430108  0
N  N91  1  0.65762594  0.50016880  0.17723143  1  0  -0.362073  0  3.171882  0  0  -0.285674  0  3.441329  0  0  -0.308971  0  3.45751  0  -1.220301  0  -0.316217  -0.269619  0  3.430124  0
O  O92  1  0.70363759  0.69180556  0.36658547  1  0  -0.541859  0  1.792368  0  0  -0.5127  0  2.034788  0  0  -0.532428  0  2.026213  0  -0.618615  0  -0.232017  -0.498482  0  2.040247  0
O  O93  1  0.29636094  0.19180614  0.63341579  1  0  -0.541926  0  1.792187  0  0  -0.512756  0  2.03463  0  0  -0.532481  0  2.026048  0  -0.618578  0  -0.232037  -0.498537  0  2.04009  0
O  O94  1  0.20363904  0.69180556  0.63341579  1  0  -0.541935  0  1.792197  0  0  -0.512762  0  2.03465  0  0  -0.532484  0  2.026061  0  -0.618577  0  -0.232036  -0.498544  0  2.040111  0
O  O95  1  0.79636092  0.19180522  0.36658421  1  0  -0.541926  0  1.792238  0  0  -0.512766  0  2.034715  0  0  -0.532492  0  2.026134  0  -0.618582  0  -0.232029  -0.498548  0  2.040174  0
O  O96  1  0.94770222  0.59025029  0.41911553  1  0  -0.460837  0  1.747732  0  0  -0.453816  0  1.96519  0  0  -0.468733  0  1.961634  0  -0.521821  0  -0.192307  -0.443073  0  1.967433  0
O  O97  1  0.05230058  0.09024995  0.58088258  1  0  -0.460971  0  1.747661  0  0  -0.453932  0  1.965133  0  0  -0.468849  0  1.961575  0  -0.522036  0  -0.192313  -0.443196  0  1.967391  0
O  O98  1  0.44769940  0.59025029  0.58088258  1  0  -0.460962  0  1.747662  0  0  -0.453926  0  1.965134  0  0  -0.468843  0  1.961576  0  -0.522028  0  -0.192309  -0.443188  0  1.96739  0
O  O99  1  0.55229914  0.09025088  0.41911616  1  0  -0.460977  0  1.7477  0  0  -0.453921  0  1.965191  0  0  -0.468839  0  1.961633  0  -0.521991  0  -0.19233  -0.443178  0  1.967436  0
O  O100  1  0.95174877  0.64956383  0.28608060  1  0  -0.441406  0  1.756297  0  0  -0.442986  0  1.978286  0  0  -0.456585  0  1.975678  0  -0.521142  0  -0.188404  -0.433279  0  1.979844  0
O  O101  1  0.04825119  0.14955609  0.71391940  1  0  -0.441478  0  1.756206  0  0  -0.443027  0  1.978186  0  0  -0.456636  0  1.975594  0  -0.521247  0  -0.188391  -0.433318  0  1.979743  0
O  O102  1  0.45174879  0.64955643  0.71391940  1  0  -0.441473  0  1.756213  0  0  -0.443025  0  1.978189  0  0  -0.456635  0  1.975598  0  -0.521248  0  -0.188392  -0.433317  0  1.979747  0
O  O103  1  0.54825117  0.14955979  0.28607997  1  0  -0.441532  0  1.756203  0  0  -0.443053  0  1.978193  0  0  -0.456652  0  1.975584  0  -0.521159  0  -0.188402  -0.43335  0  1.979763  0
O  O104  1  0.26931569  0.60270520  0.14264710  1  0  -0.512215  0  1.811532  0  0  -0.475056  0  2.04633  0  0  -0.496444  0  2.037796  0  -0.601101  0  -0.213921  -0.459815  0  2.052088  0
O  O105  1  0.73068711  0.10270209  0.85735101  1  0  -0.512215  0  1.811625  0  0  -0.475066  0  2.046406  0  0  -0.49644  0  2.037857  0  -0.601141  0  -0.213977  -0.459839  0  2.052175  0
O  O106  1  0.76931709  0.60270335  0.85735037  1  0  -0.5122  0  1.811548  0  0  -0.475088  0  2.046381  0  0  -0.496469  0  2.037834  0  -0.601056  0  -0.213978  -0.459863  0  2.052153  0
O  O107  1  0.23068287  0.10270486  0.14264710  1  0  -0.512221  0  1.81149  0  0  -0.475072  0  2.0463  0  0  -0.496454  0  2.037762  0  -0.601107  0  -0.213921  -0.459822  0  2.052049  0
O  O108  1  0.17620962  0.79739182  0.13952486  1  0  -0.456427  0  1.787114  0  0  -0.448714  0  2.008109  0  0  -0.463437  0  2.003861  0  -0.531731  0  -0.180339  -0.438083  0  2.010853  0
O  O109  1  0.82378323  0.29738871  0.86047134  1  0  -0.456416  0  1.787235  0  0  -0.44869  0  2.008252  0  0  -0.463413  0  2.004007  0  -0.53172  0  -0.180301  -0.438058  0  2.010992  0
O  O110  1  0.67621529  0.79739089  0.86047134  1  0  -0.456424  0  1.787222  0  0  -0.448712  0  2.008226  0  0  -0.463435  0  2.003979  0  -0.531743  0  -0.180295  -0.438077  0  2.010962  0
O  O111  1  0.32379179  0.29739241  0.13952486  1  0  -0.456441  0  1.787102  0  0  -0.448732  0  2.008127  0  0  -0.463456  0  2.003879  0  -0.531735  0  -0.180337  -0.438102  0  2.01087  0
O  O112  1  0.01626158  0.65549694  0.06986271  1  0  -0.43966  0  1.761979  0  0  -0.431208  0  1.970099  0  0  -0.445541  0  1.966895  0  -0.526724  0  -0.179369  -0.421061  0  1.972471  0
O  O113  1  0.98373837  0.15549661  0.93013666  1  0  -0.439609  0  1.761923  0  0  -0.43114  0  1.970012  0  0  -0.445473  0  1.966809  0  -0.526689  0  -0.179358  -0.420995  0  1.972385  0
O  O114  1  0.51626441  0.65549602  0.93013539  1  0  -0.439598  0  1.761943  0  0  -0.431128  0  1.970015  0  0  -0.445465  0  1.966812  0  -0.526627  0  -0.17932  -0.420983  0  1.972387  0
O  O115  1  0.48373839  0.15549661  0.06986208  1  0  -0.439695  0  1.761968  0  0  -0.431226  0  1.970093  0  0  -0.445556  0  1.966884  0  -0.526726  0  -0.179375  -0.421083  0  1.972471  0
