# generated using pymatgen
data_Nd2H28C26O19
_symmetry_space_group_name_H-M   'P 1'
_cell_length_a   12.34419249
_cell_length_b   12.81604457
_cell_length_c   24.28722795
_cell_angle_alpha   90.00003821
_cell_angle_beta   90.00008264
_cell_angle_gamma   90.00010951
_symmetry_Int_Tables_number   1
_chemical_formula_structural   Nd2H28C26O19
_chemical_formula_sum   'Nd8 H112 C104 O76'
_cell_volume   3842.32983711
_cell_formula_units_Z   4
loop_
 _symmetry_equiv_pos_site_id
 _symmetry_equiv_pos_as_xyz
  1  'x, y, z'
loop_
 _atom_site_type_symbol
 _atom_site_label
 _atom_site_symmetry_multiplicity
 _atom_site_fract_x
 _atom_site_fract_y
 _atom_site_fract_z
 _atom_site_occupancy
 _atom_site_pbe_bader_charge
 _atom_site_pbe_bader_spin_density
 _atom_site_pbe_cm5_charge
 _atom_site_pbe_ddec_charge
 _atom_site_pbe_ddec_spin_density
 _atom_site_pbe_ddec_sum_bond_order
 _atom_site_pbe_magmom
Nd  Nd0  1  0.05251386  0.39874535  0.93242968  1  2.247874  0  1.522539  2.104233  0  2.194533  0
Nd  Nd1  1  0.05251770  0.60125502  0.06757062  1  2.247866  0  1.522473  2.104198  0  2.194576  0
Nd  Nd2  1  0.94748530  0.89874576  0.56757001  1  2.247852  0  1.522514  2.104245  0  2.194566  0
Nd  Nd3  1  0.94748351  0.10125547  0.43242971  1  2.247868  0  1.522527  2.104245  0  2.194422  0
Nd  Nd4  1  0.26955735  0.62033320  0.58520738  1  2.294175  0  1.517991  2.240194  0  2.048885  0
Nd  Nd5  1  0.26955201  0.37967069  0.41479637  1  2.294285  0  1.517943  2.240143  0  2.049035  0
Nd  Nd6  1  0.73044531  0.12033010  0.91479757  1  2.294287  0  1.517934  2.240125  0  2.048999  0
Nd  Nd7  1  0.73044327  0.87966215  0.08520653  1  2.294255  0  1.517994  2.240167  0  2.048935  0
H  H8  1  0.90232202  0.30234965  0.74617282  1  0.093457  0  0.109186  0.123264  0  1.021898  0
H  H9  1  0.90232496  0.69764916  0.25382687  1  0.093479  0  0.109164  0.12324  0  1.021971  0
H  H10  1  0.09767856  0.80235108  0.75382684  1  0.093411  0  0.109185  0.123276  0  1.021945  0
H  H11  1  0.09767644  0.19765015  0.24617308  1  0.09347  0  0.109154  0.123226  0  1.021954  0
H  H12  1  0.24985412  0.33254637  0.75811425  1  0.08755  0  0.1116  0.139064  0  0.990565  0
H  H13  1  0.24985615  0.66745593  0.24188825  1  0.087594  0  0.11164  0.139067  0  0.990609  0
H  H14  1  0.75014734  0.83254430  0.74188583  1  0.087654  0  0.111636  0.139089  0  0.990584  0
H  H15  1  0.75014600  0.16745579  0.25811457  1  0.087604  0  0.111624  0.139094  0  0.990593  0
H  H16  1  0.09885570  0.26671536  0.60112468  1  0.03059  0  0.112582  0.133712  0  1.027971  0
H  H17  1  0.09885345  0.73328431  0.39887648  1  0.030572  0  0.112536  0.133638  0  1.028019  0
H  H18  1  0.90114725  0.76671299  0.89887538  1  0.030535  0  0.112547  0.1337  0  1.027942  0
H  H19  1  0.90114397  0.23328270  0.10112430  1  0.030588  0  0.112584  0.133723  0  1.027966  0
H  H20  1  0.94344878  0.28964441  0.56223500  1  0.064885  0  0.114923  0.069215  0  0.968773  0
H  H21  1  0.94344497  0.71035838  0.43776472  1  0.064931  0  0.114929  0.069264  0  0.968711  0
H  H22  1  0.05655502  0.78964365  0.93776383  1  0.064922  0  0.1149  0.069239  0  0.968662  0
H  H23  1  0.05655078  0.21035516  0.06223483  1  0.064877  0  0.114944  0.069263  0  0.968734  0
H  H24  1  0.72771812  0.18370827  0.59212510  1  0.027858  0  0.097864  0.138994  0  0.983436  0
H  H25  1  0.72771525  0.81629412  0.40787199  1  0.027876  0  0.097867  0.138984  0  0.983408  0
H  H26  1  0.27228547  0.68370709  0.90787328  1  0.027767  0  0.097856  0.13897  0  0.983421  0
H  H27  1  0.27227990  0.31629056  0.09212594  1  0.027882  0  0.097855  0.139006  0  0.983434  0
H  H28  1  0.77121382  0.22172077  0.52477450  1  0.072318  0  0.104361  0.139316  0  1.013614  0
H  H29  1  0.77121026  0.77828092  0.47522263  1  0.072423  0  0.104328  0.139317  0  1.013547  0
H  H30  1  0.22878985  0.72172038  0.97522390  1  0.072376  0  0.104294  0.139278  0  1.013557  0
H  H31  1  0.22878563  0.27827875  0.02477530  1  0.072346  0  0.104327  0.139264  0  1.013589  0
H  H32  1  0.74421020  0.31855253  0.57516848  1  0.050789  0  0.093411  0.137672  0  1.013644  0
H  H33  1  0.74420792  0.68144833  0.42482821  1  0.050763  0  0.093425  0.137663  0  1.013643  0
H  H34  1  0.25579204  0.81855290  0.92482954  1  0.050753  0  0.093428  0.137647  0  1.01364  0
H  H35  1  0.25578859  0.18144628  0.07516968  1  0.050756  0  0.093423  0.137662  0  1.013667  0
H  H36  1  0.26706671  0.20385603  0.59115241  1  0.101489  0  0.113635  0.069248  0  0.999017  0
H  H37  1  0.26706623  0.79614396  0.40884970  1  0.10148  0  0.113649  0.069254  0  0.998954  0
H  H38  1  0.73293693  0.70385726  0.90884845  1  0.101526  0  0.113626  0.069258  0  0.998945  0
H  H39  1  0.73293617  0.29613890  0.09115111  1  0.101609  0  0.113618  0.069307  0  0.998903  0
H  H40  1  0.46900473  0.34435900  0.59775062  1  0.065941  0  0.094689  0.132809  0  1.003487  0
H  H41  1  0.46900476  0.65564291  0.40225204  1  0.065926  0  0.094669  0.132785  0  1.003482  0
H  H42  1  0.53099837  0.84435751  0.90225070  1  0.065932  0  0.094694  0.13281  0  1.00348  0
H  H43  1  0.53099412  0.15564217  0.09774954  1  0.065871  0  0.094687  0.132788  0  1.003507  0
H  H44  1  0.44420343  0.24544466  0.54783177  1  0.097403  0  0.103701  0.148855  0  0.986528  0
H  H45  1  0.44420379  0.75455721  0.45217006  1  0.097321  0  0.103678  0.148814  0  0.986541  0
H  H46  1  0.55580029  0.74544249  0.95216787  1  0.097415  0  0.103723  0.148884  0  0.986522  0
H  H47  1  0.55579771  0.25455568  0.04783115  1  0.097385  0  0.103712  0.148862  0  0.986567  0
H  H48  1  0.46127873  0.21005158  0.61812633  1  0.066501  0  0.096212  0.140056  0  0.993345  0
H  H49  1  0.46127735  0.78994954  0.38187551  1  0.066523  0  0.096199  0.140059  0  0.993329  0
H  H50  1  0.53872492  0.71005008  0.88187371  1  0.066337  0  0.096188  0.140058  0  0.993365  0
H  H51  1  0.53872342  0.28994962  0.11812530  1  0.066518  0  0.096195  0.140044  0  0.99332  0
H  H52  1  0.09139682  0.00000164  0.00000045  1  0.059653  0  0.109644  0.129547  0  1.032349  0
H  H53  1  0.90860094  0.49999941  0.49999902  1  0.059699  0  0.109646  0.129602  0  1.032364  0
H  H54  1  0.39403683  0.04333022  0.91407894  1  0.06671  0  0.10573  0.121239  0  1.018296  0
H  H55  1  0.39403090  0.95666844  0.08592366  1  0.066605  0  0.105709  0.121217  0  1.018317  0
H  H56  1  0.60596567  0.54333315  0.58592268  1  0.066707  0  0.105708  0.121204  0  1.018245  0
H  H57  1  0.60596129  0.45667448  0.41407761  1  0.066632  0  0.105704  0.121198  0  1.01832  0
H  H58  1  0.04314968  0.97410927  0.91422762  1  0.076707  0  0.112376  0.068123  0  0.971671  0
H  H59  1  0.04314270  0.02589030  0.08577103  1  0.076646  0  0.112411  0.0681  0  0.971718  0
H  H60  1  0.95685530  0.47410775  0.58577128  1  0.076648  0  0.112389  0.06809  0  0.971732  0
H  H61  1  0.95685025  0.52589585  0.41422722  1  0.076656  0  0.11236  0.068066  0  0.97178  0
H  H62  1  0.08513362  0.12170273  0.81659674  1  0.057019  0  0.094  0.134444  0  1.00987  0
H  H63  1  0.08512537  0.87829770  0.18340440  1  0.056826  0  0.093954  0.134417  0  1.00999  0
H  H64  1  0.91487471  0.62170401  0.68340367  1  0.056815  0  0.093975  0.134446  0  1.009917  0
H  H65  1  0.91486585  0.37829873  0.31659602  1  0.057055  0  0.094003  0.134461  0  1.009805  0
H  H66  1  0.96814635  0.04163516  0.82677154  1  0.06141  0  0.098148  0.125725  0  1.022469  0
H  H67  1  0.96813986  0.95836767  0.17322696  1  0.061764  0  0.098168  0.125786  0  1.022455  0
H  H68  1  0.03185777  0.54163168  0.67322721  1  0.061783  0  0.09815  0.12579  0  1.02244  0
H  H69  1  0.03185152  0.45836709  0.32677143  1  0.061414  0  0.09815  0.125735  0  1.022467  0
H  H70  1  0.09675937  0.98319319  0.81515911  1  0.054545  0  0.094664  0.13913  0  1.006926  0
H  H71  1  0.09675023  0.01680882  0.18484040  1  0.054547  0  0.09468  0.139141  0  1.006912  0
H  H72  1  0.90324887  0.48319246  0.68484103  1  0.054454  0  0.094667  0.139146  0  1.006861  0
H  H73  1  0.90324190  0.51681025  0.31515784  1  0.054486  0  0.094661  0.139125  0  1.006899  0
H  H74  1  0.40826549  0.50999086  0.08874689  1  0.09594  0  0.112981  0.138209  0  0.989607  0
H  H75  1  0.40826420  0.49000705  0.91124915  1  0.095799  0  0.112962  0.138162  0  0.989629  0
H  H76  1  0.59173229  0.00999375  0.41125135  1  0.0959  0  0.112969  0.13821  0  0.989582  0
H  H77  1  0.59173514  0.99000605  0.58874893  1  0.095884  0  0.112955  0.138203  0  0.989574  0
H  H78  1  0.71149357  0.49999876  0.99999838  1  0.063723  0  0.111414  0.134714  0  1.053619  0
H  H79  1  0.28850561  0.00000136  0.50000077  1  0.06371  0  0.111406  0.13468  0  1.05367  0
H  H80  1  0.76482255  0.44063436  0.07845147  1  0.063739  0  0.111194  0.062167  0  0.98891  0
H  H81  1  0.76482305  0.55935873  0.92154606  1  0.063764  0  0.11115  0.062093  0  0.988758  0
H  H82  1  0.23517690  0.94064016  0.42154692  1  0.063796  0  0.111147  0.062059  0  0.988883  0
H  H83  1  0.23517787  0.05936211  0.57845351  1  0.063794  0  0.111146  0.062075  0  0.988902  0
H  H84  1  0.72990033  0.55834154  0.18756850  1  0.05137  0  0.097539  0.140309  0  0.983489  0
H  H85  1  0.72990028  0.44165929  0.81242736  1  0.051293  0  0.09754  0.140364  0  0.983485  0
H  H86  1  0.27009917  0.05834138  0.31242893  1  0.051355  0  0.097536  0.140353  0  0.98356  0
H  H87  1  0.27010058  0.94166017  0.68757112  1  0.051332  0  0.097539  0.140346  0  0.983514  0
H  H88  1  0.85064608  0.49208485  0.16724468  1  0.081296  0  0.103908  0.14796  0  1.004803  0
H  H89  1  0.85064623  0.50791465  0.83275250  1  0.081283  0  0.103882  0.147951  0  1.004799  0
H  H90  1  0.14935347  0.99208569  0.33275331  1  0.081267  0  0.103891  0.147962  0  1.004794  0
H  H91  1  0.14935378  0.00791563  0.66724623  1  0.081297  0  0.103905  0.147954  0  1.004788  0
H  H92  1  0.73015455  0.41948044  0.18027534  1  0.044497  0  0.094397  0.13777  0  0.998911  0
H  H93  1  0.73015480  0.58051961  0.81972340  1  0.044475  0  0.094376  0.137762  0  0.99892  0
H  H94  1  0.26984567  0.91948071  0.31972345  1  0.044478  0  0.094385  0.137778  0  0.998913  0
H  H95  1  0.26984534  0.08052084  0.68027701  1  0.044453  0  0.094381  0.137758  0  0.998907  0
H  H96  1  0.12928840  0.74304259  0.67149509  1  0.640488  0  0.300493  0.408726  0  0.923032  0
H  H97  1  0.12928500  0.25695636  0.32850650  1  0.640459  0  0.300467  0.408722  0  0.923049  0
H  H98  1  0.87071127  0.24304589  0.82850702  1  0.640815  0  0.300492  0.408715  0  0.923043  0
H  H99  1  0.87071490  0.75695599  0.17149512  1  0.640784  0  0.300505  0.408768  0  0.922971  0
H  H100  1  0.18486429  0.65346276  0.70753667  1  0.588468  0  0.332775  0.420584  0  0.864773  0
H  H101  1  0.18485935  0.34653785  0.29246537  1  0.588181  0  0.332785  0.420542  0  0.864833  0
H  H102  1  0.81513924  0.15346357  0.79246623  1  0.58819  0  0.332813  0.420546  0  0.864844  0
H  H103  1  0.81513586  0.84653664  0.20753546  1  0.588512  0  0.332773  0.420522  0  0.86486  0
H  H104  1  0.51043023  0.69601746  0.59999633  1  0.61731  0  0.330491  0.415651  0  0.874184  0
H  H105  1  0.51042632  0.30398765  0.40000472  1  0.617356  0  0.330526  0.415671  0  0.874165  0
H  H106  1  0.48957177  0.19601391  0.90000330  1  0.61734  0  0.330504  0.41563  0  0.87422  0
H  H107  1  0.48957286  0.80398414  0.09999527  1  0.617347  0  0.330524  0.415674  0  0.874172  0
H  H108  1  0.42101663  0.77720235  0.61745116  1  0.647229  0  0.312935  0.406371  0  0.908067  0
H  H109  1  0.42101332  0.22280416  0.38254859  1  0.647315  0  0.312903  0.406355  0  0.908092  0
H  H110  1  0.57898715  0.27719425  0.88254808  1  0.647331  0  0.312921  0.406379  0  0.908069  0
H  H111  1  0.57898246  0.72279460  0.11744973  1  0.64719  0  0.312961  0.406411  0  0.908025  0
H  H112  1  0.33071722  0.44123124  0.66737607  1  0.645079  0  0.306408  0.387238  0  0.950191  0
H  H113  1  0.33071525  0.55877120  0.33262690  1  0.644993  0  0.306335  0.387107  0  0.950371  0
H  H114  1  0.66928526  0.94122836  0.83262652  1  0.64554  0  0.306341  0.387164  0  0.950304  0
H  H115  1  0.66928425  0.05876846  0.16737547  1  0.645075  0  0.30639  0.387208  0  0.950233  0
H  H116  1  0.40865845  0.53456824  0.68508954  1  0.612353  0  0.341922  0.430535  0  0.844088  0
H  H117  1  0.40865137  0.46542967  0.31491308  1  0.612477  0  0.341921  0.430492  0  0.844136  0
H  H118  1  0.59134890  0.03456944  0.81491167  1  0.612466  0  0.341902  0.430511  0  0.8441  0
H  H119  1  0.59134407  0.96543114  0.18508862  1  0.612393  0  0.341915  0.430486  0  0.844146  0
C  C120  1  0.99105917  0.28049583  0.67104241  1  0.522627  0  0.088009  0.291403  0  4.07801  0
C  C121  1  0.99105912  0.71950392  0.32895816  1  0.522617  0  0.088039  0.291465  0  4.07807  0
C  C122  1  0.00894462  0.78049641  0.82895683  1  0.522314  0  0.088004  0.291448  0  4.078155  0
C  C123  1  0.00894070  0.21950310  0.17104221  1  0.522642  0  0.088045  0.291419  0  4.077995  0
C  C124  1  0.98237421  0.29906087  0.72751736  1  -0.069796  0  -0.105657  -0.244089  0  3.971276  0
C  C125  1  0.98237640  0.70093653  0.27248197  1  -0.069779  0  -0.105661  -0.244076  0  3.971352  0
C  C126  1  0.01762880  0.79906451  0.77248230  1  -0.069369  0  -0.105719  -0.244175  0  3.971309  0
C  C127  1  0.01762500  0.20093501  0.22751716  1  -0.069819  0  -0.105678  -0.244074  0  3.971347  0
C  C128  1  0.07563939  0.31679330  0.75849710  1  -0.000367  0  -0.017494  0.012867  0  4.035337  0
C  C129  1  0.07564145  0.68320477  0.24150321  1  -0.000283  0  -0.017401  0.012897  0  4.035442  0
C  C130  1  0.92436123  0.81679623  0.74150297  1  -0.0005  0  -0.017402  0.012947  0  4.035279  0
C  C131  1  0.92435992  0.18320574  0.25849755  1  -0.000299  0  -0.017379  0.012966  0  4.03531  0
C  C132  1  0.17765007  0.31806912  0.73353217  1  0.021963  0  -0.106557  -0.244636  0  3.965545  0
C  C133  1  0.17765302  0.68193148  0.26646905  1  0.021775  0  -0.106649  -0.244654  0  3.965633  0
C  C134  1  0.82235217  0.81806877  0.76646791  1  0.021886  0  -0.106621  -0.244682  0  3.965581  0
C  C135  1  0.82234835  0.18193223  0.23353172  1  0.021749  0  -0.106591  -0.244689  0  3.965547  0
C  C136  1  0.18487929  0.30093354  0.67701975  1  0.399493  0  0.082015  0.275644  0  4.068897  0
C  C137  1  0.18487837  0.69906629  0.32298147  1  0.399712  0  0.082024  0.275713  0  4.068699  0
C  C138  1  0.81512211  0.80093091  0.82298074  1  0.399543  0  0.082088  0.275726  0  4.068808  0
C  C139  1  0.81512222  0.19906618  0.17701930  1  0.39951  0  0.081994  0.275636  0  4.068937  0
C  C140  1  0.09270065  0.27983566  0.64521946  1  0.045576  0  -0.114275  -0.327758  0  3.94473  0
C  C141  1  0.09270149  0.72016478  0.35478046  1  0.045448  0  -0.114293  -0.327792  0  3.944801  0
C  C142  1  0.90730070  0.77983246  0.85477978  1  0.045629  0  -0.114304  -0.327845  0  3.944715  0
C  C143  1  0.90729833  0.22016480  0.14521950  1  0.045652  0  -0.114297  -0.327805  0  3.944764  0
C  C144  1  0.89438440  0.23633542  0.58784473  1  0.414831  0  0.01217  0.09491  0  3.86723  0
C  C145  1  0.89438386  0.76366728  0.41215372  1  0.414904  0  0.012192  0.094905  0  3.867192  0
C  C146  1  0.10561687  0.73633316  0.91215408  1  0.41492  0  0.012187  0.094886  0  3.867148  0
C  C147  1  0.10561442  0.26366419  0.08784543  1  0.415034  0  0.012188  0.094907  0  3.867127  0
C  C148  1  0.94002112  0.12591449  0.58158341  1  1.578167  0  0.208242  0.58296  0  4.177562  0
C  C149  1  0.94002083  0.87409141  0.41841219  1  1.57826  0  0.208182  0.582957  0  4.177725  0
C  C150  1  0.05998073  0.62590826  0.91841207  1  1.578258  0  0.208193  0.582947  0  4.177746  0
C  C151  1  0.05997930  0.37408510  0.08158453  1  1.578165  0  0.208252  0.582937  0  4.177422  0
C  C152  1  0.77669016  0.23984340  0.56875647  1  -0.029704  0  -0.23524  -0.405861  0  3.886354  0
C  C153  1  0.77668643  0.76015830  0.43124066  1  -0.030025  0  -0.235228  -0.405842  0  3.886211  0
C  C154  1  0.22331354  0.73984216  0.93124194  1  -0.029689  0  -0.235193  -0.405768  0  3.886206  0
C  C155  1  0.22330941  0.26015618  0.06875684  1  -0.029889  0  -0.235215  -0.405811  0  3.886325  0
C  C156  1  0.30634437  0.27952450  0.59874737  1  0.366768  0  0.007686  0.083829  0  3.84536  0
C  C157  1  0.30634453  0.72047478  0.40125558  1  0.366818  0  0.007738  0.083899  0  3.845138  0
C  C158  1  0.69365860  0.77952409  0.90125393  1  0.366657  0  0.007699  0.083838  0  3.845214  0
C  C159  1  0.69365448  0.22047278  0.09874685  1  0.366715  0  0.007635  0.083643  0  3.84544  0
C  C160  1  0.25743799  0.35805022  0.55792962  1  1.607007  0  0.234831  0.633486  0  4.161637  0
C  C161  1  0.25743811  0.64194741  0.44207166  1  1.607198  0  0.234629  0.633216  0  4.161643  0
C  C162  1  0.74256433  0.85805463  0.94207047  1  1.607119  0  0.234586  0.633186  0  4.161907  0
C  C163  1  0.74256236  0.14194467  0.05793075  1  1.607076  0  0.234573  0.633092  0  4.162065  0
C  C164  1  0.42820084  0.26949499  0.59036976  1  -0.106514  0  -0.238751  -0.409826  0  3.905066  0
C  C165  1  0.42819942  0.73050763  0.40963246  1  -0.106435  0  -0.238726  -0.409795  0  3.90502  0
C  C166  1  0.57180373  0.76949280  0.90962989  1  -0.106283  0  -0.238801  -0.409924  0  3.905115  0
C  C167  1  0.57179880  0.23050540  0.09036915  1  -0.106455  0  -0.238764  -0.409794  0  3.905055  0
C  C168  1  0.06750368  0.33560100  0.81889757  1  1.531286  0  0.198318  0.575629  0  4.213134  0
C  C169  1  0.06750391  0.66440096  0.18110233  1  1.531317  0  0.198228  0.575617  0  4.213122  0
C  C170  1  0.93249859  0.83560231  0.68110169  1  1.531355  0  0.198342  0.57563  0  4.212941  0
C  C171  1  0.93249661  0.16440124  0.31889844  1  1.53132  0  0.198256  0.575624  0  4.213164  0
C  C172  1  0.17951600  0.00000095  0.00000089  1  0.018024  0  -0.118548  -0.34208  0  3.944418  0
C  C173  1  0.82048096  0.50000167  0.49999981  1  0.017151  0  -0.11857  -0.342165  0  3.944379  0
C  C174  1  0.23759083  0.02550166  0.95211040  1  0.399992  0  0.088128  0.293387  0  4.090441  0
C  C175  1  0.23758806  0.97449748  0.04789292  1  0.399631  0  0.088081  0.293288  0  4.090486  0
C  C176  1  0.76241002  0.52550406  0.54789164  1  0.399978  0  0.088111  0.293346  0  4.090541  0
C  C177  1  0.76240740  0.47449840  0.45210919  1  0.400518  0  0.088111  0.29327  0  4.090541  0
C  C178  1  0.35089107  0.02581544  0.95204909  1  0.067197  0  -0.115104  -0.258523  0  3.992879  0
C  C179  1  0.35088911  0.97418548  0.04795267  1  0.067189  0  -0.11513  -0.258609  0  3.993122  0
C  C180  1  0.64911059  0.52581294  0.54795089  1  0.067165  0  -0.115131  -0.258528  0  3.992974  0
C  C181  1  0.64910797  0.47418463  0.45204697  1  0.067143  0  -0.115132  -0.258477  0  3.992975  0
C  C182  1  0.40716088  0.99999846  0.00000239  1  -0.002982  0  -0.025057  -0.010354  0  4.044542  0
C  C183  1  0.59283707  0.50000068  0.50000014  1  -0.002969  0  -0.02501  -0.01043  0  4.044572  0
C  C184  1  0.52867713  0.99999701  0.00000408  1  1.560618  0  0.236826  0.666567  0  4.140744  0
C  C185  1  0.47132001  0.50000135  0.50000174  1  1.56109  0  0.236869  0.666605  0  4.140444  0
C  C186  1  0.07667948  0.04660550  0.89655727  1  0.419161  0  0.010972  0.087833  0  3.859076  0
C  C187  1  0.07667196  0.95339492  0.10344263  1  0.418866  0  0.010963  0.088015  0  3.858761  0
C  C188  1  0.92332708  0.54660357  0.60344230  1  0.418816  0  0.010955  0.087976  0  3.858885  0
C  C189  1  0.92332265  0.45339918  0.39655617  1  0.418975  0  0.010997  0.087908  0  3.85901  0
C  C190  1  0.02015100  0.13907627  0.92498950  1  1.612888  0  0.237327  0.636608  0  4.139353  0
C  C191  1  0.02014080  0.86092560  0.07501243  1  1.613364  0  0.23736  0.636597  0  4.138966  0
C  C192  1  0.97985898  0.63906895  0.57501216  1  1.613298  0  0.237281  0.63656  0  4.138739  0
C  C193  1  0.97984715  0.36093156  0.42498758  1  1.613107  0  0.237372  0.636687  0  4.138942  0
C  C194  1  0.05513404  0.04888383  0.83475112  1  -0.060795  0  -0.23967  -0.404806  0  3.904797  0
C  C195  1  0.05512589  0.95111810  0.16524918  1  -0.060995  0  -0.239673  -0.40493  0  3.904884  0
C  C196  1  0.94487253  0.54888280  0.66524845  1  -0.060872  0  -0.239681  -0.404987  0  3.90476  0
C  C197  1  0.94486629  0.45111920  0.33474962  1  -0.060685  0  -0.239689  -0.404841  0  3.904645  0
C  C198  1  0.39727618  0.50000160  0.99999785  1  -0.044048  0  -0.017042  0.008111  0  4.024272  0
C  C199  1  0.60272237  0.99999895  0.50000023  1  -0.044053  0  -0.016971  0.008332  0  4.02451  0
C  C200  1  0.45264257  0.50517971  0.05006731  1  0.068234  0  -0.110649  -0.25422  0  3.976919  0
C  C201  1  0.45264303  0.49481749  0.94992834  1  0.068143  0  -0.110544  -0.254015  0  3.976972  0
C  C202  1  0.54735520  0.00518257  0.44993051  1  0.068198  0  -0.110639  -0.254287  0  3.977129  0
C  C203  1  0.54735632  0.99481715  0.55006933  1  0.068176  0  -0.110585  -0.254212  0  3.977063  0
C  C204  1  0.56566981  0.50196588  0.04984543  1  0.373589  0  0.080314  0.279503  0  4.093158  0
C  C205  1  0.56566946  0.49802919  0.95015072  1  0.373503  0  0.080145  0.279313  0  4.093408  0
C  C206  1  0.43432877  0.00196931  0.45015322  1  0.373513  0  0.080312  0.279575  0  4.093296  0
C  C207  1  0.43433071  0.99803176  0.54984777  1  0.373507  0  0.080267  0.279484  0  4.093272  0
C  C208  1  0.62343759  0.49999790  0.99999752  1  -0.020003  0  -0.123334  -0.351065  0  3.9491  0
C  C209  1  0.37656078  0.00000066  0.50000039  1  -0.020007  0  -0.123435  -0.351154  0  3.949149  0
C  C210  1  0.27622897  0.49999992  0.99999739  1  1.603991  0  0.236649  0.646772  0  4.165835  0
C  C211  1  0.72377021  0.00000098  0.49999846  1  1.604025  0  0.236555  0.64655  0  4.166112  0
C  C212  1  0.72958827  0.50413132  0.10333903  1  0.429247  0  0.005452  0.07372  0  3.891039  0
C  C213  1  0.72958857  0.49586483  0.89665723  1  0.429363  0  0.005481  0.07401  0  3.890726  0
C  C214  1  0.27040951  0.00413594  0.39665879  1  0.429377  0  0.005485  0.073978  0  3.890892  0
C  C215  1  0.27041240  0.99586717  0.60334167  1  0.42928  0  0.005515  0.074001  0  3.890876  0
C  C216  1  0.77331173  0.60698523  0.07995270  1  1.619478  0  0.23949  0.642778  0  4.133556  0
C  C217  1  0.77331433  0.39301178  0.92004277  1  1.619266  0  0.239615  0.642845  0  4.133334  0
C  C218  1  0.22667895  0.10698590  0.42004475  1  1.619421  0  0.239614  0.642771  0  4.133542  0
C  C219  1  0.22668725  0.89301245  0.57995609  1  1.619401  0  0.239576  0.642659  0  4.133568  0
C  C220  1  0.76209755  0.49280496  0.16350400  1  -0.05145  0  -0.238285  -0.412704  0  3.905987  0
C  C221  1  0.76209852  0.50719437  0.83649270  1  -0.051526  0  -0.238263  -0.412831  0  3.906064  0
C  C222  1  0.23790200  0.99280597  0.33649358  1  -0.051524  0  -0.238312  -0.412863  0  3.906098  0
C  C223  1  0.23790310  0.00719552  0.66350603  1  -0.051484  0  -0.238283  -0.412776  0  3.906041  0
O  O224  1  0.28866086  0.30846558  0.65545537  1  -1.073781  0  -0.174976  -0.236295  0  2.548282  0
O  O225  1  0.28865918  0.69153366  0.34454758  1  -1.073761  0  -0.175009  -0.236346  0  2.548045  0
O  O226  1  0.71134298  0.80846435  0.84454635  1  -1.073679  0  -0.175002  -0.236271  0  2.548296  0
O  O227  1  0.71133977  0.19153333  0.15545525  1  -1.07376  0  -0.174895  -0.236107  0  2.548262  0
O  O228  1  0.21705474  0.44239291  0.57563440  1  -1.209048  0  -0.408706  -0.692447  0  2.328494  0
O  O229  1  0.21705059  0.55760855  0.42436849  1  -1.209309  0  -0.408647  -0.692292  0  2.328754  0
O  O230  1  0.78294694  0.94239113  0.92436737  1  -1.209207  0  -0.408556  -0.692208  0  2.328953  0
O  O231  1  0.78294324  0.05760278  0.07563429  1  -1.209214  0  -0.408578  -0.692208  0  2.328825  0
O  O232  1  0.26204330  0.32942279  0.50830065  1  -1.197742  0  -0.405208  -0.670103  0  2.32227  0
O  O233  1  0.26204928  0.67057562  0.49170269  1  -1.197815  0  -0.405056  -0.669941  0  2.321864  0
O  O234  1  0.73794924  0.82942570  0.99170108  1  -1.197828  0  -0.405067  -0.669955  0  2.321938  0
O  O235  1  0.73795368  0.17057281  0.00830014  1  -1.197747  0  -0.40509  -0.669927  0  2.322157  0
O  O236  1  0.89451332  0.26898515  0.64415335  1  -1.069756  0  -0.174523  -0.214227  0  2.526165  0
O  O237  1  0.89451175  0.73101520  0.35584469  1  -1.069581  0  -0.174512  -0.214278  0  2.526345  0
O  O238  1  0.10548964  0.76898360  0.85584507  1  -1.069799  0  -0.174455  -0.214228  0  2.526407  0
O  O239  1  0.10548647  0.23101452  0.14415362  1  -1.069776  0  -0.174561  -0.214277  0  2.526203  0
O  O240  1  0.96400396  0.09569455  0.53254406  1  -1.234675  0  -0.431938  -0.747035  0  2.387953  0
O  O241  1  0.96400386  0.90430827  0.46745608  1  -1.23511  0  -0.431986  -0.747116  0  2.387679  0
O  O242  1  0.03599541  0.59569067  0.96745594  1  -1.2351  0  -0.431943  -0.747086  0  2.387733  0
O  O243  1  0.03599632  0.40430498  0.03254394  1  -1.234648  0  -0.431955  -0.747048  0  2.387814  0
O  O244  1  0.94871914  0.06598106  0.62248186  1  -1.170497  0  -0.358924  -0.592441  0  2.17482  0
O  O245  1  0.94871885  0.93401784  0.37751787  1  -1.170699  0  -0.358843  -0.592371  0  2.175197  0
O  O246  1  0.05128503  0.56598256  0.87751690  1  -1.170705  0  -0.358885  -0.592383  0  2.175163  0
O  O247  1  0.05127978  0.43401859  0.12248134  1  -1.170527  0  -0.358935  -0.592411  0  2.174863  0
O  O248  1  0.97425399  0.32737934  0.84288129  1  -1.203506  0  -0.369754  -0.650619  0  2.248527  0
O  O249  1  0.97425903  0.67262272  0.15711804  1  -1.203466  0  -0.369651  -0.650552  0  2.248586  0
O  O250  1  0.02574503  0.82738052  0.65711796  1  -1.20351  0  -0.369759  -0.650606  0  2.248593  0
O  O251  1  0.02574475  0.17262292  0.34288190  1  -1.203492  0  -0.3697  -0.650605  0  2.248504  0
O  O252  1  0.15155379  0.35991203  0.84613373  1  -1.167105  0  -0.377767  -0.608294  0  2.151144  0
O  O253  1  0.15155795  0.64009008  0.15386664  1  -1.16723  0  -0.377782  -0.60835  0  2.151026  0
O  O254  1  0.84844529  0.85991705  0.65386595  1  -1.167161  0  -0.377829  -0.608343  0  2.15094  0
O  O255  1  0.84844414  0.14009102  0.34613288  1  -1.16717  0  -0.377773  -0.608348  0  2.151146  0
O  O256  1  0.19171901  0.04867567  0.90252753  1  -1.080234  0  -0.17354  -0.208993  0  2.543143  0
O  O257  1  0.19171310  0.95132496  0.09747328  1  -1.079835  0  -0.173481  -0.20889  0  2.543056  0
O  O258  1  0.80828512  0.54867664  0.59747245  1  -1.079786  0  -0.173448  -0.208867  0  2.543224  0
O  O259  1  0.80827989  0.45132745  0.40252635  1  -1.080245  0  -0.173522  -0.208938  0  2.543101  0
O  O260  1  0.07646909  0.21385604  0.94360590  1  -1.205856  0  -0.400666  -0.66092  0  2.266073  0
O  O261  1  0.07646840  0.78614360  0.05639236  1  -1.205864  0  -0.400739  -0.661006  0  2.265593  0
O  O262  1  0.92353457  0.71385561  0.55639496  1  -1.205748  0  -0.400683  -0.660971  0  2.265486  0
O  O263  1  0.92352993  0.28614714  0.44360474  1  -1.205967  0  -0.40066  -0.66095  0  2.265819  0
O  O264  1  0.91788895  0.13432914  0.92643874  1  -1.223472  0  -0.417906  -0.70362  0  2.363219  0
O  O265  1  0.91788360  0.86566111  0.07356302  1  -1.223765  0  -0.417836  -0.703559  0  2.363433  0
O  O266  1  0.08211779  0.63433031  0.57356292  1  -1.223766  0  -0.417829  -0.703538  0  2.363222  0
O  O267  1  0.08211245  0.36567401  0.42643822  1  -1.223441  0  -0.417918  -0.703654  0  2.363113  0
O  O268  1  0.57614601  0.03724975  0.95779499  1  -1.224363  0  -0.406217  -0.715369  0  2.313983  0
O  O269  1  0.57613429  0.96274612  0.04221516  1  -1.224326  0  -0.406257  -0.715313  0  2.314333  0
O  O270  1  0.42386297  0.53724839  0.54221157  1  -1.224682  0  -0.406212  -0.715291  0  2.314311  0
O  O271  1  0.42385629  0.46275500  0.45779065  1  -1.224549  0  -0.406341  -0.715385  0  2.313816  0
O  O272  1  0.86444929  0.60315104  0.05621721  1  -1.211568  0  -0.412352  -0.673039  0  2.316579  0
O  O273  1  0.86444629  0.39684536  0.94377956  1  -1.211622  0  -0.412468  -0.673111  0  2.316719  0
O  O274  1  0.13555354  0.10315313  0.44377941  1  -1.211754  0  -0.412448  -0.672946  0  2.316751  0
O  O275  1  0.13555206  0.89684817  0.55621889  1  -1.211649  0  -0.412478  -0.67308  0  2.31675  0
O  O276  1  0.71667385  0.68806714  0.08675133  1  -1.217753  0  -0.376721  -0.653724  0  2.320579  0
O  O277  1  0.71667465  0.31192899  0.91324575  1  -1.217544  0  -0.376719  -0.653782  0  2.320368  0
O  O278  1  0.28332348  0.18807025  0.41324573  1  -1.2176  0  -0.376688  -0.653772  0  2.320308  0
O  O279  1  0.28332272  0.81193133  0.58675679  1  -1.217563  0  -0.376668  -0.653664  0  2.320501  0
O  O280  1  0.61363414  0.50012763  0.10094349  1  -1.092083  0  -0.180352  -0.225667  0  2.522688  0
O  O281  1  0.61363446  0.49986908  0.89905228  1  -1.092209  0  -0.180242  -0.225706  0  2.522662  0
O  O282  1  0.38636444  0.00013247  0.39905433  1  -1.092168  0  -0.180265  -0.225706  0  2.522635  0
O  O283  1  0.38636734  0.99987007  0.60094622  1  -1.092165  0  -0.180337  -0.225724  0  2.522686  0
O  O284  1  0.22872151  0.45457398  0.96007597  1  -1.200629  0  -0.403832  -0.673361  0  2.262659  0
O  O285  1  0.22872192  0.54542671  0.03992281  1  -1.200504  0  -0.403831  -0.673357  0  2.262391  0
O  O286  1  0.77127776  0.95457248  0.53992374  1  -1.200503  0  -0.403856  -0.673341  0  2.262393  0
O  O287  1  0.77127674  0.04542531  0.46007709  1  -1.200629  0  -0.403761  -0.673276  0  2.262795  0
O  O288  1  0.19377131  0.69560134  0.67460785  1  -1.218589  0  -0.623911  -0.856784  0  2.020907  0
O  O289  1  0.19376880  0.30440085  0.32539379  1  -1.218287  0  -0.623894  -0.85674  0  2.020975  0
O  O290  1  0.80622988  0.19560139  0.82539342  1  -1.218629  0  -0.623942  -0.856726  0  2.021052  0
O  O291  1  0.80623037  0.80439646  0.17460744  1  -1.21892  0  -0.623916  -0.856747  0  2.02101  0
O  O292  1  0.44787535  0.70573103  0.62392781  1  -1.243714  0  -0.607001  -0.822344  0  1.95161  0
O  O293  1  0.44787216  0.29427319  0.37607195  1  -1.243858  0  -0.607013  -0.822361  0  1.951557  0
O  O294  1  0.55212667  0.20572444  0.87607181  1  -1.243868  0  -0.607013  -0.822344  0  1.951597  0
O  O295  1  0.55212537  0.79426593  0.12392803  1  -1.243716  0  -0.607066  -0.822433  0  1.951469  0
O  O296  1  0.33855014  0.51809116  0.66915769  1  -1.238412  0  -0.61483  -0.83876  0  2.011829  0
O  O297  1  0.33854557  0.48191130  0.33084653  1  -1.238471  0  -0.614759  -0.838579  0  2.012054  0
O  O298  1  0.66145232  0.01808861  0.83084764  1  -1.239042  0  -0.614738  -0.838654  0  2.011961  0
O  O299  1  0.66145315  0.98190897  0.16915682  1  -1.238423  0  -0.614797  -0.838679  0  2.011941  0
