# generated using pymatgen
data_CdH14C14(NCl)2
_symmetry_space_group_name_H-M   'P 1'
_cell_length_a   7.35419386
_cell_length_b   9.60593760
_cell_length_c   10.31389265
_cell_angle_alpha   91.15797699
_cell_angle_beta   102.42131927
_cell_angle_gamma   94.61511846
_symmetry_Int_Tables_number   1
_chemical_formula_structural   CdH14C14(NCl)2
_chemical_formula_sum   'Cd2 H28 C28 N4 Cl4'
_cell_volume   708.72466705
_cell_formula_units_Z   2
loop_
 _symmetry_equiv_pos_site_id
 _symmetry_equiv_pos_as_xyz
  1  'x, y, z'
loop_
 _atom_site_type_symbol
 _atom_site_label
 _atom_site_symmetry_multiplicity
 _atom_site_fract_x
 _atom_site_fract_y
 _atom_site_fract_z
 _atom_site_occupancy
 _atom_site_hle17_bader_spin_density
 _atom_site_hle17_ddec_charge
 _atom_site_hle17_ddec_spin_density
 _atom_site_hle17_ddec_sum_bond_order
 _atom_site_hle17_magmom
 _atom_site_hse06_10hf_bader_spin_density
 _atom_site_hse06_10hf_ddec_charge
 _atom_site_hse06_10hf_ddec_spin_density
 _atom_site_hse06_10hf_ddec_sum_bond_order
 _atom_site_hse06_10hf_magmom
 _atom_site_hse06_bader_spin_density
 _atom_site_hse06_ddec_charge
 _atom_site_hse06_ddec_spin_density
 _atom_site_hse06_ddec_sum_bond_order
 _atom_site_hse06_magmom
 _atom_site_pbe_bader_spin_density
 _atom_site_pbe_cm5_charge
 _atom_site_pbe_ddec_charge
 _atom_site_pbe_ddec_spin_density
 _atom_site_pbe_ddec_sum_bond_order
 _atom_site_pbe_magmom
Cd  Cd0  1  0.26311756  0.07563189  0.02706064  1  0  0.947751  0  1.958011  0  0  0.776009  0  2.424393  0  0  0.822821  0  2.383499  0  0  0.598577  0.742868  0  2.452313  0
Cd  Cd1  1  0.73688431  0.92436913  0.97294160  1  0  0.947737  0  1.957983  0  0  0.775987  0  2.424356  0  0  0.822797  0  2.383466  0  0  0.598553  0.74284  0  2.452284  0
H  H2  1  0.29033462  0.63741128  0.04349532  1  0  0.114883  0  0.995804  0  0  0.121827  0  1.061938  0  0  0.125287  0  1.06082  0  0  0.094593  0.11909  0  1.063325  0
H  H3  1  0.70966082  0.36259492  0.95650216  1  0  0.114922  0  0.995751  0  0  0.121877  0  1.06187  0  0  0.125335  0  1.060753  0  0  0.094605  0.119139  0  1.063257  0
H  H4  1  0.10604796  0.66732098  0.81760668  1  0  0.101255  0  0.956068  0  0  0.110162  0  1.020402  0  0  0.112959  0  1.018413  0  0  0.104419  0.106972  0  1.023785  0
H  H5  1  0.89393928  0.33267258  0.18239214  1  0  0.101345  0  0.955967  0  0  0.110252  0  1.020277  0  0  0.113051  0  1.018286  0  0  0.104455  0.107065  0  1.023656  0
H  H6  1  0.97751033  0.45185676  0.66983029  1  0  0.100614  0  0.949497  0  0  0.11444  0  1.002187  0  0  0.117471  0  1.001533  0  0  0.110362  0.112316  0  1.002414  0
H  H7  1  0.02247978  0.54813787  0.33017190  1  0  0.100544  0  0.949549  0  0  0.114375  0  1.002246  0  0  0.117399  0  1.001604  0  0  0.11033  0.112256  0  1.002464  0
H  H8  1  0.03325807  0.21611433  0.76470900  1  0  0.079698  0  0.96622  0  0  0.085364  0  1.036139  0  0  0.087892  0  1.033967  0  0  0.107379  0.082508  0  1.039307  0
H  H9  1  0.96674620  0.78388255  0.23529254  1  0  0.079663  0  0.966244  0  0  0.085326  0  1.036164  0  0  0.087855  0  1.033993  0  0  0.10738  0.082479  0  1.039325  0
H  H10  1  0.53974430  0.48088474  0.34073755  1  0  0.128035  0  0.955859  0  0  0.148848  0  1.011446  0  0  0.150558  0  1.012038  0  0  0.099924  0.147882  0  1.010536  0
H  H11  1  0.46025858  0.51911214  0.65926281  1  0  0.128021  0  0.955833  0  0  0.148848  0  1.011413  0  0  0.150557  0  1.012004  0  0  0.099922  0.147883  0  1.010502  0
H  H12  1  0.33905777  0.57010561  0.27300108  1  0  0.123107  0  0.959168  0  0  0.142584  0  1.02527  0  0  0.143613  0  1.02619  0  0  0.098573  0.141613  0  1.02522  0
H  H13  1  0.66094091  0.42989120  0.72700250  1  0  0.123101  0  0.95916  0  0  0.142574  0  1.02528  0  0  0.14359  0  1.026215  0  0  0.098578  0.141613  0  1.02522  0
H  H14  1  0.53141486  0.58417179  0.19784955  1  0  0.130424  0  0.959219  0  0  0.149781  0  1.022045  0  0  0.15086  0  1.023414  0  0  0.095841  0.147832  0  1.02345  0
H  H15  1  0.46858721  0.41583132  0.80215471  1  0  0.130393  0  0.959283  0  0  0.149765  0  1.022104  0  0  0.150846  0  1.02347  0  0  0.095838  0.147804  0  1.023543  0
H  H16  1  0.46525498  0.19544329  0.64330187  1  0  0.089987  0  0.983413  0  0  0.100976  0  1.045677  0  0  0.103577  0  1.044715  0  0  0.085929  0.099287  0  1.046419  0
H  H17  1  0.53474520  0.80455457  0.35670197  1  0  0.08996  0  0.983523  0  0  0.100905  0  1.045858  0  0  0.103509  0  1.044886  0  0  0.085866  0.099218  0  1.046589  0
H  H18  1  0.76291015  0.09205025  0.65562629  1  0  0.085335  0  0.988545  0  0  0.091298  0  1.061617  0  0  0.093988  0  1.06049  0  0  0.083417  0.089001  0  1.063001  0
H  H19  1  0.23709154  0.90794870  0.34437296  1  0  0.085312  0  0.988545  0  0  0.091262  0  1.061621  0  0  0.09395  0  1.060498  0  0  0.083414  0.088974  0  1.06299  0
H  H20  1  0.89010917  0.06858688  0.44842192  1  0  0.08439  0  0.959245  0  0  0.09734  0  1.017605  0  0  0.0998  0  1.016671  0  0  0.094397  0.09554  0  1.018267  0
H  H21  1  0.10989262  0.93141313  0.55157737  1  0  0.084452  0  0.959368  0  0  0.097404  0  1.017707  0  0  0.099862  0  1.016774  0  0  0.09443  0.095605  0  1.01837  0
H  H22  1  0.70739079  0.14286152  0.23483740  1  0  0.095815  0  0.998556  0  0  0.101225  0  1.072507  0  0  0.104141  0  1.070694  0  0  0.084256  0.098924  0  1.074301  0
H  H23  1  0.29261511  0.85713752  0.76515767  1  0  0.095789  0  0.998546  0  0  0.10122  0  1.072458  0  0  0.104136  0  1.070644  0  0  0.08423  0.09892  0  1.074253  0
H  H24  1  0.18953016  0.27489007  0.52449303  1  0  0.10552  0  0.948847  0  0  0.129457  0  1.007012  0  0  0.130586  0  1.007114  0  0  0.090638  0.128758  0  1.006618  0
H  H25  1  0.81047165  0.72510994  0.47550433  1  0  0.105524  0  0.948826  0  0  0.129464  0  1.006982  0  0  0.130595  0  1.007083  0  0  0.090641  0.128764  0  1.006592  0
H  H26  1  0.12968267  0.25753317  0.34822883  1  0  0.111177  0  0.976916  0  0  0.129592  0  1.044933  0  0  0.130718  0  1.045335  0  0  0.082218  0.128464  0  1.045115  0
H  H27  1  0.87031892  0.74246475  0.65176941  1  0  0.111204  0  0.976906  0  0  0.129613  0  1.044924  0  0  0.13074  0  1.045325  0  0  0.082231  0.128485  0  1.045105  0
H  H28  1  0.25122172  0.41443764  0.42825652  1  0  0.09194  0  0.965405  0  0  0.114762  0  1.0293  0  0  0.115878  0  1.028955  0  0  0.083905  0.113989  0  1.029323  0
H  H29  1  0.74877858  0.58556130  0.57174252  1  0  0.091915  0  0.965439  0  0  0.114733  0  1.029335  0  0  0.115848  0  1.028993  0  0  0.083891  0.113962  0  1.029358  0
C  C30  1  0.25974168  0.40997498  0.02441712  1  0  0.143464  0  3.740711  0  0  0.144872  0  3.979503  0  0  0.148917  0  4.000727  0  0  0.116324  0.142446  0  3.964749  0
C  C31  1  0.74026150  0.59002503  0.97558433  1  0  0.143502  0  3.740687  0  0  0.144838  0  3.979561  0  0  0.148893  0  4.000775  0  0  0.116305  0.14242  0  3.964795  0
C  C32  1  0.23217123  0.54519920  0.98032312  1  0  -0.125739  0  3.665101  0  0  -0.144966  0  3.908995  0  0  -0.151334  0  3.930716  0  0  -0.078294  -0.140613  0  3.893814  0
C  C33  1  0.76782788  0.45480181  0.01967578  1  0  -0.125791  0  3.665024  0  0  -0.145009  0  3.908932  0  0  -0.151379  0  3.930651  0  0  -0.078305  -0.140658  0  3.893748  0
C  C34  1  0.12904523  0.56226004  0.85211868  1  0  0.006111  0  3.680094  0  0  -0.012529  0  3.929706  0  0  -0.009725  0  3.94818  0  0  -0.063559  -0.013595  0  3.917496  0
C  C35  1  0.87095086  0.43773883  0.14788358  1  0  0.005938  0  3.680033  0  0  -0.012665  0  3.929601  0  0  -0.009861  0  3.948072  0  0  -0.063564  -0.013733  0  3.917396  0
C  C36  1  0.05700303  0.44404956  0.77116886  1  0  -0.112166  0  3.713711  0  0  -0.123803  0  3.961462  0  0  -0.129617  0  3.981627  0  0  -0.07735  -0.120014  0  3.94737  0
C  C37  1  0.94299626  0.55595353  0.22883303  1  0  -0.112062  0  3.713736  0  0  -0.123726  0  3.961512  0  0  -0.129535  0  3.981678  0  0  -0.07735  -0.11994  0  3.947422  0
C  C38  1  0.08826757  0.31258370  0.82247263  1  0  0.136273  0  3.701782  0  0  0.105239  0  3.953905  0  0  0.11179  0  3.97139  0  0  0.053285  0.101044  0  3.943262  0
C  C39  1  0.91173293  0.68741733  0.17752649  1  0  0.136384  0  3.701749  0  0  0.105349  0  3.953872  0  0  0.111902  0  3.971354  0  0  0.05332  0.101145  0  3.943231  0
C  C40  1  0.37000733  0.38582891  0.16037081  1  0  0.299033  0  3.655596  0  0  0.290388  0  3.910733  0  0  0.303775  0  3.924118  0  0  0.161158  0.280661  0  3.901802  0
C  C41  1  0.62999624  0.61417525  0.83963371  1  0  0.299184  0  3.65555  0  0  0.290549  0  3.910707  0  0  0.303931  0  3.924088  0  0  0.161211  0.280821  0  3.901777  0
C  C42  1  0.44999848  0.51119647  0.24853464  1  0  -0.393155  0  3.709354  0  0  -0.472948  0  3.942231  0  0  -0.477491  0  3.94967  0  0  -0.240709  -0.469092  0  3.938154  0
C  C43  1  0.55000488  0.48880560  0.75147077  1  0  -0.393145  0  3.709485  0  0  -0.47297  0  3.942378  0  0  -0.477498  0  3.949825  0  0  -0.240724  -0.469124  0  3.938287  0
C  C44  1  0.49243998  0.22293075  0.32026100  1  0  0.146134  0  3.793198  0  0  0.146447  0  4.032594  0  0  0.150346  0  4.057104  0  0  0.077423  0.143891  0  4.016321  0
C  C45  1  0.50755755  0.77706817  0.67973566  1  0  0.146044  0  3.793198  0  0  0.146367  0  4.032623  0  0  0.150264  0  4.057134  0  0  0.077347  0.143812  0  4.016349  0
C  C46  1  0.42068566  0.23920034  0.43565487  1  0  0.059259  0  3.723804  0  0  0.085474  0  3.954148  0  0  0.083807  0  3.97904  0  0  -0.014768  0.086362  0  3.937803  0
C  C47  1  0.57931595  0.76079759  0.56434144  1  0  0.059344  0  3.723817  0  0  0.085513  0  3.95421  0  0  0.083846  0  3.979101  0  0  -0.014787  0.086402  0  3.937864  0
C  C48  1  0.52243808  0.19057806  0.55435102  1  0  -0.12234  0  3.763399  0  0  -0.138345  0  4.003342  0  0  -0.141275  0  4.026608  0  0  -0.100615  -0.137078  0  3.988282  0
C  C49  1  0.47756122  0.80942503  0.44564990  1  0  -0.122272  0  3.763586  0  0  -0.138243  0  4.003537  0  0  -0.141173  0  4.026804  0  0  -0.100475  -0.136974  0  3.98848  0
C  C50  1  0.69111418  0.13150517  0.56162747  1  0  -0.080146  0  3.791843  0  0  -0.097312  0  4.046897  0  0  -0.099986  0  4.070298  0  0  -0.103879  -0.094738  0  4.030908  0
C  C51  1  0.30888960  0.86850110  0.43837520  1  0  -0.08004  0  3.791873  0  0  -0.097176  0  4.046899  0  0  -0.09985  0  4.070297  0  0  -0.103873  -0.094604  0  4.030919  0
C  C52  1  0.76027000  0.11677224  0.44657991  1  0  -0.061605  0  3.788822  0  0  -0.075021  0  4.039298  0  0  -0.077038  0  4.061946  0  0  -0.097541  -0.073361  0  4.023174  0
C  C53  1  0.23973071  0.88323088  0.55341929  1  0  -0.061788  0  3.789071  0  0  -0.075211  0  4.039553  0  0  -0.077227  0  4.062198  0  0  -0.097597  -0.073552  0  4.023433  0
C  C54  1  0.65904137  0.15953525  0.32610421  1  0  -0.154205  0  3.762392  0  0  -0.176126  0  4.017373  0  0  -0.180165  0  4.039595  0  0  -0.104496  -0.173323  0  4.002116  0
C  C55  1  0.34095724  0.84046055  0.67389351  1  0  -0.154087  0  3.762418  0  0  -0.176008  0  4.017403  0  0  -0.180045  0  4.039622  0  0  -0.104437  -0.173207  0  4.002148  0
C  C56  1  0.23802983  0.29976617  0.43354012  1  0  -0.322996  0  3.734552  0  0  -0.405224  0  3.968414  0  0  -0.406817  0  3.978395  0  0  -0.244918  -0.403601  0  3.961235  0
C  C57  1  0.76197317  0.70023177  0.56645737  1  0  -0.323036  0  3.734496  0  0  -0.40525  0  3.96837  0  0  -0.406843  0  3.978351  0  0  -0.244924  -0.403625  0  3.961192  0
N  N58  1  0.18644658  0.29662911  0.94544838  1  0  -0.334485  0  3.28425  0  0  -0.265366  0  3.538618  0  0  -0.283502  0  3.559316  0  0  -0.322797  -0.25282  0  3.524356  0
N  N59  1  0.81355102  0.70337082  0.05455317  1  0  -0.334536  0  3.284219  0  0  -0.265377  0  3.538592  0  0  -0.283517  0  3.559284  0  0  -0.322792  -0.252835  0  3.524333  0
N  N60  1  0.39418892  0.25865003  0.19318922  1  0  -0.3667  0  3.192604  0  0  -0.301127  0  3.449596  0  0  -0.322109  0  3.468033  0  0  -0.307078  -0.286377  0  3.437375  0
N  N61  1  0.60581576  0.74135105  0.80681055  1  0  -0.366864  0  3.192564  0  0  -0.301266  0  3.449521  0  0  -0.322246  0  3.467959  0  0  -0.307104  -0.286514  0  3.4373  0
Cl  Cl62  1  0.99362898  0.04755697  0.16580255  1  0  -0.554897  0  1.016086  0  0  -0.488793  0  1.303553  0  0  -0.506599  0  1.281804  0  0  -0.279153  -0.474847  0  1.319824  0
Cl  Cl63  1  0.00637720  0.95244518  0.83419651  1  0  -0.554907  0  1.016041  0  0  -0.488813  0  1.303516  0  0  -0.50662  0  1.281767  0  0  -0.279164  -0.474863  0  1.319785  0
Cl  Cl64  1  0.45177010  0.87129106  0.10705874  1  0  -0.551769  0  1.010967  0  0  -0.484514  0  1.294929  0  0  -0.503115  0  1.27545  0  0  -0.287452  -0.469981  0  1.309166  0
Cl  Cl65  1  0.54823448  0.12870897  0.89294196  1  0  -0.551751  0  1.010911  0  0  -0.484517  0  1.294892  0  0  -0.503119  0  1.275415  0  0  -0.287461  -0.469982  0  1.309132  0
