# generated using pymatgen
data_CdH14C13(NCl)2
_symmetry_space_group_name_H-M   'P 1'
_cell_length_a   8.58380537
_cell_length_b   11.92664980
_cell_length_c   13.69100000
_cell_angle_alpha   85.38865706
_cell_angle_beta   77.18557848
_cell_angle_gamma   82.46883691
_symmetry_Int_Tables_number   1
_chemical_formula_structural   CdH14C13(NCl)2
_chemical_formula_sum   'Cd4 H56 C52 N8 Cl8'
_cell_volume   1353.01980073
_cell_formula_units_Z   4
loop_
 _symmetry_equiv_pos_site_id
 _symmetry_equiv_pos_as_xyz
  1  'x, y, z'
loop_
 _atom_site_type_symbol
 _atom_site_label
 _atom_site_symmetry_multiplicity
 _atom_site_fract_x
 _atom_site_fract_y
 _atom_site_fract_z
 _atom_site_occupancy
 _atom_site_hle17_bader_spin_density
 _atom_site_hle17_ddec_charge
 _atom_site_hle17_ddec_spin_density
 _atom_site_hle17_ddec_sum_bond_order
 _atom_site_hle17_magmom
 _atom_site_hse06_10hf_bader_spin_density
 _atom_site_hse06_10hf_ddec_charge
 _atom_site_hse06_10hf_ddec_spin_density
 _atom_site_hse06_10hf_ddec_sum_bond_order
 _atom_site_hse06_10hf_magmom
 _atom_site_hse06_bader_spin_density
 _atom_site_hse06_ddec_charge
 _atom_site_hse06_ddec_spin_density
 _atom_site_hse06_ddec_sum_bond_order
 _atom_site_hse06_magmom
 _atom_site_pbe_bader_charge
 _atom_site_pbe_bader_spin_density
 _atom_site_pbe_cm5_charge
 _atom_site_pbe_ddec_charge
 _atom_site_pbe_ddec_spin_density
 _atom_site_pbe_ddec_sum_bond_order
 _atom_site_pbe_magmom
Cd  Cd0  1  0.86026706  0.11623356  0.06664898  1  0  0.951198  0  1.910894  0  0  0.799366  0  2.349604  0  0  0.842882  0  2.312255  0  1.118897  0  0.591347  0.769038  0  2.374592  0
Cd  Cd1  1  0.13973398  0.88376653  0.93335058  1  0  0.951194  0  1.910895  0  0  0.799359  0  2.349606  0  0  0.842875  0  2.31226  0  1.11884  0  0.591342  0.769032  0  2.374594  0
Cd  Cd2  1  0.91072104  0.39938888  0.94307496  1  0  0.947529  0  1.925642  0  0  0.798042  0  2.36637  0  0  0.840581  0  2.329877  0  1.117039  0  0.584381  0.768396  0  2.390753  0
Cd  Cd3  1  0.08928077  0.60061376  0.05692504  1  0  0.947488  0  1.925745  0  0  0.797998  0  2.366461  0  0  0.840531  0  2.329981  0  1.117129  0  0.584348  0.768351  0  2.390845  0
H  H4  1  0.75297282  0.29332717  0.19405333  1  0  0.304827  0  0.913696  0  0  0.290415  0  0.978433  0  0  0.296203  0  0.974837  0  0.443984  0  0.279032  0.286263  0  0.981057  0
H  H5  1  0.24702689  0.70667377  0.80594708  1  0  0.304806  0  0.913747  0  0  0.29039  0  0.978476  0  0  0.296178  0  0.974878  0  0.444015  0  0.279044  0.286238  0  0.981101  0
H  H6  1  0.61153523  0.20756852  0.21520185  1  0  0.303244  0  0.897221  0  0  0.292311  0  0.956645  0  0  0.296982  0  0.955039  0  0.457257  0  0.294202  0.288998  0  0.957824  0
H  H7  1  0.38846461  0.79243157  0.78479861  1  0  0.303245  0  0.897216  0  0  0.292309  0  0.956644  0  0  0.296979  0  0.955039  0  0.457254  0  0.294198  0.288998  0  0.957822  0
H  H8  1  0.62324007  0.03743853  0.33746146  1  0  0.101427  0  0.956416  0  0  0.113282  0  1.016227  0  0  0.115316  0  1.017184  0  0.059233  0  0.100367  0.111766  0  1.015752  0
H  H9  1  0.37676898  0.96255649  0.66253514  1  0  0.101505  0  0.956374  0  0  0.113365  0  1.016173  0  0  0.115398  0  1.01713  0  0.059173  0  0.100378  0.111849  0  1.015695  0
H  H10  1  0.67212029  0.98632949  0.50826698  1  0  0.088679  0  0.952492  0  0  0.101849  0  1.011749  0  0  0.104228  0  1.011289  0  0.060479  0  0.098278  0.100159  0  1.012106  0
H  H11  1  0.32788237  0.01366806  0.49173107  1  0  0.088718  0  0.952431  0  0  0.101862  0  1.011721  0  0  0.104238  0  1.011263  0  0.060498  0  0.098289  0.100171  0  1.012078  0
H  H12  1  0.95562033  0.26357810  0.48211538  1  0  0.090579  0  0.958211  0  0  0.102458  0  1.019096  0  0  0.104807  0  1.018868  0  0.036352  0  0.098069  0.100782  0  1.019314  0
H  H13  1  0.04437432  0.73642454  0.51788635  1  0  0.090586  0  0.958225  0  0  0.102464  0  1.019108  0  0  0.104813  0  1.01888  0  0.036332  0  0.098064  0.100787  0  1.019329  0
H  H14  1  0.90242732  0.31738052  0.31212209  1  0  0.104353  0  0.960587  0  0  0.114752  0  1.023767  0  0  0.117591  0  1.023053  0  0.0822  0  0.098986  0.112654  0  1.024462  0
H  H15  1  0.09756733  0.68262212  0.68787891  1  0  0.104348  0  0.96066  0  0  0.11473  0  1.023831  0  0  0.117567  0  1.023118  0  0.08187  0  0.098976  0.112632  0  1.024525  0
H  H16  1  0.59119696  0.23376465  0.69110005  1  0  0.089504  0  0.942823  0  0  0.105008  0  0.996618  0  0  0.107427  0  0.995985  0  0.049516  0  0.098806  0.103279  0  0.997118  0
H  H17  1  0.40880597  0.76623121  0.30890027  1  0  0.089483  0  0.942775  0  0  0.104973  0  0.9966  0  0  0.107391  0  0.995968  0  0.049645  0  0.098779  0.103245  0  0.9971  0
H  H18  1  0.37332473  0.19778880  0.83803298  1  0  0.107699  0  0.95359  0  0  0.117471  0  1.015029  0  0  0.120633  0  1.01378  0  0.098993  0  0.096268  0.115176  0  1.01607  0
H  H19  1  0.62667885  0.80221044  0.16196774  1  0  0.107797  0  0.953478  0  0  0.11752  0  1.014967  0  0  0.120682  0  1.013718  0  0.098957  0  0.096305  0.115224  0  1.01601  0
H  H20  1  0.58600992  0.85190686  0.86525787  1  0  0.100757  0  0.967441  0  0  0.109118  0  1.03461  0  0  0.11224  0  1.033276  0  0.038637  0  0.091247  0.106843  0  1.035738  0
H  H21  1  0.41398437  0.14809070  0.13474426  1  0  0.100722  0  0.967419  0  0  0.109077  0  1.034604  0  0  0.112197  0  1.033275  0  0.038914  0  0.091238  0.106824  0  1.0357  0
H  H22  1  0.27308431  0.07380566  0.97273049  1  0  0.303576  0  0.934752  0  0  0.288903  0  0.999385  0  0  0.295005  0  0.995342  0  0.454454  0  0.270617  0.284517  0  1.00237  0
H  H23  1  0.72691540  0.92619528  0.02727066  1  0  0.303478  0  0.934707  0  0  0.288821  0  0.999341  0  0  0.29492  0  0.995306  0  0.454469  0  0.270574  0.284437  0  1.00232  0
H  H24  1  0.37927455  0.95300290  0.00179892  1  0  0.305088  0  0.904716  0  0  0.293615  0  0.962028  0  0  0.298888  0  0.95933  0  0.452821  0  0.289777  0.289864  0  0.963985  0
H  H25  1  0.62072382  0.04699888  0.99820308  1  0  0.305057  0  0.904674  0  0  0.293584  0  0.961986  0  0  0.298857  0  0.959288  0  0.452835  0  0.289761  0.289833  0  0.963944  0
H  H26  1  0.88991150  0.23938585  0.81033872  1  0  0.306592  0  0.921742  0  0  0.292535  0  0.985708  0  0  0.29861  0  0.981654  0  0.453472  0  0.276628  0.288194  0  0.988632  0
H  H27  1  0.11008884  0.76061848  0.18966137  1  0  0.306664  0  0.921681  0  0  0.292588  0  0.98567  0  0  0.29866  0  0.981625  0  0.453416  0  0.276641  0.288246  0  0.98859  0
H  H28  1  0.80004074  0.36319791  0.77251979  1  0  0.295129  0  0.911883  0  0  0.286004  0  0.967563  0  0  0.290822  0  0.9656  0  0.440312  0  0.291356  0.282613  0  0.96893  0
H  H29  1  0.19996199  0.63680642  0.22747924  1  0  0.295112  0  0.911922  0  0  0.285983  0  0.9676  0  0  0.2908  0  0.965637  0  0.440308  0  0.291337  0.282593  0  0.968964  0
H  H30  1  0.15219109  0.16303172  0.73391344  1  0  0.103999  0  0.979363  0  0  0.112021  0  1.045617  0  0  0.115297  0  1.044283  0  0.086671  0  0.090854  0.109653  0  1.046698  0
H  H31  1  0.84780834  0.83697092  0.26608763  1  0  0.104026  0  0.979422  0  0  0.112046  0  1.04568  0  0  0.115322  0  1.044346  0  0.086641  0  0.09088  0.109677  0  1.046764  0
H  H32  1  0.38896720  0.18046193  0.59375742  1  0  0.084326  0  0.971504  0  0  0.094667  0  1.037053  0  0  0.09689  0  1.036837  0  0.05554  0  0.094741  0.093064  0  1.037285  0
H  H33  1  0.61103370  0.81953902  0.40624282  1  0  0.084325  0  0.9715  0  0  0.094659  0  1.037057  0  0  0.096882  0  1.036841  0  0.055537  0  0.094734  0.093056  0  1.037289  0
H  H34  1  0.18824646  0.51668282  0.51608313  1  0  0.087988  0  0.953377  0  0  0.100737  0  1.013584  0  0  0.10327  0  1.012998  0  0.043596  0  0.096611  0.098922  0  1.014056  0
H  H35  1  0.81175577  0.48331727  0.48391553  1  0  0.087986  0  0.953331  0  0  0.100732  0  1.013549  0  0  0.103267  0  1.01296  0  0.043627  0  0.09661  0.098917  0  1.014021  0
H  H36  1  0.95216015  0.49993356  0.65577518  1  0  0.096406  0  0.975788  0  0  0.107307  0  1.038478  0  0  0.109326  0  1.039482  0  0.077178  0  0.094934  0.105826  0  1.03792  0
H  H37  1  0.04784287  0.50006907  0.34422393  1  0  0.096331  0  0.975783  0  0  0.107243  0  1.038478  0  0  0.109268  0  1.039474  0  0.0772  0  0.094912  0.105745  0  1.037936  0
H  H38  1  0.53150255  0.27866225  0.45979394  1  0  0.079379  0  0.975989  0  0  0.093938  0  1.044201  0  0  0.093741  0  1.046794  0  0.073147  0  0.090935  0.094036  0  1.042471  0
H  H39  1  0.46849836  0.72133869  0.54020485  1  0  0.079371  0  0.975971  0  0  0.093907  0  1.044209  0  0  0.093715  0  1.046806  0  0.073167  0  0.090915  0.094005  0  1.042478  0
H  H40  1  0.52353500  0.42424259  0.47321137  1  0  0.080584  0  0.954028  0  0  0.098341  0  1.016448  0  0  0.099313  0  1.015936  0  0.023637  0  0.092971  0.097637  0  1.016828  0
H  H41  1  0.47646590  0.57575835  0.52678742  1  0  0.08059  0  0.954103  0  0  0.09834  0  1.016519  0  0  0.099318  0  1.016009  0  0.023701  0  0.092975  0.097637  0  1.016899  0
H  H42  1  0.55964046  0.51734514  0.31106682  1  0  0.098036  0  0.953066  0  0  0.109532  0  1.013165  0  0  0.112011  0  1.012753  0  0.072053  0  0.097685  0.107767  0  1.013481  0
H  H43  1  0.44035805  0.48265581  0.68893303  1  0  0.098034  0  0.953074  0  0  0.109535  0  1.013168  0  0  0.112013  0  1.012755  0  0.072036  0  0.097693  0.107775  0  1.013472  0
H  H44  1  0.23798728  0.37483329  0.05530271  1  0  0.302783  0  0.93815  0  0  0.288314  0  1.002443  0  0  0.29456  0  0.998183  0  0.457411  0  0.267756  0.283861  0  1.005486  0
H  H45  1  0.76201229  0.62516850  0.94469621  1  0  0.302745  0  0.938192  0  0  0.288293  0  1.002462  0  0  0.294537  0  0.998204  0  0.457404  0  0.267735  0.283842  0  1.005504  0
H  H46  1  0.37980881  0.46076980  0.01847444  1  0  0.300642  0  0.900614  0  0  0.290067  0  0.959284  0  0  0.295696  0  0.955364  0  0.423217  0  0.288473  0.286014  0  0.962224  0
H  H47  1  0.62019209  0.53923114  0.98152508  1  0  0.300644  0  0.900584  0  0  0.290073  0  0.959248  0  0  0.295701  0  0.955328  0  0.423251  0  0.288466  0.286019  0  0.962189  0
H  H48  1  0.48940741  0.55249436  0.14508253  1  0  0.101815  0  0.961355  0  0  0.112417  0  1.022944  0  0  0.115863  0  1.020723  0  0.079379  0  0.093323  0.109886  0  1.024751  0
H  H49  1  0.51058991  0.44750658  0.85491821  1  0  0.101806  0  0.961345  0  0  0.112417  0  1.022922  0  0  0.115865  0  1.0207  0  0.079358  0  0.093326  0.109885  0  1.024731  0
H  H50  1  0.17568151  0.29029171  0.21608156  1  0  0.103294  0  0.960967  0  0  0.113214  0  1.02504  0  0  0.116151  0  1.023776  0  0.077943  0  0.098996  0.11109  0  1.026075  0
H  H51  1  0.82431594  0.70970839  0.78391776  1  0  0.103331  0  0.960938  0  0  0.113247  0  1.025007  0  0  0.116185  0  1.023742  0  0.077967  0  0.099005  0.111123  0  1.026042  0
H  H52  1  0.24496829  0.25592253  0.38387095  1  0  0.089301  0  0.96005  0  0  0.100966  0  1.021485  0  0  0.103329  0  1.020996  0  0.047672  0  0.098215  0.099289  0  1.021847  0
H  H53  1  0.75503022  0.74407842  0.61612890  1  0  0.089291  0  0.960073  0  0  0.100953  0  1.021512  0  0  0.103316  0  1.021023  0  0.047673  0  0.098221  0.099277  0  1.021873  0
H  H54  1  0.80602173  0.88991284  0.71908822  1  0  0.083786  0  0.972708  0  0  0.095096  0  1.037539  0  0  0.097113  0  1.037144  0  0.048498  0  0.094554  0.093682  0  1.037806  0
H  H55  1  0.19397193  0.11008133  0.28091205  1  0  0.083812  0  0.972728  0  0  0.095105  0  1.037578  0  0  0.097125  0  1.037182  0  0.0485  0  0.094523  0.093689  0  1.037846  0
H  H56  1  0.91653920  0.15373646  0.63124887  1  0  0.085326  0  0.952719  0  0  0.100937  0  1.017424  0  0  0.101808  0  1.017628  0  0.041154  0  0.091259  0.100281  0  1.017308  0
H  H57  1  0.08345601  0.84626279  0.36875375  1  0  0.085336  0  0.952736  0  0  0.100942  0  1.017473  0  0  0.101816  0  1.017676  0  0.041083  0  0.091243  0.100286  0  1.017357  0
H  H58  1  0.94364537  0.01102219  0.60320833  1  0  0.088164  0  0.953763  0  0  0.105226  0  1.015114  0  0  0.105332  0  1.016938  0  0.050656  0  0.09436  0.105106  0  1.013899  0
H  H59  1  0.05635448  0.98897790  0.39679066  1  0  0.088169  0  0.953717  0  0  0.105239  0  1.015079  0  0  0.105344  0  1.016903  0  0.050709  0  0.094344  0.105118  0  1.013864  0
C  C60  1  0.76079433  0.18042720  0.31359713  1  0  0.274508  0  3.797405  0  0  0.271723  0  4.043318  0  0  0.278793  0  4.065154  0  0.204  0  0.077822  0.266822  0  4.028509  0
C  C61  1  0.23920832  0.81957035  0.68640165  1  0  0.274586  0  3.797206  0  0  0.271816  0  4.043077  0  0  0.278891  0  4.064899  0  0.203556  0  0.077855  0.266914  0  4.028271  0
C  C62  1  0.69615680  0.08710360  0.36938512  1  0  -0.166525  0  3.733793  0  0  -0.181974  0  3.981252  0  0  -0.185935  0  4.001228  0  0.085739  0  -0.098125  -0.17927  0  3.96781  0
C  C63  1  0.30384705  0.91289395  0.63061277  1  0  -0.166689  0  3.733746  0  0  -0.182146  0  3.98119  0  0  -0.186109  0  4.001161  0  0.086263  0  -0.098189  -0.179441  0  3.967745  0
C  C64  1  0.72352582  0.05898152  0.46549636  1  0  -0.109052  0  3.759786  0  0  -0.128151  0  4.007139  0  0  -0.129227  0  4.027252  0  -0.136558  0  -0.092355  -0.127281  0  3.99344  0
C  C65  1  0.27647684  0.94101604  0.53450315  1  0  -0.109034  0  3.759771  0  0  -0.128129  0  4.007089  0  0  -0.129205  0  4.027206  0  -0.136769  0  -0.09235  -0.12726  0  3.993391  0
C  C66  1  0.81731769  0.12134320  0.50797606  1  0  0.082267  0  3.754242  0  0  0.102138  0  3.993598  0  0  0.101347  0  4.017541  0  -0.016114  0  -0.016497  0.102565  0  3.977363  0
C  C67  1  0.18268125  0.87865520  0.49202391  1  0  0.082154  0  3.754406  0  0  0.102122  0  3.993636  0  0  0.101332  0  4.017577  0  -0.016198  0  -0.016535  0.10255  0  3.977401  0
C  C68  1  0.88270393  0.21343449  0.45058893  1  0  -0.118711  0  3.765586  0  0  -0.136914  0  4.011282  0  0  -0.13811  0  4.031772  0  0.011724  0  -0.095516  -0.13597  0  3.997333  0
C  C69  1  0.11729219  0.78656645  0.54941271  1  0  -0.118683  0  3.765765  0  0  -0.136913  0  4.011411  0  0  -0.13811  0  4.031902  0  0.012012  0  -0.095471  -0.135971  0  3.997461  0
C  C70  1  0.85521418  0.24314546  0.35452710  1  0  -0.169847  0  3.736159  0  0  -0.186306  0  3.983532  0  0  -0.190977  0  4.004158  0  -0.063583  0  -0.100407  -0.183105  0  3.969671  0
C  C71  1  0.14478208  0.75685464  0.64547312  1  0  -0.16982  0  3.736199  0  0  -0.186259  0  3.983561  0  0  -0.190932  0  4.004183  0  -0.063256  0  -0.100402  -0.183059  0  3.969701  0
C  C72  1  0.59039849  0.14931200  0.72838793  1  0  -0.104225  0  3.7637  0  0  -0.12316  0  4.012749  0  0  -0.123991  0  4.033598  0  -0.064168  0  -0.094854  -0.122448  0  3.998547  0
C  C73  1  0.40960192  0.85068471  0.27161196  1  0  -0.104166  0  3.763758  0  0  -0.123083  0  4.012799  0  0  -0.123912  0  4.033648  0  -0.064422  0  -0.094812  -0.122373  0  3.998598  0
C  C74  1  0.46711261  0.12971953  0.81092043  1  0  -0.171453  0  3.739729  0  0  -0.188712  0  3.990746  0  0  -0.193451  0  4.011024  0  -0.042672  0  -0.104531  -0.185518  0  3.977107  0
C  C75  1  0.53288766  0.87027803  0.18908014  1  0  -0.171514  0  3.739622  0  0  -0.188729  0  3.990649  0  0  -0.193469  0  4.010926  0  -0.04252  0  -0.104542  -0.185537  0  3.977011  0
C  C76  1  0.46505229  0.02233658  0.86073107  1  0  0.265571  0  3.814696  0  0  0.263133  0  4.061537  0  0  0.270492  0  4.083065  0  0.256107  0  0.069411  0.258056  0  4.046919  0
C  C77  1  0.53494545  0.97766182  0.13927052  1  0  0.2655  0  3.81487  0  0  0.263046  0  4.061725  0  0  0.270406  0  4.083251  0  0.255935  0  0.069361  0.257968  0  4.047113  0
C  C78  1  0.58609952  0.93525001  0.82587252  1  0  -0.190424  0  3.764522  0  0  -0.208562  0  4.021225  0  0  -0.213311  0  4.041349  0  -0.001357  0  -0.114512  -0.205375  0  4.007768  0
C  C79  1  0.41389864  0.06474585  0.17412773  1  0  -0.190331  0  3.764626  0  0  -0.20846  0  4.021325  0  0  -0.213208  0  4.041451  0  -0.001586  0  -0.114462  -0.205282  0  4.00786  0
C  C80  1  0.03789725  0.33039728  0.70404907  1  0  0.272082  0  3.81381  0  0  0.268001  0  4.061983  0  0  0.27509  0  4.083569  0  0.269608  0  0.073988  0.263096  0  4.047353  0
C  C81  1  0.96210337  0.66960536  0.29595183  1  0  0.271939  0  3.814061  0  0  0.267922  0  4.062131  0  0  0.27501  0  4.08372  0  0.269549  0  0.074014  0.263018  0  4.047497  0
C  C82  1  0.16126352  0.24073843  0.68631705  1  0  -0.172367  0  3.753984  0  0  -0.188751  0  4.001827  0  0  -0.193632  0  4.022552  0  -0.015931  0  -0.105993  -0.185462  0  3.987901  0
C  C83  1  0.83873710  0.75926421  0.31368312  1  0  -0.172323  0  3.754059  0  0  -0.188724  0  4.001872  0  0  -0.193604  0  4.022598  0  -0.015817  0  -0.105994  -0.185435  0  3.987947  0
C  C84  1  0.29362092  0.25106104  0.60752407  1  0  -0.116539  0  3.786561  0  0  -0.135085  0  4.031233  0  0  -0.136472  0  4.052995  0  -0.057906  0  -0.098286  -0.133993  0  4.016402  0
C  C85  1  0.70638118  0.74893990  0.39247601  1  0  -0.116564  0  3.78658  0  0  -0.1351  0  4.031261  0  0  -0.136486  0  4.05302  0  -0.057967  0  -0.098278  -0.134007  0  4.016428  0
C  C86  1  0.30752208  0.35015659  0.54593002  1  0  0.070241  0  3.785524  0  0  0.090691  0  4.02417  0  0  0.089311  0  4.048807  0  -0.013355  0  -0.024818  0.091543  0  4.007467  0
C  C87  1  0.69247883  0.64984435  0.45406876  1  0  0.070242  0  3.785569  0  0  0.090668  0  4.024222  0  0  0.089296  0  4.048865  0  -0.013422  0  -0.02486  0.091523  0  4.00752  0
C  C88  1  0.18199874  0.43908961  0.56414869  1  0  -0.110002  0  3.769384  0  0  -0.130316  0  4.019153  0  0  -0.131739  0  4.040387  0  -0.062393  0  -0.09652  -0.129195  0  4.004686  0
C  C89  1  0.81800455  0.56091134  0.43585050  1  0  -0.110081  0  3.769375  0  0  -0.130391  0  4.019165  0  0  -0.131815  0  4.040399  0  -0.062377  0  -0.096548  -0.129269  0  4.004692  0
C  C90  1  0.04841331  0.42984177  0.64214606  1  0  -0.175037  0  3.755577  0  0  -0.191914  0  4.006034  0  0  -0.1963  0  4.027021  0  -0.043595  0  -0.10755  -0.188937  0  3.991895  0
C  C91  1  0.95158970  0.57016086  0.35785304  1  0  -0.174818  0  3.755596  0  0  -0.191723  0  4.00601  0  0  -0.196113  0  4.026994  0  -0.043586  0  -0.107515  -0.188731  0  3.991878  0
C  C92  1  0.45171851  0.35887424  0.46076493  1  0  -0.195735  0  3.750417  0  0  -0.245827  0  3.992749  0  0  -0.245989  0  4.005033  0  0.001391  0  -0.15933  -0.245585  0  3.984375  0
C  C93  1  0.54828267  0.64112501  0.53923467  1  0  -0.195713  0  3.75044  0  0  -0.245763  0  3.992733  0  0  -0.245955  0  4.005057  0  0.001662  0  -0.159302  -0.245527  0  3.984369  0
C  C94  1  0.47374535  0.46771563  0.29157722  1  0  -0.107307  0  3.754344  0  0  -0.12662  0  4.0001  0  0  -0.127137  0  4.020001  0  -0.033982  0  -0.097502  -0.126116  0  3.986559  0
C  C95  1  0.52625316  0.53228531  0.70842263  1  0  -0.107318  0  3.754323  0  0  -0.126639  0  4.00008  0  0  -0.12716  0  4.019991  0  -0.033978  0  -0.097524  -0.126132  0  3.986534  0
C  C96  1  0.43512280  0.48734113  0.19731551  1  0  -0.188392  0  3.767016  0  0  -0.204705  0  4.020686  0  0  -0.20892  0  4.039457  0  -0.09349  0  -0.112014  -0.201928  0  4.008184  0
C  C97  1  0.56487705  0.51265897  0.80268421  1  0  -0.18833  0  3.766971  0  0  -0.204637  0  4.020651  0  0  -0.208853  0  4.03942  0  -0.093469  0  -0.111985  -0.20186  0  4.008149  0
C  C98  1  0.32917049  0.42236067  0.16932214  1  0  0.276933  0  3.819854  0  0  0.270478  0  4.072037  0  0  0.278012  0  4.093758  0  0.301657  0  0.073172  0.265273  0  4.057309  0
C  C99  1  0.67082936  0.57763942  0.83067758  1  0  0.276915  0  3.819871  0  0  0.270436  0  4.072094  0  0  0.277971  0  4.093815  0  0.301694  0  0.073166  0.265231  0  4.057365  0
C  C100  1  0.25972250  0.33971117  0.23773181  1  0  -0.182691  0  3.752997  0  0  -0.197684  0  4.003687  0  0  -0.202524  0  4.023905  0  -0.01963  0  -0.107057  -0.194436  0  3.990114  0
C  C101  1  0.74027735  0.66028892  0.76226718  1  0  -0.182759  0  3.753055  0  0  -0.197749  0  4.003758  0  0  -0.202588  0  4.023973  0  -0.019547  0  -0.107067  -0.1945  0  3.990185  0
C  C102  1  0.29914946  0.32094279  0.33140311  1  0  -0.113585  0  3.771134  0  0  -0.131084  0  4.014935  0  0  -0.132148  0  4.035986  0  -0.074015  0  -0.094707  -0.130188  0  4.00059  0
C  C103  1  0.70084920  0.67905731  0.66859678  1  0  -0.11353  0  3.771165  0  0  -0.131027  0  4.014959  0  0  -0.132089  0  4.036007  0  -0.074  0  -0.094695  -0.130131  0  4.000613  0
C  C104  1  0.70869439  0.95667189  0.74354464  1  0  -0.100225  0  3.780354  0  0  -0.12246  0  4.032557  0  0  -0.122917  0  4.053331  0  -0.01367  0  -0.097596  -0.122024  0  4.018476  0
C  C105  1  0.29130257  0.04332397  0.25645505  1  0  -0.10028  0  3.780482  0  0  -0.122489  0  4.032658  0  0  -0.122947  0  4.053431  0  -0.013563  0  -0.097604  -0.122052  0  4.018581  0
C  C106  1  0.71398268  0.06367192  0.69360249  1  0  0.078957  0  3.762643  0  0  0.097612  0  4.004008  0  0  0.096335  0  4.028298  0  -0.014764  0  -0.021907  0.098346  0  3.987571  0
C  C107  1  0.28601576  0.93632225  0.30639711  1  0  0.078938  0  3.762843  0  0  0.097579  0  4.004243  0  0  0.096299  0  4.028532  0  -0.014613  0  -0.021922  0.098313  0  3.987806  0
C  C108  1  0.85509851  0.08713664  0.60981601  1  0  -0.194668  0  3.728465  0  0  -0.243087  0  3.969458  0  0  -0.243306  0  3.981468  0  -0.00128  0  -0.158839  -0.24271  0  3.961134  0
C  C109  1  0.14489831  0.91286007  0.39018364  1  0  -0.194649  0  3.728389  0  0  -0.243135  0  3.969465  0  0  -0.243354  0  3.981474  0  -0.001418  0  -0.158811  -0.242757  0  3.961141  0
C  C110  1  0.40750588  0.38379147  0.35978483  1  0  0.082561  0  3.759924  0  0  0.103807  0  3.996732  0  0  0.102405  0  4.021499  0  -0.013656  0  -0.019179  0.104657  0  3.979938  0
C  C111  1  0.59249291  0.61620778  0.64021510  1  0  0.082511  0  3.759932  0  0  0.103753  0  3.996726  0  0  0.102357  0  4.021499  0  -0.013941  0  -0.0192  0.104605  0  3.979935  0
N  N112  1  0.72939199  0.21181936  0.21643726  1  0  -0.653661  0  3.147191  0  0  -0.597867  0  3.377731  0  0  -0.618196  0  3.379233  0  -1.177439  0  -0.603238  -0.583596  0  3.37645  0
N  N113  1  0.27060800  0.78817989  0.78356323  1  0  -0.653666  0  3.147222  0  0  -0.597867  0  3.377763  0  0  -0.618194  0  3.379261  0  -1.177443  0  -0.603251  -0.583596  0  3.376482  0
N  N114  1  0.33976370  0.00091216  0.94478351  1  0  -0.670147  0  3.194567  0  0  -0.612591  0  3.421131  0  0  -0.633382  0  3.422076  0  -1.201435  0  -0.61728  -0.597973  0  3.420193  0
N  N115  1  0.66023615  0.99908793  0.05521914  1  0  -0.670004  0  3.194448  0  0  -0.612444  0  3.420989  0  0  -0.633234  0  3.421938  0  -1.201396  0  -0.617186  -0.597827  0  3.420051  0
N  N116  1  0.90555705  0.32186003  0.78672338  1  0  -0.654125  0  3.169756  0  0  -0.598642  0  3.396282  0  0  -0.618796  0  3.397313  0  -1.190031  0  -0.606669  -0.584501  0  3.395284  0
N  N117  1  0.09444343  0.67814345  0.21327601  1  0  -0.654169  0  3.169796  0  0  -0.59869  0  3.396309  0  0  -0.618845  0  3.39734  0  -1.189962  0  -0.60667  -0.584545  0  3.395312  0
N  N118  1  0.28591133  0.44222332  0.07493042  1  0  -0.663214  0  3.204183  0  0  -0.609474  0  3.435929  0  0  -0.629958  0  3.436786  0  -1.197156  0  -0.616817  -0.595076  0  3.43505  0
N  N119  1  0.71408837  0.55777763  0.92506927  1  0  -0.663161  0  3.204171  0  0  -0.609424  0  3.435917  0  0  -0.629906  0  3.436777  0  -1.197266  0  -0.61678  -0.595025  0  3.435035  0
Cl  Cl120  1  0.10388223  0.23876165  0.01601612  1  0  -0.557799  0  1.065074  0  0  -0.491323  0  1.339177  0  0  -0.508261  0  1.3187  0  -0.641961  0  -0.269797  -0.479257  0  1.353048  0
Cl  Cl121  1  0.89611839  0.76124099  0.98398331  1  0  -0.557795  0  1.065095  0  0  -0.491314  0  1.33918  0  0  -0.508248  0  1.318703  0  -0.641959  0  -0.269796  -0.479248  0  1.353053  0
Cl  Cl122  1  0.04185929  0.95063484  0.12773376  1  0  -0.555148  0  1.026503  0  0  -0.488232  0  1.300441  0  0  -0.5072  0  1.284051  0  -0.640355  0  -0.286365  -0.474699  0  1.311449  0
Cl  Cl123  1  0.95814133  0.04936780  0.87226640  1  0  -0.555121  0  1.026471  0  0  -0.488229  0  1.300431  0  0  -0.507199  0  1.284044  0  -0.640326  0  -0.286352  -0.474696  0  1.311439  0
Cl  Cl124  1  0.65651828  0.28194503  0.99809522  1  0  -0.582269  0  0.923151  0  0  -0.52363  0  1.18859  0  0  -0.540774  0  1.171425  0  -0.67515  0  -0.319152  -0.511293  0  1.200183  0
Cl  Cl125  1  0.34348382  0.71805591  0.00190413  1  0  -0.582273  0  0.923213  0  0  -0.523613  0  1.188615  0  0  -0.540757  0  1.171451  0  -0.675142  0  -0.319144  -0.511275  0  1.200207  0
Cl  Cl126  1  0.85649242  0.47953649  0.12967289  1  0  -0.565998  0  0.976126  0  0  -0.502423  0  1.245492  0  0  -0.521044  0  1.228784  0  -0.646074  0  -0.302006  -0.489091  0  1.25669  0
Cl  Cl127  1  0.14350686  0.52046699  0.87032668  1  0  -0.565975  0  0.976084  0  0  -0.502413  0  1.245454  0  0  -0.521033  0  1.228745  0  -0.646146  0  -0.302007  -0.489082  0  1.256651  0
