# generated using pymatgen
data_CdH6C10(NO)4
_symmetry_space_group_name_H-M   'P 1'
_cell_length_a   7.99955226
_cell_length_b   9.17250213
_cell_length_c   15.80535351
_cell_angle_alpha   90.00004377
_cell_angle_beta   104.39768187
_cell_angle_gamma   89.99989612
_symmetry_Int_Tables_number   1
_chemical_formula_structural   CdH6C10(NO)4
_chemical_formula_sum   'Cd4 H24 C40 N16 O16'
_cell_volume   1123.30874678
_cell_formula_units_Z   4
loop_
 _symmetry_equiv_pos_site_id
 _symmetry_equiv_pos_as_xyz
  1  'x, y, z'
loop_
 _atom_site_type_symbol
 _atom_site_label
 _atom_site_symmetry_multiplicity
 _atom_site_fract_x
 _atom_site_fract_y
 _atom_site_fract_z
 _atom_site_occupancy
 _atom_site_hle17_bader_spin_density
 _atom_site_hle17_ddec_charge
 _atom_site_hle17_ddec_spin_density
 _atom_site_hle17_ddec_sum_bond_order
 _atom_site_hle17_magmom
 _atom_site_hse06_10hf_bader_spin_density
 _atom_site_hse06_10hf_ddec_charge
 _atom_site_hse06_10hf_ddec_spin_density
 _atom_site_hse06_10hf_ddec_sum_bond_order
 _atom_site_hse06_10hf_magmom
 _atom_site_hse06_bader_spin_density
 _atom_site_hse06_ddec_charge
 _atom_site_hse06_ddec_spin_density
 _atom_site_hse06_ddec_sum_bond_order
 _atom_site_hse06_magmom
 _atom_site_pbe_bader_spin_density
 _atom_site_pbe_cm5_charge
 _atom_site_pbe_ddec_charge
 _atom_site_pbe_ddec_spin_density
 _atom_site_pbe_ddec_sum_bond_order
 _atom_site_pbe_magmom
Cd  Cd0  1  0.43010194  0.50390494  0.37808011  1  0  1.107992  0  1.676825  0  0  0.917885  0  2.116615  0  0  0.976756  0  2.06607  0  0  0.776143  0.875824  0  2.151181  0
Cd  Cd1  1  0.56989979  0.00390369  0.12191946  1  0  1.10796  0  1.676857  0  0  0.917865  0  2.116643  0  0  0.97673  0  2.066105  0  0  0.776153  0.875824  0  2.151173  0
Cd  Cd2  1  0.56989686  0.49609469  0.62192006  1  0  1.107976  0  1.676877  0  0  0.91787  0  2.116673  0  0  0.976742  0  2.066124  0  0  0.776141  0.875814  0  2.151238  0
Cd  Cd3  1  0.43010030  0.99609704  0.87807960  1  0  1.107964  0  1.67689  0  0  0.917843  0  2.116688  0  0  0.976716  0  2.066138  0  0  0.776152  0.875798  0  2.151231  0
H  H4  1  0.16722868  0.99944370  0.11511869  1  0  0.111497  0  0.927146  0  0  0.119064  0  0.987843  0  0  0.122769  0  0.983089  0  0  0.130371  0.116271  0  0.991326  0
H  H5  1  0.83277594  0.49944347  0.38488083  1  0  0.111475  0  0.927074  0  0  0.119047  0  0.987783  0  0  0.122753  0  0.983029  0  0  0.13039  0.116253  0  0.991265  0
H  H6  1  0.83277270  0.00055594  0.88488179  1  0  0.111491  0  0.927074  0  0  0.119058  0  0.98779  0  0  0.122764  0  0.983035  0  0  0.130378  0.116265  0  0.991273  0
H  H7  1  0.16722416  0.50055617  0.61511697  1  0  0.111488  0  0.927082  0  0  0.119055  0  0.987787  0  0  0.122762  0  0.983035  0  0  0.130387  0.11626  0  0.991268  0
H  H8  1  0.55588906  0.27537497  0.24835606  1  0  0.08905  0  0.93638  0  0  0.095464  0  1.003339  0  0  0.098313  0  0.998773  0  0  0.134585  0.09332  0  1.006669  0
H  H9  1  0.44410697  0.77537276  0.25164354  1  0  0.089016  0  0.936336  0  0  0.095473  0  1.003243  0  0  0.098324  0  0.998678  0  0  0.134595  0.093329  0  1.006571  0
H  H10  1  0.44411103  0.72462467  0.75164363  1  0  0.089046  0  0.936384  0  0  0.095462  0  1.003347  0  0  0.09831  0  0.998782  0  0  0.134586  0.093318  0  1.006677  0
H  H11  1  0.55588667  0.22462470  0.74835597  1  0  0.089011  0  0.936316  0  0  0.095397  0  1.003312  0  0  0.098244  0  0.998747  0  0  0.134578  0.09326  0  1.006641  0
H  H12  1  0.34833540  0.88933746  0.37530139  1  0  0.080155  0  0.93942  0  0  0.086457  0  1.007584  0  0  0.08927  0  1.004416  0  0  0.11314  0.084523  0  1.009614  0
H  H13  1  0.65166686  0.38933717  0.12470032  1  0  0.080108  0  0.939494  0  0  0.086409  0  1.007667  0  0  0.089221  0  1.004499  0  0  0.113126  0.084482  0  1.009676  0
H  H14  1  0.65166599  0.11066218  0.62469910  1  0  0.080143  0  0.93945  0  0  0.086447  0  1.007614  0  0  0.08926  0  1.004445  0  0  0.11314  0.084514  0  1.009642  0
H  H15  1  0.34833195  0.61066138  0.87529921  1  0  0.080114  0  0.939512  0  0  0.086414  0  1.007682  0  0  0.089226  0  1.004515  0  0  0.113128  0.084491  0  1.009685  0
H  H16  1  0.11982788  0.25886087  0.44820399  1  0  0.06856  0  0.905974  0  0  0.076964  0  0.966948  0  0  0.079466  0  0.963289  0  0  0.125423  0.07522  0  0.969377  0
H  H17  1  0.88017334  0.75885880  0.05179626  1  0  0.068546  0  0.90601  0  0  0.07695  0  0.96699  0  0  0.079452  0  0.963331  0  0  0.125422  0.075207  0  0.969419  0
H  H18  1  0.88017221  0.74113986  0.55179443  1  0  0.06856  0  0.905995  0  0  0.076962  0  0.96699  0  0  0.079463  0  0.963332  0  0  0.125425  0.075219  0  0.969419  0
H  H19  1  0.11982675  0.24113866  0.94820407  1  0  0.068555  0  0.905958  0  0  0.07696  0  0.966948  0  0  0.079462  0  0.963288  0  0  0.125426  0.075216  0  0.969378  0
H  H20  1  0.23392673  0.91982994  0.62716849  1  0  0.088879  0  0.926124  0  0  0.095088  0  0.99309  0  0  0.098305  0  0.98965  0  0  0.115437  0.092653  0  0.995618  0
H  H21  1  0.76607317  0.41982762  0.87283147  1  0  0.088863  0  0.926127  0  0  0.095066  0  0.993104  0  0  0.0983  0  0.989654  0  0  0.115435  0.092635  0  0.995626  0
H  H22  1  0.76607337  0.08017188  0.37283120  1  0  0.088862  0  0.926138  0  0  0.095061  0  0.99311  0  0  0.098297  0  0.989656  0  0  0.115435  0.092628  0  0.995634  0
H  H23  1  0.23392950  0.58016984  0.12716854  1  0  0.088815  0  0.926103  0  0  0.095045  0  0.993074  0  0  0.098291  0  0.989602  0  0  0.115429  0.092611  0  0.995599  0
H  H24  1  0.05756289  0.35248193  0.27306767  1  0  0.094626  0  0.928308  0  0  0.102864  0  0.990688  0  0  0.105405  0  0.987401  0  0  0.126978  0.101003  0  0.992974  0
H  H25  1  0.94243428  0.85248326  0.22693591  1  0  0.094707  0  0.928255  0  0  0.102907  0  0.990677  0  0  0.105449  0  0.987387  0  0  0.126996  0.101045  0  0.99297  0
H  H26  1  0.94243721  0.64751771  0.72693139  1  0  0.094632  0  0.928284  0  0  0.102832  0  0.990708  0  0  0.105372  0  0.987424  0  0  0.126968  0.100973  0  0.992994  0
H  H27  1  0.05756065  0.14751855  0.77306820  1  0  0.09462  0  0.928287  0  0  0.102842  0  0.990699  0  0  0.105383  0  0.987413  0  0  0.126961  0.100982  0  0.992984  0
C  C28  1  0.38531954  0.73737573  0.53067129  1  0  0.665994  0  3.916614  0  0  0.610009  0  4.20936  0  0  0.646954  0  4.203115  0  0  0.201673  0.584897  0  4.212903  0
C  C29  1  0.61467943  0.23737377  0.96933164  1  0  0.66578  0  3.916873  0  0  0.609788  0  4.209607  0  0  0.646741  0  4.203359  0  0  0.201562  0.584677  0  4.21315  0
C  C30  1  0.61468185  0.26262500  0.46932920  1  0  0.665997  0  3.916576  0  0  0.61004  0  4.209296  0  0  0.646986  0  4.203051  0  0  0.201712  0.584931  0  4.212834  0
C  C31  1  0.38532066  0.76262478  0.03066805  1  0  0.665876  0  3.916839  0  0  0.609888  0  4.209558  0  0  0.646841  0  4.203309  0  0  0.201613  0.584775  0  4.213104  0
C  C32  1  0.30476783  0.88276576  0.50502867  1  0  -0.164234  0  3.733823  0  0  -0.13601  0  3.969633  0  0  -0.152813  0  3.993685  0  0  -0.014925  -0.125382  0  3.953573  0
C  C33  1  0.69523472  0.38276371  0.99497351  1  0  -0.164217  0  3.733886  0  0  -0.135969  0  3.969665  0  0  -0.152772  0  3.993721  0  0  -0.014896  -0.125345  0  3.953606  0
C  C34  1  0.69523355  0.11723496  0.49497182  1  0  -0.164262  0  3.733857  0  0  -0.136087  0  3.969718  0  0  -0.152892  0  3.993776  0  0  -0.014947  -0.12546  0  3.953657  0
C  C35  1  0.30476537  0.61723592  0.00502618  1  0  -0.164276  0  3.733901  0  0  -0.135999  0  3.969649  0  0  -0.152802  0  3.993708  0  0  -0.01491  -0.125375  0  3.953591  0
C  C36  1  0.29839696  0.94731408  0.42412479  1  0  0.165495  0  3.680184  0  0  0.126954  0  3.939159  0  0  0.138064  0  3.954284  0  0  0.063965  0.119959  0  3.928741  0
C  C37  1  0.70160259  0.44731583  0.07587597  1  0  0.165509  0  3.680295  0  0  0.126966  0  3.939254  0  0  0.138075  0  3.954379  0  0  0.063982  0.119974  0  3.928838  0
C  C38  1  0.70160442  0.05268556  0.57587570  1  0  0.165497  0  3.680235  0  0  0.12697  0  3.939214  0  0  0.138081  0  3.954338  0  0  0.063969  0.119975  0  3.928798  0
C  C39  1  0.29839750  0.55268381  0.92412372  1  0  0.165499  0  3.68035  0  0  0.12695  0  3.939298  0  0  0.138059  0  3.954424  0  0  0.06397  0.119958  0  3.928885  0
C  C40  1  0.17187826  0.14927242  0.46442974  1  0  0.308183  0  3.699374  0  0  0.265636  0  3.984021  0  0  0.28072  0  3.992674  0  0  0.179323  0.255992  0  3.977607  0
C  C41  1  0.82812318  0.64927150  0.03556985  1  0  0.30822  0  3.699291  0  0  0.265656  0  3.983946  0  0  0.280739  0  3.992599  0  0  0.179346  0.25601  0  3.977535  0
C  C42  1  0.82812184  0.85072831  0.53556868  1  0  0.308153  0  3.699368  0  0  0.265569  0  3.984048  0  0  0.280652  0  3.992701  0  0  0.179303  0.255924  0  3.977635  0
C  C43  1  0.17187691  0.35072705  0.96442984  1  0  0.308174  0  3.699265  0  0  0.2656  0  3.98394  0  0  0.280684  0  3.992592  0  0  0.179298  0.255954  0  3.977528  0
C  C44  1  0.23575600  0.96439462  0.56319158  1  0  0.160524  0  3.669271  0  0  0.122386  0  3.92807  0  0  0.133442  0  3.942442  0  0  0.065683  0.115595  0  3.91803  0
C  C45  1  0.76424639  0.46439129  0.93680872  1  0  0.160544  0  3.669092  0  0  0.12239  0  3.927908  0  0  0.133426  0  3.942274  0  0  0.065665  0.115596  0  3.917872  0
C  C46  1  0.76424539  0.03560720  0.43680828  1  0  0.160532  0  3.669253  0  0  0.122422  0  3.92804  0  0  0.13346  0  3.942407  0  0  0.06568  0.11563  0  3.918001  0
C  C47  1  0.23575628  0.53560725  0.06319066  1  0  0.160627  0  3.669096  0  0  0.122434  0  3.927916  0  0  0.133466  0  3.942286  0  0  0.065677  0.115644  0  3.917875  0
C  C48  1  0.89835616  0.12568376  0.16999548  1  0  0.633858  0  3.955512  0  0  0.583831  0  4.246752  0  0  0.618713  0  4.243477  0  0  0.194477  0.560339  0  4.248282  0
C  C49  1  0.10164533  0.62568656  0.33000475  1  0  0.633849  0  3.955573  0  0  0.583845  0  4.246793  0  0  0.618723  0  4.243523  0  0  0.194458  0.560353  0  4.248323  0
C  C50  1  0.10164393  0.87431588  0.83000422  1  0  0.633857  0  3.955624  0  0  0.583831  0  4.246857  0  0  0.618709  0  4.243586  0  0  0.194449  0.560337  0  4.248392  0
C  C51  1  0.89835347  0.37431526  0.66999478  1  0  0.633841  0  3.95561  0  0  0.58383  0  4.24684  0  0  0.61871  0  4.243569  0  0  0.194447  0.560338  0  4.248372  0
C  C52  1  0.08358335  0.17147563  0.18961854  1  0  -0.138153  0  3.720629  0  0  -0.114058  0  3.968479  0  0  -0.130646  0  3.988847  0  0  0.001357  -0.103773  0  3.955285  0
C  C53  1  0.91641934  0.67147493  0.31038376  1  0  -0.138255  0  3.720696  0  0  -0.11418  0  3.968581  0  0  -0.130763  0  3.988952  0  0  0.001313  -0.10389  0  3.955387  0
C  C54  1  0.91642062  0.82852401  0.81038227  1  0  -0.138254  0  3.720754  0  0  -0.114133  0  3.968579  0  0  -0.130716  0  3.988949  0  0  0.001344  -0.103844  0  3.955387  0
C  C55  1  0.08358075  0.32852470  0.68961847  1  0  -0.138156  0  3.720706  0  0  -0.11407  0  3.968585  0  0  -0.130656  0  3.988955  0  0  0.001358  -0.103784  0  3.955391  0
C  C56  1  0.20383893  0.09395250  0.15747201  1  0  0.200626  0  3.588101  0  0  0.15181  0  3.837232  0  0  0.166526  0  3.848963  0  0  0.087041  0.142366  0  3.828992  0
C  C57  1  0.79616263  0.59395204  0.34252884  1  0  0.200761  0  3.587809  0  0  0.151934  0  3.836987  0  0  0.166645  0  3.84872  0  0  0.087052  0.142495  0  3.828741  0
C  C58  1  0.79616246  0.90604714  0.84252848  1  0  0.200676  0  3.587965  0  0  0.151828  0  3.837138  0  0  0.166539  0  3.848872  0  0  0.08703  0.142383  0  3.8289  0
C  C59  1  0.20383618  0.40604760  0.65747258  1  0  0.200651  0  3.588059  0  0  0.151848  0  3.837226  0  0  0.166559  0  3.848962  0  0  0.087041  0.142409  0  3.828983  0
C  C60  1  0.41907369  0.24754842  0.23072316  1  0  0.314663  0  3.661587  0  0  0.254459  0  3.93544  0  0  0.27238  0  3.946736  0  0  0.190015  0.24263  0  3.927872  0
C  C61  1  0.58092755  0.74754929  0.26927709  1  0  0.314638  0  3.661476  0  0  0.254425  0  3.935348  0  0  0.272343  0  3.946647  0  0  0.18998  0.242599  0  3.927777  0
C  C62  1  0.58092640  0.75245122  0.76927653  1  0  0.314676  0  3.661524  0  0  0.254451  0  3.935403  0  0  0.272373  0  3.946701  0  0  0.190016  0.242623  0  3.927838  0
C  C63  1  0.41907125  0.25245144  0.73072308  1  0  0.314736  0  3.661379  0  0  0.254572  0  3.935268  0  0  0.272495  0  3.946564  0  0  0.190038  0.242736  0  3.927711  0
C  C64  1  0.14450933  0.28932350  0.24416817  1  0  0.207983  0  3.626635  0  0  0.154746  0  3.892097  0  0  0.170274  0  3.902818  0  0  0.089139  0.144794  0  3.884622  0
C  C65  1  0.85549183  0.78932283  0.25583335  1  0  0.207884  0  3.626706  0  0  0.154693  0  3.892183  0  0  0.170219  0  3.902902  0  0  0.089111  0.14473  0  3.884725  0
C  C66  1  0.85549205  0.71067832  0.75583105  1  0  0.207988  0  3.626639  0  0  0.154779  0  3.89209  0  0  0.170304  0  3.902811  0  0  0.089137  0.144822  0  3.884622  0
C  C67  1  0.14450697  0.21067681  0.74416807  1  0  0.207976  0  3.626525  0  0  0.154744  0  3.892035  0  0  0.170271  0  3.902757  0  0  0.089148  0.144792  0  3.884563  0
N  N68  1  0.31121343  0.32850680  0.26373076  1  0  -0.370614  0  3.192273  0  0  -0.297598  0  3.472218  0  0  -0.321604  0  3.487229  0  0  -0.315001  -0.281373  0  3.461671  0
N  N69  1  0.68879282  0.82850746  0.23627142  1  0  -0.3705  0  3.192212  0  0  -0.297548  0  3.472226  0  0  -0.321552  0  3.487235  0  0  -0.31496  -0.281321  0  3.461684  0
N  N70  1  0.68878667  0.67149284  0.73626893  1  0  -0.370616  0  3.192242  0  0  -0.297588  0  3.472179  0  0  -0.321593  0  3.487188  0  0  -0.314994  -0.281362  0  3.461634  0
N  N71  1  0.31121244  0.17149327  0.76373146  1  0  -0.370617  0  3.192104  0  0  -0.297615  0  3.472072  0  0  -0.321621  0  3.487079  0  0  -0.315015  -0.281392  0  3.46153  0
N  N72  1  0.37160810  0.13150484  0.17904978  1  0  -0.356715  0  3.203798  0  0  -0.274348  0  3.476137  0  0  -0.29915  0  3.491248  0  0  -0.320292  -0.257593  0  3.465521  0
N  N73  1  0.62838951  0.63150897  0.32094806  1  0  -0.356768  0  3.203745  0  0  -0.27439  0  3.476107  0  0  -0.299192  0  3.491221  0  0  -0.320281  -0.257632  0  3.465487  0
N  N74  1  0.62839329  0.86849371  0.82095071  1  0  -0.356717  0  3.203729  0  0  -0.274329  0  3.476083  0  0  -0.299132  0  3.491198  0  0  -0.320278  -0.257573  0  3.465468  0
N  N75  1  0.37160542  0.36849503  0.67904972  1  0  -0.356711  0  3.203745  0  0  -0.274373  0  3.476119  0  0  -0.299175  0  3.491231  0  0  -0.32029  -0.257616  0  3.465505  0
N  N76  1  0.23004496  0.07960541  0.40272670  1  0  -0.352906  0  3.023736  0  0  -0.312877  0  3.294689  0  0  -0.32901  0  3.309722  0  0  -0.32084  -0.302273  0  3.284354  0
N  N77  1  0.76995921  0.57960576  0.09727447  1  0  -0.352854  0  3.023607  0  0  -0.312819  0  3.294555  0  0  -0.328952  0  3.309589  0  0  -0.32082  -0.302218  0  3.28422  0
N  N78  1  0.76995643  0.92039423  0.59727315  1  0  -0.352837  0  3.023683  0  0  -0.312793  0  3.294632  0  0  -0.328926  0  3.309665  0  0  -0.320807  -0.302189  0  3.284297  0
N  N79  1  0.23004218  0.42039388  0.90272538  1  0  -0.352851  0  3.023618  0  0  -0.312815  0  3.294571  0  0  -0.328948  0  3.309605  0  0  -0.320812  -0.302215  0  3.284237  0
N  N80  1  0.17121947  0.09850006  0.54390144  1  0  -0.357136  0  3.043493  0  0  -0.321124  0  3.319414  0  0  -0.337158  0  3.335682  0  0  -0.322295  -0.31057  0  3.308203  0
N  N81  1  0.82878106  0.59849752  0.95609910  1  0  -0.35714  0  3.043353  0  0  -0.321117  0  3.319287  0  0  -0.337153  0  3.335564  0  0  -0.322304  -0.310565  0  3.308077  0
N  N82  1  0.82878062  0.90150066  0.45609825  1  0  -0.357122  0  3.043464  0  0  -0.321091  0  3.319377  0  0  -0.337127  0  3.335654  0  0  -0.322294  -0.310538  0  3.308165  0
N  N83  1  0.17122161  0.40150103  0.04390155  1  0  -0.357127  0  3.043435  0  0  -0.321095  0  3.319373  0  0  -0.337131  0  3.335653  0  0  -0.322269  -0.310542  0  3.308159  0
O  O84  1  0.49079106  0.68497988  0.48940661  1  0  -0.67717  0  2.022986  0  0  -0.606049  0  2.282399  0  0  -0.636908  0  2.271072  0  0  -0.335528  -0.584349  0  2.289362  0
O  O85  1  0.50920773  0.18497858  0.01059646  1  0  -0.677023  0  2.023005  0  0  -0.6059  0  2.282412  0  0  -0.63676  0  2.27108  0  0  -0.335488  -0.584195  0  2.289347  0
O  O86  1  0.50920903  0.31502085  0.51059434  1  0  -0.677207  0  2.022894  0  0  -0.606102  0  2.282318  0  0  -0.636957  0  2.270979  0  0  -0.335599  -0.584399  0  2.289268  0
O  O87  1  0.49079108  0.81502215  0.98940370  1  0  -0.677077  0  2.023061  0  0  -0.605947  0  2.282461  0  0  -0.636802  0  2.271118  0  0  -0.335488  -0.584241  0  2.289396  0
O  O88  1  0.35141209  0.67477674  0.59614081  1  0  -0.624636  0  2.001294  0  0  -0.559958  0  2.243603  0  0  -0.590296  0  2.234632  0  0  -0.313229  -0.538814  0  2.24911  0
O  O89  1  0.64858314  0.17477573  0.90386035  1  0  -0.624594  0  2.001397  0  0  -0.55991  0  2.243702  0  0  -0.590251  0  2.234732  0  0  -0.313206  -0.53877  0  2.249211  0
O  O90  1  0.64858801  0.32522290  0.40386015  1  0  -0.624597  0  2.001349  0  0  -0.55993  0  2.243657  0  0  -0.59027  0  2.234693  0  0  -0.313202  -0.538787  0  2.249162  0
O  O91  1  0.35141696  0.82522282  0.09613870  1  0  -0.624609  0  2.001369  0  0  -0.559969  0  2.243717  0  0  -0.590313  0  2.234748  0  0  -0.313248  -0.538828  0  2.249225  0
O  O92  1  0.84978743  0.02940250  0.10990999  1  0  -0.631243  0  1.944172  0  0  -0.566816  0  2.179973  0  0  -0.59789  0  2.171422  0  0  -0.329148  -0.545199  0  2.184901  0
O  O93  1  0.15021167  0.52940421  0.39009053  1  0  -0.631263  0  1.944069  0  0  -0.566868  0  2.17989  0  0  -0.59794  0  2.171339  0  0  -0.32918  -0.54525  0  2.18482  0
O  O94  1  0.15021266  0.97059713  0.89008970  1  0  -0.631266  0  1.944129  0  0  -0.566843  0  2.179937  0  0  -0.597917  0  2.171386  0  0  -0.329168  -0.545226  0  2.184869  0
O  O95  1  0.84978455  0.47059652  0.60990931  1  0  -0.631261  0  1.944176  0  0  -0.566844  0  2.179979  0  0  -0.597916  0  2.171429  0  0  -0.329151  -0.545226  0  2.184908  0
O  O96  1  0.80195419  0.18054130  0.21398061  1  0  -0.625292  0  1.910542  0  0  -0.574765  0  2.14361  0  0  -0.601862  0  2.134738  0  0  -0.323495  -0.556066  0  2.149061  0
O  O97  1  0.19804590  0.68054171  0.28601946  1  0  -0.625232  0  1.910675  0  0  -0.574697  0  2.14371  0  0  -0.601799  0  2.134847  0  0  -0.32344  -0.555988  0  2.149148  0
O  O98  1  0.19804719  0.81945942  0.78601925  1  0  -0.625219  0  1.910644  0  0  -0.574693  0  2.143707  0  0  -0.601792  0  2.134835  0  0  -0.323438  -0.555992  0  2.149158  0
O  O99  1  0.80195161  0.31945902  0.71398054  1  0  -0.625255  0  1.910664  0  0  -0.574719  0  2.143705  0  0  -0.60182  0  2.134838  0  0  -0.32346  -0.556017  0  2.149157  0
