# generated using pymatgen
data_Cu3H12(C11N3)2
_symmetry_space_group_name_H-M   'P 1'
_cell_length_a   21.96358526
_cell_length_b   25.68301870
_cell_length_c   27.30551631
_cell_angle_alpha   90.90922414
_cell_angle_beta   92.07988643
_cell_angle_gamma   90.11442242
_symmetry_Int_Tables_number   1
_chemical_formula_structural   Cu3H12(C11N3)2
_chemical_formula_sum   'Cu12 H48 C88 N24'
_cell_volume   15390.66413905
_cell_formula_units_Z   4
loop_
 _symmetry_equiv_pos_site_id
 _symmetry_equiv_pos_as_xyz
  1  'x, y, z'
loop_
 _atom_site_type_symbol
 _atom_site_label
 _atom_site_symmetry_multiplicity
 _atom_site_fract_x
 _atom_site_fract_y
 _atom_site_fract_z
 _atom_site_occupancy
 _atom_site_pbe_bader_charge
 _atom_site_pbe_bader_spin_density
 _atom_site_pbe_cm5_charge
 _atom_site_pbe_ddec_charge
 _atom_site_pbe_ddec_spin_density
 _atom_site_pbe_ddec_sum_bond_order
 _atom_site_pbe_magmom
Cu  Cu0  1  0.59898480  0.43712598  0.65685110  1  0.533879  -2.1e-05  0.483974  0.201065  -1.7e-05  2.144302  0.0
Cu  Cu1  1  0.64681778  0.39761838  0.55810363  1  0.538943  -4.1e-05  0.482249  0.205511  -0.0001  2.113441  0.0
Cu  Cu2  1  0.59101956  0.31734551  0.63455639  1  0.544149  0.000254  0.483443  0.205543  0.00039  2.110955  0.0
Cu  Cu3  1  0.35898001  0.10611228  0.17311149  1  0.543274  2.5e-05  0.483333  0.205653  -0.000119  2.120011  0.0
Cu  Cu4  1  0.35408213  0.10511458  0.05650491  1  0.54161  2.6e-05  0.48145  0.205586  -0.000103  2.106295  0.0
Cu  Cu5  1  0.44358167  0.18049077  0.11787411  1  0.539547  -0.000189  0.480882  0.19838  -0.000569  2.135625  0.0
Cu  Cu6  1  0.10723999  0.56814163  0.84236665  1  0.537196  1.6e-05  0.483353  0.200312  -9e-06  2.147618  0.0
Cu  Cu7  1  0.15265560  0.59930962  0.94766796  1  0.542192  0.000282  0.482314  0.204871  0.000443  2.109658  0.0
Cu  Cu8  1  0.08948034  0.68321139  0.87416456  1  0.543241  -5.1e-05  0.483069  0.204963  -9.2e-05  2.116855  0.0
Cu  Cu9  1  0.87428488  0.91079655  0.32613462  1  0.536694  0.00032  0.482929  0.200544  0.000422  2.141657  0.0
Cu  Cu10  1  0.86064911  0.89256564  0.43707414  1  0.54227  0.000159  0.484103  0.206389  0.000234  2.116935  0.0
Cu  Cu11  1  0.92710400  0.80752129  0.36869866  1  0.542008  9.2e-05  0.479646  0.204524  0.000181  2.100454  0.0
H  H12  1  0.68209848  0.53685748  0.67634302  1  0.082382  0.000499  0.119955  0.112679  0.000446  0.989143  0.0
H  H13  1  0.73839285  0.49069438  0.53169857  1  0.093894  0.000334  0.119987  0.112547  0.000285  0.989074  0.0
H  H14  1  0.51502599  0.28008749  0.72637331  1  0.057901  -0.000265  0.119813  0.11171  -0.000193  0.991581  0.0
H  H15  1  0.50151364  0.44791769  0.73969374  1  0.127733  -0.000454  0.11988  0.111158  -0.000376  0.992709  0.0
H  H16  1  0.64195266  0.32483158  0.46339472  1  0.09182  -0.000463  0.119792  0.113034  -0.000445  0.990279  0.0
H  H17  1  0.60620287  0.21138812  0.57438018  1  0.106471  -0.000256  0.119305  0.112693  -0.00023  0.991074  0.0
H  H18  1  0.25455452  0.02543082  0.19286450  1  0.095905  -0.00031  0.119284  0.109763  -0.000205  0.995154  0.0
H  H19  1  0.27177714  0.00342634  0.03635886  1  0.109743  -0.000186  0.118718  0.108992  -7.1e-05  0.994882  0.0
H  H20  1  0.55126332  0.19716549  0.20006719  1  0.088828  -6e-05  0.11959  0.114141  -5.8e-05  0.98951  0.0
H  H21  1  0.41940803  0.11100537  0.28076827  1  0.125178  -7.2e-05  0.119788  0.114735  -7.9e-05  0.988399  0.0
H  H22  1  0.34993860  0.16123281  0.95321889  1  0.109194  -9.2e-05  0.119409  0.114165  -8.7e-05  0.991094  0.0
H  H23  1  0.45375625  0.27232821  0.04305908  1  0.085218  -0.000178  0.119585  0.113805  -0.00018  0.990336  0.0
H  H24  1  0.19511922  0.47389773  0.81994714  1  0.112798  -0.000551  0.120033  0.112394  -0.000518  0.989827  0.0
H  H25  1  0.24741717  0.50627319  0.97174681  1  0.087573  -0.000285  0.119982  0.113168  -0.000242  0.990302  0.0
H  H26  1  0.00749108  0.72514330  0.78173308  1  0.066355  0.000268  0.119856  0.112698  0.000214  0.990216  0.0
H  H27  1  0.00987615  0.55879650  0.75344320  1  0.106984  0.000578  0.119725  0.111952  0.000524  0.991206  0.0
H  H28  1  0.15024045  0.66593616  0.04674006  1  0.111422  -0.00035  0.119481  0.112286  -0.000325  0.99043  0.0
H  H29  1  0.10436690  0.78432572  0.94072551  1  0.101274  -0.000402  0.1192  0.11209  -0.00038  0.991263  0.0
H  H30  1  0.77167572  0.99680065  0.30684708  1  0.092296  -0.000381  0.11959  0.11069  -0.000295  0.993581  0.0
H  H31  1  0.77339628  0.98824462  0.46520841  1  0.079099  -0.000244  0.119726  0.11136  -0.000168  0.992041  0.0
H  H32  1  0.01898319  0.77397999  0.28337357  1  0.084985  -0.000251  0.119903  0.113594  -0.000212  0.989679  0.0
H  H33  1  0.95669845  0.92511846  0.23503209  1  0.095983  -0.000553  0.119697  0.112512  -0.000531  0.989451  0.0
H  H34  1  0.87176289  0.83622068  0.53879491  1  0.088793  0.000276  0.119422  0.113219  0.000254  0.990382  0.0
H  H35  1  0.92139084  0.71097442  0.44034766  1  0.105105  0.000318  0.119569  0.112634  0.000299  0.990461  0.0
H  H36  1  0.16201898  0.97604062  0.18354682  1  0.046559  -0.001717  0.09814  0.100803  -0.000967  1.009167  0.002
H  H37  1  0.23191401  0.91580850  0.04831373  1  0.05537  -0.001822  0.097883  0.100807  -0.001059  1.008845  0.002
H  H38  1  0.08396222  0.92650920  0.22643076  1  0.05646  -0.001535  0.097761  0.10064  -0.000855  1.007619  0.002
H  H39  1  0.02671370  0.77530344  0.17159310  1  0.051714  -0.00167  0.098555  0.102872  -0.0009  1.005146  0.002
H  H40  1  0.06817461  0.74004213  0.09418374  1  0.037741  -0.001849  0.098261  0.102092  -0.000889  1.006664  0.002
H  H41  1  0.19176284  0.83249071  0.01263325  1  0.083521  -0.001369  0.097879  0.101569  -0.000871  1.00758  0.002
H  H42  1  0.80717152  0.54601728  0.68159784  1  0.057767  0.001592  0.098178  0.101256  0.000773  1.007492  -0.002
H  H43  1  0.76102091  0.60370796  0.53765556  1  0.024611  0.002081  0.099081  0.103465  0.000768  1.00411  -0.002
H  H44  1  0.89413304  0.58399217  0.73004209  1  0.061667  0.001491  0.09853  0.101501  0.000672  1.007924  -0.002
H  H45  1  0.99180698  0.71526317  0.67538855  1  0.041704  0.00193  0.098247  0.102745  0.000841  1.004289  -0.002
H  H46  1  0.95899050  0.75388981  0.59491163  1  0.062007  0.00161  0.098529  0.103586  0.000729  1.004902  -0.002
H  H47  1  0.81820366  0.67854745  0.50545160  1  0.057939  0.001642  0.098763  0.102634  0.000721  1.005756  -0.002
H  H48  1  0.67039794  0.03303920  0.31521689  1  0.045259  -0.001738  0.098729  0.101381  -0.000893  1.008598  0.002
H  H49  1  0.73582673  0.08264555  0.45938887  1  0.048624  -0.001747  0.098021  0.101253  -0.000995  1.00845  0.002
H  H50  1  0.58878750  0.08213049  0.27190222  1  0.042489  -0.001799  0.099111  0.103466  -0.000823  1.004253  0.002
H  H51  1  0.51259237  0.21852151  0.33952775  1  0.059773  -0.001593  0.099092  0.10407  -0.000859  1.004545  0.002
H  H52  1  0.55422962  0.25009293  0.42085016  1  0.053822  -0.001558  0.09834  0.102261  -0.000818  1.0059  0.002
H  H53  1  0.69173462  0.16151697  0.49888982  1  0.055656  -0.001632  0.098127  0.102474  -0.000887  1.005564  0.002
H  H54  1  0.31868696  0.46488879  0.82244462  1  0.043875  -0.001718  0.097854  0.100612  -0.00085  1.008436  0.002
H  H55  1  0.27006316  0.39327368  0.95725805  1  0.025346  -0.002187  0.09901  0.103549  -0.00089  1.004596  0.002
H  H56  1  0.40022713  0.42709932  0.77330040  1  0.032105  -0.001833  0.09846  0.101251  -0.000863  1.009325  0.002
H  H57  1  0.49006525  0.28602464  0.81924746  1  0.04634  -0.001943  0.098085  0.101657  -0.000993  1.006713  0.002
H  H58  1  0.45819005  0.24163403  0.89476715  1  0.081107  -0.001372  0.098526  0.103387  -0.000847  1.005755  0.002
H  H59  1  0.32496951  0.31368255  0.98553119  1  0.052378  -0.001618  0.098969  0.103218  -0.000828  1.005082  0.002
C  C60  1  0.68864057  0.51852194  0.64082808  1  0.415193  -0.004573  0.003228  -0.059317  -0.004766  3.969887  -0.003
C  C61  1  0.72984800  0.53140698  0.60485962  1  0.037604  0.003372  -0.035335  -0.02912  0.001732  4.084781  0.003
C  C62  1  0.71662950  0.49568880  0.56652401  1  0.353597  -0.004602  0.003462  -0.056495  -0.004787  3.96041  -0.003
C  C63  1  0.51882401  0.32206104  0.72354815  1  0.440871  0.005952  0.004535  -0.055013  0.006066  3.962695  0.004
C  C64  1  0.49055008  0.36156725  0.75055095  1  0.021617  -0.004264  -0.036992  -0.032674  -0.002827  4.084864  -0.003
C  C65  1  0.51098555  0.40775925  0.72964895  1  0.331665  0.005907  0.004084  -0.055886  0.005965  3.963452  0.004
C  C66  1  0.63266304  0.30397730  0.49660021  1  0.407173  0.003832  0.002687  -0.061158  0.003935  3.973164  0.003
C  C67  1  0.62423652  0.25038002  0.50294469  1  -0.003211  -0.002868  -0.036295  -0.029256  -0.001316  4.080322  -0.003
C  C68  1  0.61580773  0.24577387  0.55333610  1  0.384308  0.003907  0.002041  -0.060161  0.004052  3.967713  0.003
C  C69  1  0.26482809  0.02728634  0.15435175  1  0.424715  0.006663  0.004072  -0.054209  0.006715  3.962365  0.004
C  C70  1  0.24424691  0.99547798  0.11477617  1  0.00696  -0.004807  -0.036406  -0.033075  -0.003352  4.080818  -0.004
C  C71  1  0.27439805  0.01551689  0.07463950  1  0.358865  0.006773  0.004327  -0.053002  0.006845  3.962265  0.004
C  C72  1  0.51210620  0.17612273  0.21279785  1  0.406989  0.002214  0.00129  -0.063465  0.002404  3.971581  0.002
C  C73  1  0.50288444  0.15440148  0.25868872  1  0.054581  -0.001615  -0.035921  -0.028932  -0.0  4.081332  -0.002
C  C74  1  0.44452716  0.13238465  0.25404008  1  0.310227  0.002251  0.001291  -0.063625  0.002342  3.976001  0.002
C  C75  1  0.37657512  0.18211014  0.98146990  1  0.366053  0.002496  0.000207  -0.064974  0.00264  3.973706  0.002
C  C76  1  0.40013287  0.23282561  0.98128600  1  0.036892  -0.001844  -0.035756  -0.027368  -0.000234  4.082258  -0.002
C  C77  1  0.42907189  0.23895491  0.02757884  1  0.402341  0.002547  0.001324  -0.063748  0.002677  3.97842  0.002
C  C78  1  0.20059615  0.48876059  0.85728071  1  0.377293  0.00454  0.003127  -0.059015  0.00464  3.971341  0.003
C  C79  1  0.24111891  0.47272012  0.89492621  1  -0.001276  -0.003374  -0.036175  -0.030518  -0.001846  4.086043  -0.003
C  C80  1  0.22657042  0.50441519  0.93512186  1  0.403766  0.004625  0.003361  -0.057786  0.004746  3.962332  0.003
C  C81  1  0.01561796  0.68347309  0.78111698  1  0.4581  -0.004804  0.003737  -0.055978  -0.005051  3.961299  -0.003
C  C82  1  0.99065567  0.64479277  0.74950416  1  -0.047885  0.003499  -0.036362  -0.032143  0.001897  4.083206  0.003
C  C83  1  0.01578338  0.59833158  0.76747992  1  0.416604  -0.004658  0.004133  -0.057217  -0.00484  3.969764  -0.003
C  C84  1  0.13813738  0.68836711  0.01448371  1  0.340842  0.004144  0.002478  -0.06015  0.00426  3.967921  0.003
C  C85  1  0.12866205  0.74210083  0.01033511  1  0.052215  -0.003045  -0.036128  -0.029145  -0.001502  4.087192  -0.003
C  C86  1  0.11618050  0.74899690  0.96015612  1  0.375026  0.004116  0.002079  -0.060308  0.004215  3.972242  0.003
C  C87  1  0.77889536  0.98778742  0.34531083  1  0.416932  0.006238  0.004829  -0.054971  0.006305  3.961928  0.004
C  C88  1  0.75307318  0.01073704  0.38672541  1  0.003259  -0.004501  -0.036527  -0.03193  -0.003038  4.081521  -0.004
C  C89  1  0.78058593  0.98416163  0.42622483  1  0.413226  0.006287  0.004214  -0.055717  0.006382  3.962262  0.004
C  C90  1  0.99622848  0.81097352  0.27758015  1  0.427316  0.004215  0.00347  -0.059152  0.004369  3.959022  0.003
C  C91  1  0.00654234  0.84906285  0.24253310  1  -0.008128  -0.00308  -0.036068  -0.029256  -0.001564  4.08055  -0.003
C  C92  1  0.96513619  0.88864511  0.25362758  1  0.382166  0.00415  0.002432  -0.06022  0.004236  3.973908  0.003
C  C93  1  0.88532209  0.81174363  0.50832390  1  0.360086  -0.003405  0.001283  -0.061151  -0.003575  3.973383  -0.003
C  C94  1  0.89600954  0.75801131  0.50679764  1  0.009524  0.002475  -0.036527  -0.03062  0.000868  4.084547  0.002
C  C95  1  0.90940883  0.74761973  0.45779343  1  0.406943  -0.003351  0.002662  -0.059715  -0.003581  3.970805  -0.003
C  C96  1  0.12609238  0.90119767  0.15955725  1  -0.008684  0.034458  -0.012683  0.084343  0.035164  4.083668  0.032
C  C97  1  0.16378667  0.94549472  0.15537736  1  -0.043872  -0.20181  -0.091802  -0.18352  -0.201469  3.903388  -0.119
C  C98  1  0.20278155  0.95088639  0.11618499  1  0.001265  0.036469  -0.013897  0.08576  0.035617  4.095833  0.036
C  C99  1  0.20203112  0.91228853  0.07918876  1  -0.042131  -0.202172  -0.091253  -0.182757  -0.202155  3.900603  -0.119
C  C100  1  0.16499485  0.86726279  0.08159083  1  -0.001131  0.034531  -0.012498  0.083981  0.035329  4.076635  0.032
C  C101  1  0.12805560  0.86086401  0.12307742  1  0.014295  -0.016509  -0.003751  -0.011732  -0.011895  3.89336  -0.014
C  C102  1  0.08623673  0.89551549  0.19871829  1  -0.105139  -0.202932  -0.091937  -0.185803  -0.202088  3.909497  -0.12
C  C103  1  0.05021851  0.85078279  0.20307927  1  0.055002  0.03856  -0.012827  0.087564  0.037392  4.088449  0.037
C  C104  1  0.05487049  0.81011020  0.16862695  1  -0.023885  -0.202501  -0.09094  -0.184403  -0.202571  3.907229  -0.12
C  C105  1  0.09294963  0.81449920  0.12803489  1  -0.020845  0.034808  -0.012143  0.084455  0.035386  4.074106  0.032
C  C106  1  0.09547240  0.77533868  0.09105000  1  -0.040134  -0.201811  -0.09141  -0.185342  -0.201689  3.907448  -0.119
C  C107  1  0.12980423  0.78215327  0.04932431  1  -0.013528  0.037843  -0.012837  0.088678  0.037166  4.088624  0.036
C  C108  1  0.16415833  0.82774565  0.04473817  1  -0.039458  -0.20083  -0.091852  -0.186413  -0.200364  3.91051  -0.118
C  C109  1  0.86173562  0.61101856  0.65903069  1  -0.004196  -0.034434  -0.012894  0.084191  -0.036083  4.085055  -0.032
C  C110  1  0.81430041  0.57393487  0.65261099  1  -0.085625  0.204294  -0.091097  -0.183515  0.200053  3.906862  0.12
C  C111  1  0.77802474  0.57101069  0.60930837  1  0.001164  -0.037695  -0.012601  0.087607  -0.037972  4.092842  -0.036
C  C112  1  0.78917771  0.60551857  0.57143454  1  0.025896  0.201466  -0.091096  -0.184731  0.198445  3.907107  0.119
C  C113  1  0.83512706  0.64425187  0.57671134  1  -0.042166  -0.034353  -0.012888  0.083784  -0.036224  4.07895  -0.032
C  C114  1  0.87123686  0.64758606  0.62123028  1  -0.01072  0.016209  -0.003245  -0.011931  0.01134  3.891898  0.013
C  C115  1  0.90089992  0.61227337  0.70127979  1  -0.014969  0.200643  -0.091592  -0.184249  0.196986  3.9125  0.119
C  C116  1  0.94814461  0.64888794  0.70703576  1  0.016304  -0.037923  -0.012493  0.087418  -0.037859  4.091731  -0.036
C  C117  1  0.95495079  0.68674978  0.67113276  1  -0.043411  0.202904  -0.091009  -0.18445  0.199103  3.899312  0.12
C  C118  1  0.91709857  0.68690581  0.62786956  1  -0.029857  -0.034691  -0.011725  0.084165  -0.03647  4.067007  -0.032
C  C119  1  0.92438660  0.72348096  0.59007383  1  -0.045053  0.20001  -0.09129  -0.186797  0.196215  3.908451  0.118
C  C120  1  0.88928104  0.72024870  0.54622812  1  0.027214  -0.03891  -0.012263  0.089301  -0.038897  4.081828  -0.037
C  C121  1  0.84574691  0.68056101  0.53953681  1  -0.044734  0.200723  -0.090944  -0.184275  0.196939  3.913005  0.119
C  C122  1  0.62760080  0.10205019  0.34405588  1  0.077348  0.034937  -0.012803  0.084695  0.035371  4.080197  0.032
C  C123  1  0.66937444  0.06033784  0.34622568  1  -0.063535  -0.201086  -0.091121  -0.182541  -0.20082  3.908112  -0.119
C  C124  1  0.70855908  0.05306234  0.38724612  1  -0.014762  0.036511  -0.012861  0.085906  0.035698  4.096778  0.036
C  C125  1  0.70498589  0.08744318  0.42752360  1  -0.022654  -0.200822  -0.091321  -0.183694  -0.200926  3.900184  -0.119
C  C126  1  0.66391637  0.12997357  0.42719194  1  0.006408  0.034792  -0.012441  0.084143  0.035544  4.066081  0.032
C  C127  1  0.62521351  0.13760124  0.38467600  1  -0.015115  -0.016188  -0.002341  -0.010692  -0.011639  3.888938  -0.013
C  C128  1  0.58761159  0.10949966  0.30287142  1  -0.069718  -0.204376  -0.089911  -0.184323  -0.204255  3.911234  -0.121
C  C129  1  0.54589543  0.15066096  0.30139223  1  0.026184  0.040712  -0.012318  0.088809  0.03965  4.079246  0.038
C  C130  1  0.54471258  0.18614806  0.34074790  1  -0.055681  -0.202734  -0.090288  -0.18534  -0.202538  3.911799  -0.12
C  C131  1  0.58442061  0.18077384  0.38255968  1  -0.037833  0.034705  -0.013228  0.083899  0.035553  4.072736  0.032
C  C132  1  0.58496076  0.21676039  0.42236802  1  -0.071896  -0.199924  -0.091332  -0.185529  -0.199638  3.910537  -0.118
C  C133  1  0.62339630  0.21017985  0.46394549  1  0.024513  0.038658  -0.012359  0.088341  0.037419  4.081821  0.036
C  C134  1  0.66152421  0.16651893  0.46664704  1  -0.070962  -0.200853  -0.090789  -0.185074  -0.2005  3.902248  -0.118
C  C135  1  0.36909351  0.39501865  0.84068708  1  -0.018083  0.034362  -0.013138  0.082515  0.035077  4.088766  0.032
C  C136  1  0.32452279  0.43357315  0.84877653  1  -0.064632  -0.203095  -0.09095  -0.182921  -0.202743  3.910286  -0.12
C  C137  1  0.28858096  0.43304031  0.89017711  1  0.046924  0.03818  -0.012359  0.086927  0.036946  4.092254  0.036
C  C138  1  0.29806224  0.39414814  0.92504220  1  -0.012187  -0.202364  -0.090526  -0.183909  -0.202824  3.903215  -0.12
C  C139  1  0.34169149  0.35429181  0.91824086  1  0.014793  0.03471  -0.012494  0.085098  0.035432  4.073781  0.032
C  C140  1  0.37677607  0.35418203  0.87522662  1  -0.006916  -0.016267  -0.002878  -0.011541  -0.011678  3.892379  -0.013
C  C141  1  0.40637691  0.39580804  0.79959657  1  0.019943  -0.200008  -0.092004  -0.183841  -0.20041  3.912276  -0.119
C  C142  1  0.45026468  0.35727779  0.79184066  1  -0.01004  0.036173  -0.012822  0.086866  0.035791  4.098447  0.036
C  C143  1  0.45571850  0.31600518  0.82475711  1  -0.063519  -0.201203  -0.091242  -0.183976  -0.201237  3.901634  -0.119
C  C144  1  0.41962119  0.31354081  0.86662562  1  0.017061  0.034955  -0.011978  0.085834  0.035521  4.069679  0.032
C  C145  1  0.42580317  0.27298877  0.90117002  1  -0.082138  -0.200669  -0.090618  -0.186433  -0.200184  3.915205  -0.118
C  C146  1  0.39232094  0.27334450  0.94380910  1  -0.033844  0.039748  -0.012288  0.088353  0.038998  4.080201  0.037
C  C147  1  0.35103391  0.31377112  0.95225664  1  -0.026507  -0.201611  -0.090423  -0.184647  -0.201655  3.911418  -0.119
N  N148  1  0.67121219  0.46346774  0.57911187  1  -0.774701  -0.000747  -0.339295  -0.145187  -0.000733  3.753575  0.0
N  N149  1  0.65353161  0.47806179  0.62508923  1  -0.768273  -0.000757  -0.34181  -0.139984  -0.000747  3.779617  0.0
N  N150  1  0.54877907  0.39651191  0.69317252  1  -0.753594  0.000777  -0.340681  -0.139314  0.000755  3.774079  0.0
N  N151  1  0.55340098  0.34325924  0.68914169  1  -0.793306  0.000946  -0.339066  -0.1424  0.000886  3.764749  0.0
N  N152  1  0.61868896  0.29332952  0.57531537  1  -0.774042  0.00051  -0.339613  -0.14414  0.000469  3.759093  0.0
N  N153  1  0.62969450  0.32944130  0.54002555  1  -0.74919  0.000559  -0.339112  -0.140274  0.000555  3.772076  0.0
N  N154  1  0.31006764  0.05610079  0.08927329  1  -0.766579  0.000697  -0.336879  -0.141236  0.000652  3.764322  0.0
N  N155  1  0.30425746  0.06327696  0.13891829  1  -0.785359  0.000566  -0.339839  -0.141295  0.000541  3.76399  0.0
N  N156  1  0.42067425  0.14026698  0.20844585  1  -0.764448  -0.000516  -0.342215  -0.145081  -0.000509  3.768028  0.0
N  N157  1  0.46258636  0.16752426  0.18288111  1  -0.787063  -0.000996  -0.340409  -0.140666  -0.000988  3.774846  -0.001
N  N158  1  0.42314279  0.19504281  0.05351560  1  -0.771276  -0.000358  -0.341603  -0.139583  -0.000352  3.782118  0.0
N  N159  1  0.39020233  0.15972466  0.02503788  1  -0.77247  -0.000614  -0.340075  -0.145427  -0.000619  3.758222  -0.001
N  N160  1  0.18090812  0.53720362  0.92211537  1  -0.755719  0.000791  -0.338623  -0.143492  0.000741  3.75565  0.0
N  N161  1  0.16452699  0.52707044  0.87387066  1  -0.790485  0.00074  -0.341878  -0.13915  0.000715  3.78252  0.0
N  N162  1  0.05320008  0.60865021  0.80663745  1  -0.77442  -0.000763  -0.341748  -0.139695  -0.000766  3.777893  0.0
N  N163  1  0.05277594  0.66146816  0.81542778  1  -0.777551  -0.000903  -0.338883  -0.143764  -0.000876  3.763684  0.0
N  N164  1  0.11790090  0.70268764  0.93616291  1  -0.783428  0.000675  -0.340886  -0.143645  0.00065  3.771844  0.0
N  N165  1  0.13209704  0.66499399  0.96989591  1  -0.76407  0.00064  -0.338017  -0.140517  0.000603  3.763058  0.0
N  N166  1  0.81972302  0.94816960  0.40947029  1  -0.769464  0.000832  -0.33891  -0.141457  0.000791  3.76652  0.0
N  N167  1  0.81889089  0.95066096  0.35921611  1  -0.773102  0.000751  -0.340307  -0.138986  0.000717  3.772909  0.0
N  N168  1  0.93249227  0.87509362  0.29230949  1  -0.775469  0.000606  -0.342149  -0.140816  0.000575  3.786512  0.0
N  N169  1  0.95209606  0.82706651  0.30761138  1  -0.774021  0.000635  -0.337008  -0.142492  0.000598  3.751166  0.0
N  N170  1  0.90711985  0.79205754  0.43201494  1  -0.763841  -0.000217  -0.338171  -0.141061  -0.000226  3.766883  0.0
N  N171  1  0.89159202  0.83192157  0.46335812  1  -0.771104  -0.000296  -0.341052  -0.146033  -0.000303  3.761584  0.0
