# generated using pymatgen
data_CoH19C19N4O5
_symmetry_space_group_name_H-M   'P 1'
_cell_length_a   7.35166885
_cell_length_b   16.52649626
_cell_length_c   17.00256170
_cell_angle_alpha   89.99996995
_cell_angle_beta   96.67920705
_cell_angle_gamma   89.99981537
_symmetry_Int_Tables_number   1
_chemical_formula_structural   CoH19C19N4O5
_chemical_formula_sum   'Co4 H76 C76 N16 O20'
_cell_volume   2051.74530231
_cell_formula_units_Z   4
loop_
 _symmetry_equiv_pos_site_id
 _symmetry_equiv_pos_as_xyz
  1  'x, y, z'
loop_
 _atom_site_type_symbol
 _atom_site_label
 _atom_site_symmetry_multiplicity
 _atom_site_fract_x
 _atom_site_fract_y
 _atom_site_fract_z
 _atom_site_occupancy
 _atom_site_pbe_bader_charge
 _atom_site_pbe_bader_spin_density
 _atom_site_pbe_cm5_charge
 _atom_site_pbe_ddec_charge
 _atom_site_pbe_ddec_spin_density
 _atom_site_pbe_ddec_sum_bond_order
 _atom_site_pbe_magmom
Co  Co0  1  0.43422591  0.79918279  0.80926969  1  1.199011  2.555107  0.664499  0.801312  2.774132  2.585713  2.501
Co  Co1  1  0.06577926  0.29918237  0.69073096  1  1.199029  2.55511  0.664516  0.801371  2.774137  2.585632  2.501
Co  Co2  1  0.56577669  0.20081767  0.19072874  1  1.199151  2.555111  0.664504  0.801306  2.774141  2.585651  2.501
Co  Co3  1  0.93422062  0.70081871  0.30927086  1  1.19912  2.555108  0.664474  0.801303  2.774141  2.585639  2.501
H  H4  1  0.81342602  0.47346929  0.45746642  1  0.085807  -6e-06  0.099426  0.06861  -4.4e-05  1.012406  0.0
H  H5  1  0.92947998  0.56647017  0.44062299  1  0.073024  0.000261  0.102293  0.073666  5.1e-05  1.016957  0.0
H  H6  1  0.72999322  0.63475757  0.66261862  1  0.104954  0.000545  0.108326  0.125214  0.000204  1.000147  0.0
H  H7  1  0.21356559  0.70581356  0.53590789  1  0.124462  0.000546  0.101266  0.110432  0.000202  1.031014  0.0
H  H8  1  0.59381688  0.56659325  0.41741127  1  0.084756  2.7e-05  0.106728  0.122387  -6.1e-05  1.028695  0.0
H  H9  1  0.59026553  0.02613684  0.63392197  1  0.047605  0.0  0.09195  0.086037  -4.6e-05  1.003407  0.0
H  H10  1  0.63734482  0.03679850  0.53466038  1  0.018289  4.9e-05  0.090568  0.081165  1.7e-05  0.997803  0.0
H  H11  1  0.83714307  0.99512121  0.74102681  1  0.119407  0.000115  0.114516  0.107468  -0.0  0.997931  0.0
H  H12  1  0.93699320  0.09159509  0.72813875  1  0.087973  0.000385  0.110017  0.093742  5.3e-05  1.026742  0.0
H  H13  1  0.39336306  0.15157982  0.47550300  1  0.098265  0.000901  0.128838  0.132327  0.000321  0.985373  0.0
H  H14  1  0.55209599  0.98663079  0.79807455  1  0.152578  0.000788  0.117662  0.116679  0.000235  1.038671  0.001
H  H15  1  0.08014025  0.22788356  0.51763406  1  0.131462  0.000841  0.122853  0.122742  0.000116  1.003911  0.001
H  H16  1  0.97822139  0.05506164  0.58737595  1  0.031468  1.1e-05  0.091255  0.085667  -2e-05  0.992454  0.0
H  H17  1  0.88585632  0.95793789  0.60133317  1  0.018796  7.4e-05  0.094509  0.088627  1.1e-05  0.983407  0.0
H  H18  1  0.74964931  0.17618367  0.55937899  1  0.061548  0.000323  0.112799  0.097485  5.8e-05  0.983096  0.0
H  H19  1  0.74376416  0.16646471  0.66213760  1  0.090893  0.000301  0.117225  0.105158  1.5e-05  1.002837  0.0
H  H20  1  0.28281502  0.10221546  0.75010258  1  0.152123  0.000756  0.119842  0.124758  0.000153  1.042769  0.0
H  H21  1  0.48405848  0.22548949  0.71525119  1  0.166311  0.00064  0.146407  0.122472  5.5e-05  0.976249  0.0
H  H22  1  0.04642489  0.86859344  0.73757679  1  0.182746  0.000664  0.142654  0.118513  8.3e-05  0.98795  0.0
H  H23  1  0.68657196  0.97347081  0.04253248  1  0.085849  -6e-06  0.099353  0.068535  -4.4e-05  1.012451  0.0
H  H24  1  0.57051697  0.06647041  0.05937609  1  0.073028  0.000261  0.102312  0.073663  5.1e-05  1.016928  0.0
H  H25  1  0.77000387  0.13476041  0.83738183  1  0.104964  0.000545  0.108308  0.125157  0.000204  1.000169  0.0
H  H26  1  0.28642661  0.20581692  0.96409570  1  0.124334  0.000546  0.101242  0.110445  0.000202  1.031057  0.0
H  H27  1  0.90617597  0.06659482  0.08258996  1  0.084734  2.7e-05  0.106731  0.122415  -6.1e-05  1.028591  0.0
H  H28  1  0.90973513  0.52613606  0.86608224  1  0.047666  0.0  0.091976  0.086108  -4.6e-05  1.003327  0.0
H  H29  1  0.86265439  0.53680318  0.96534317  1  0.018241  4.9e-05  0.090537  0.081162  1.7e-05  0.99785  0.0
H  H30  1  0.66286226  0.49511819  0.75897680  1  0.119358  0.000115  0.114512  0.107486  0.0  0.997876  0.0
H  H31  1  0.56300832  0.59159182  0.77186254  1  0.087958  0.000386  0.110048  0.093795  5.3e-05  1.026663  0.0
H  H32  1  0.10663571  0.65157904  0.02449424  1  0.098221  0.000902  0.128828  0.132273  0.000321  0.985289  0.0
H  H33  1  0.94790801  0.48663042  0.70192193  1  0.152765  0.000787  0.117598  0.116608  0.000234  1.038847  0.001
H  H34  1  0.41985997  0.72788210  0.98236581  1  0.131391  0.000841  0.122838  0.122702  0.000116  1.003854  0.001
H  H35  1  0.52177631  0.55506199  0.91262575  1  0.031428  1.1e-05  0.091236  0.085603  -2.1e-05  0.992497  0.0
H  H36  1  0.61414656  0.45793790  0.89867151  1  0.018672  7.4e-05  0.094473  0.088561  1.1e-05  0.983439  0.0
H  H37  1  0.75034607  0.67618732  0.94061547  1  0.061648  0.000323  0.112821  0.097484  5.8e-05  0.98312  0.0
H  H38  1  0.75623814  0.66646296  0.83785839  1  0.09099  0.000301  0.117236  0.105175  1.5e-05  1.00286  0.0
H  H39  1  0.21718890  0.60221320  0.74989812  1  0.15215  0.000756  0.119841  0.124778  0.000153  1.04278  0.0
H  H40  1  0.01594312  0.72549173  0.78474639  1  0.166251  0.00064  0.146411  0.122487  5.5e-05  0.976197  0.0
H  H41  1  0.45357428  0.36859122  0.76242530  1  0.183111  0.000663  0.142683  0.118583  8.3e-05  0.98792  0.0
H  H42  1  0.18657521  0.52652512  0.54253253  1  0.085857  -6e-06  0.099399  0.068619  -4.4e-05  1.012418  0.0
H  H43  1  0.07051852  0.43352545  0.55937642  1  0.072945  0.000261  0.1023  0.073684  5.1e-05  1.01685  0.0
H  H44  1  0.27001214  0.36523382  0.33738407  1  0.105034  0.000545  0.108302  0.125196  0.000204  1.00011  0.0
H  H45  1  0.78644251  0.29418388  0.46409493  1  0.124352  0.000546  0.101237  0.110428  0.000202  1.031038  0.0
H  H46  1  0.40618710  0.43340298  0.58259135  1  0.084811  2.7e-05  0.106715  0.122317  -6.1e-05  1.028764  0.0
H  H47  1  0.40973979  0.97386605  0.36607366  1  0.047525  0.0  0.091899  0.08593  -4.6e-05  1.003547  0.0
H  H48  1  0.36266187  0.96320742  0.46533531  1  0.018241  4.9e-05  0.090593  0.081247  1.7e-05  0.997751  0.0
H  H49  1  0.16285541  0.00488107  0.25896848  1  0.119364  0.000115  0.114519  0.107487  0.0  0.997873  0.0
H  H50  1  0.06300666  0.90840840  0.27186073  1  0.087902  0.000386  0.11003  0.093764  5.3e-05  1.026681  0.0
H  H51  1  0.60663271  0.84842065  0.52449980  1  0.098194  0.000902  0.12882  0.132302  0.000321  0.985294  0.0
H  H52  1  0.44790248  0.01336907  0.20191956  1  0.152741  0.000788  0.117644  0.116606  0.000235  1.038686  0.001
H  H53  1  0.91985554  0.77211509  0.48237228  1  0.131385  0.000841  0.122833  0.122647  0.000116  1.004034  0.001
H  H54  1  0.02178395  0.94494609  0.41262262  1  0.031146  1.1e-05  0.091262  0.085733  -2e-05  0.992454  0.0
H  H55  1  0.11415174  0.04206923  0.39866201  1  0.019021  7.4e-05  0.094478  0.088598  1.1e-05  0.983404  0.0
H  H56  1  0.25034782  0.82382285  0.44062093  1  0.061355  0.000323  0.112838  0.097485  5.8e-05  0.98307  0.0
H  H57  1  0.25623845  0.83353818  0.33786260  1  0.090921  0.000301  0.117234  0.105149  1.5e-05  1.002846  0.0
H  H58  1  0.71718757  0.89778561  0.24989468  1  0.151905  0.000756  0.119839  0.124755  0.000153  1.042704  0.0
H  H59  1  0.51594550  0.77451279  0.28475025  1  0.166379  0.00064  0.146422  0.122514  5.5e-05  0.976202  0.0
H  H60  1  0.95356950  0.13141005  0.26242300  1  0.182896  0.000664  0.142648  0.118485  8.3e-05  0.98798  0.0
H  H61  1  0.31342378  0.02652663  0.95746502  1  0.08582  -6e-06  0.099394  0.06861  -4.4e-05  1.012415  0.0
H  H62  1  0.42948015  0.93352521  0.94062384  1  0.073085  0.000261  0.102282  0.073622  5.1e-05  1.016949  0.0
H  H63  1  0.22999461  0.86523340  0.16261522  1  0.104869  0.000545  0.108267  0.125122  0.000204  1.000021  0.0
H  H64  1  0.71356232  0.79418416  0.03590617  1  0.124392  0.000546  0.101241  0.110406  0.000202  1.031066  0.0
H  H65  1  0.09381157  0.93340444  0.91740950  1  0.084801  2.7e-05  0.106705  0.122298  -6.1e-05  1.028765  0.0
H  H66  1  0.09026065  0.47386562  0.13392291  1  0.047588  0.0  0.091928  0.085991  -4.6e-05  1.003515  0.0
H  H67  1  0.13733865  0.46320213  0.03466185  1  0.018184  4.9e-05  0.090553  0.081174  1.7e-05  0.997727  0.0
H  H68  1  0.33714447  0.50487864  0.24102772  1  0.1194  0.000115  0.114503  0.10744  0.0  0.99793  0.0
H  H69  1  0.43699702  0.40840622  0.22813780  1  0.087917  0.000385  0.110028  0.093735  5.3e-05  1.026718  0.0
H  H70  1  0.89336414  0.34842263  0.97550288  1  0.098251  0.000902  0.128824  0.132306  0.000321  0.985274  0.0
H  H71  1  0.05209733  0.51337125  0.29807605  1  0.152578  0.000788  0.117641  0.116621  0.000235  1.038754  0.001
H  H72  1  0.58014124  0.27211655  0.01762962  1  0.131392  0.000841  0.122821  0.122642  0.000116  1.003998  0.001
H  H73  1  0.47821535  0.44494089  0.08737449  1  0.031065  1.1e-05  0.09124  0.085659  -2e-05  0.992427  0.0
H  H74  1  0.38584922  0.54206439  0.10133305  1  0.018743  7.4e-05  0.094479  0.088581  1.1e-05  0.983412  0.0
H  H75  1  0.24965105  0.32381739  0.05938328  1  0.060915  0.000323  0.112834  0.097473  5.8e-05  0.983051  0.0
H  H76  1  0.24375761  0.33353751  0.16214088  1  0.091151  0.000301  0.11723  0.105156  1.5e-05  1.002795  0.0
H  H77  1  0.78282191  0.39778545  0.25009954  1  0.152136  0.000756  0.119853  0.124768  0.000153  1.042753  0.0
H  H78  1  0.98404989  0.27450873  0.21525158  1  0.166323  0.00064  0.146416  0.122532  5.5e-05  0.976179  0.0
H  H79  1  0.54642151  0.63140683  0.23758280  1  0.182836  0.000664  0.142671  0.118568  8.3e-05  0.987911  0.0
C  C80  1  0.67941755  0.59415496  0.54195363  1  0.497311  0.000642  0.085372  0.261013  0.000243  4.076259  0.001
C  C81  1  0.90953766  0.51941423  0.48456565  1  0.388328  -4.3e-05  -0.070228  1.9e-05  -0.000104  3.884694  0.0
C  C82  1  0.63322547  0.63466144  0.60907853  1  -0.112062  0.001466  -0.093378  -0.201654  0.00076  3.943411  0.001
C  C83  1  0.34489855  0.67539565  0.53707218  1  -0.095123  0.002086  -0.096954  -0.150373  0.001077  3.983256  0.001
C  C84  1  0.39350770  0.63728350  0.46917802  1  -0.027845  0.005063  -0.021297  -0.016981  0.002525  3.995994  0.004
C  C85  1  0.26553148  0.64089478  0.39348423  1  1.569568  0.001674  0.201669  0.568628  0.001688  4.207751  0.0
C  C86  1  0.56096170  0.59613794  0.47120313  1  -0.021136  0.000325  -0.095469  -0.220194  -0.000214  3.939065  0.0
C  C87  1  0.46604999  0.67486065  0.60688427  1  0.065957  0.001849  -0.027754  -0.027714  0.000937  4.052291  0.001
C  C88  1  0.41801031  0.71859528  0.67820548  1  1.522025  0.000614  0.192479  0.54631  -4.7e-05  4.225924  -0.001
C  C89  1  0.68497390  0.05414030  0.59612502  1  -0.041128  0.000325  -0.161981  -0.163874  0.000188  3.941215  0.0
C  C90  1  0.93436174  0.02834515  0.70858868  1  0.252189  0.000971  -0.054677  -0.077815  0.000593  3.858641  0.001
C  C91  1  0.36252768  0.17654701  0.53134673  1  0.323054  0.002206  0.001264  -0.109417  0.00111  3.935924  0.001
C  C92  1  0.40852867  0.97972562  0.77609347  1  0.359065  0.003754  -0.004944  -0.037388  0.002327  4.010268  0.003
C  C93  1  0.20911268  0.21426412  0.55269841  1  0.388049  0.002943  0.000197  -0.032378  0.001848  4.008578  0.002
C  C94  1  0.87927689  0.02177092  0.61917621  1  0.011108  0.000389  -0.159988  -0.15617  0.000207  3.93423  0.0
C  C95  1  0.67716036  0.14626751  0.60434764  1  0.323213  0.000974  -0.052605  -0.072247  0.000665  3.860938  0.001
C  C96  1  0.27734179  0.03674908  0.75281524  1  0.279319  0.004002  -0.004064  -0.111401  0.002051  3.90459  0.003
C  C97  1  0.41354890  0.21548260  0.65643778  1  0.961614  0.002292  0.148815  0.094589  0.001099  3.910394  0.002
C  C98  1  0.15077168  0.91501458  0.74558935  1  0.94894  0.006244  0.149976  0.108951  0.003474  3.896325  0.005
C  C99  1  0.82057848  0.09415645  0.95804679  1  0.497288  0.000643  0.085314  0.26092  0.000243  4.076251  0.001
C  C100  1  0.59046238  0.01941386  0.01543360  1  0.388309  -4.3e-05  -0.070143  0.000217  -0.000104  3.884491  0.0
C  C101  1  0.86677025  0.13466472  0.89092244  1  -0.112047  0.001465  -0.093378  -0.201538  0.00076  3.943292  0.001
C  C102  1  0.15509798  0.17539919  0.96293106  1  -0.094979  0.002086  -0.096905  -0.15036  0.001077  3.983366  0.001
C  C103  1  0.10648846  0.13728491  0.03082440  1  -0.027923  0.005063  -0.021337  -0.017056  0.002525  3.996283  0.004
C  C104  1  0.23446601  0.14089476  0.10651472  1  1.569407  0.001673  0.201706  0.568664  0.001688  4.207671  0.0
C  C105  1  0.93903640  0.09614070  0.02879775  1  -0.021136  0.000325  -0.095432  -0.220182  -0.000215  3.939131  0.0
C  C106  1  0.03394380  0.17486379  0.89311883  1  0.066019  0.001849  -0.027831  -0.027831  0.000937  4.052408  0.001
C  C107  1  0.08198314  0.21859839  0.82179582  1  1.522113  0.000616  0.19255  0.546463  -4.7e-05  4.225571  -0.001
C  C108  1  0.81502654  0.55414205  0.90387681  1  -0.041114  0.000325  -0.162013  -0.164077  0.000188  3.941328  0.0
C  C109  1  0.56563752  0.52834187  0.79141311  1  0.252338  0.000971  -0.054673  -0.077863  0.000593  3.858689  0.001
C  C110  1  0.13747292  0.67654656  0.96864906  1  0.323222  0.002205  0.00135  -0.109271  0.00111  3.936018  0.001
C  C111  1  0.09146964  0.47972454  0.72390381  1  0.358837  0.003755  -0.00494  -0.037241  0.002327  4.009978  0.003
C  C112  1  0.29088217  0.71426286  0.94730002  1  0.388157  0.002942  0.000113  -0.032464  0.001848  4.008661  0.002
C  C113  1  0.62072243  0.52177115  0.88082618  1  0.011179  0.00039  -0.159933  -0.15595  0.000207  3.934229  0.0
C  C114  1  0.82283936  0.64626926  0.89564941  1  0.322996  0.000974  -0.052604  -0.07217  0.000665  3.86096  0.001
C  C115  1  0.22266535  0.53675044  0.74718507  1  0.279503  0.004002  -0.003981  -0.111426  0.002051  3.904364  0.003
C  C116  1  0.08645278  0.71548350  0.84356040  1  0.961706  0.002291  0.14881  0.094551  0.001098  3.910382  0.002
C  C117  1  0.34923398  0.41501069  0.75441185  1  0.94837  0.006246  0.149927  0.108866  0.003474  3.896462  0.005
C  C118  1  0.32058233  0.40584006  0.45804878  1  0.497699  0.000643  0.085342  0.26092  0.000243  4.076137  0.001
C  C119  1  0.09046905  0.48058140  0.51543417  1  0.417358  -4.4e-05  -0.07013  0.000173  -0.000104  3.884297  0.0
C  C120  1  0.36677851  0.36533176  0.39092350  1  -0.111962  0.001466  -0.093385  -0.201595  0.000761  3.943115  0.001
C  C121  1  0.65510954  0.32460058  0.46292947  1  -0.095332  0.002086  -0.09695  -0.150368  0.001077  3.983437  0.001
C  C122  1  0.60650040  0.36271455  0.53082598  1  -0.027424  0.005062  -0.021344  -0.017084  0.002524  3.996118  0.004
C  C123  1  0.73447660  0.35910629  0.60651683  1  1.569533  0.001674  0.201647  0.568535  0.001689  4.207616  0.0
C  C124  1  0.43904638  0.40385708  0.52879852  1  -0.021423  0.000325  -0.095442  -0.220089  -0.000214  3.939223  0.0
C  C125  1  0.53395811  0.32513317  0.39311914  1  0.065962  0.001849  -0.027774  -0.027783  0.000937  4.05239  0.001
C  C126  1  0.58199367  0.28140035  0.32179538  1  1.521838  0.000613  0.192491  0.546332  -4.6e-05  4.225988  -0.001
C  C127  1  0.31503006  0.94586441  0.40387171  1  -0.041239  0.000325  -0.16197  -0.163884  0.000188  3.941464  0.0
C  C128  1  0.06563948  0.97165834  0.29140792  1  0.252319  0.000971  -0.054704  -0.077845  0.000593  3.858429  0.001
C  C129  1  0.63747220  0.82345406  0.46865510  1  0.323033  0.002206  0.00126  -0.109434  0.00111  3.935943  0.001
C  C130  1  0.59147255  0.02027605  0.22390314  1  0.358769  0.003755  -0.004983  -0.037305  0.002327  4.010161  0.003
C  C131  1  0.79088037  0.78573635  0.44730602  1  0.388276  0.002944  0.000319  -0.032159  0.001848  4.008625  0.002
C  C132  1  0.12072981  0.97823439  0.38082067  1  0.011132  0.00039  -0.159943  -0.156255  0.000207  3.934299  0.0
C  C133  1  0.32283950  0.85373719  0.39565125  1  0.323467  0.000974  -0.052563  -0.072062  0.000665  3.860882  0.001
C  C134  1  0.72266217  0.96325320  0.24718209  1  0.279805  0.004002  -0.003998  -0.111431  0.002051  3.904538  0.003
C  C135  1  0.58645234  0.78451908  0.34356412  1  0.961602  0.002293  0.148794  0.094502  0.001099  3.910411  0.002
C  C136  1  0.84922133  0.08498891  0.25440861  1  0.948777  0.006245  0.14999  0.108968  0.003474  3.896444  0.005
C  C137  1  0.17941728  0.90583917  0.04195308  1  0.497177  0.000643  0.0853  0.260916  0.000243  4.076175  0.001
C  C138  1  0.40953337  0.98058298  0.98456567  1  0.417238  -4.4e-05  -0.070163  8.6e-05  -0.000105  3.884481  0.0
C  C139  1  0.13322139  0.86533091  0.10907428  1  -0.111681  0.001466  -0.093309  -0.201533  0.000761  3.943345  0.001
C  C140  1  0.84489231  0.82460067  0.03706971  1  -0.095269  0.002087  -0.096978  -0.150408  0.001077  3.983365  0.001
C  C141  1  0.89350593  0.86271253  0.96917598  1  -0.027565  0.005062  -0.021372  -0.017111  0.002524  3.996056  0.004
C  C142  1  0.76553245  0.85910752  0.89347821  1  1.569511  0.001677  0.201653  0.568585  0.001692  4.207842  0.0
C  C143  1  0.06095387  0.90385735  0.97120066  1  -0.021275  0.000326  -0.095434  -0.22006  -0.000213  3.939241  0.0
C  C144  1  0.96605059  0.82513426  0.10688097  1  0.065973  0.001849  -0.027736  -0.0277  0.000937  4.052253  0.001
C  C145  1  0.91800578  0.78140147  0.17820547  1  1.521809  0.000616  0.192541  0.546489  -4.5e-05  4.225787  -0.001
C  C146  1  0.18496924  0.44586144  0.09612658  1  -0.041135  0.000325  -0.161966  -0.163918  0.000188  3.941349  0.0
C  C147  1  0.43436372  0.47165678  0.20858938  1  0.25215  0.000971  -0.054678  -0.07771  0.000593  3.858601  0.001
C  C148  1  0.86252557  0.32345391  0.03134799  1  0.323064  0.002205  0.001304  -0.109367  0.00111  3.936087  0.001
C  C149  1  0.90853023  0.52027714  0.27609625  1  0.358627  0.003754  -0.004959  -0.037314  0.002327  4.010248  0.003
C  C150  1  0.70911768  0.28573700  0.05269593  1  0.388265  0.002944  0.000166  -0.032354  0.001849  4.00875  0.002
C  C151  1  0.37927334  0.47823113  0.11917603  1  0.011625  0.00039  -0.159887  -0.156061  0.000207  3.934134  0.0
C  C152  1  0.17715640  0.35373484  0.10435046  1  0.323588  0.000974  -0.052605  -0.072075  0.000665  3.860824  0.001
C  C153  1  0.77734410  0.46325245  0.25281488  1  0.279844  0.004003  -0.004019  -0.111353  0.002052  3.904515  0.003
C  C154  1  0.91354434  0.28451636  0.15643659  1  0.961776  0.002293  0.148852  0.094525  0.001099  3.910295  0.002
C  C155  1  0.65077139  0.58498675  0.24559319  1  0.948641  0.006246  0.150014  0.109003  0.003474  3.896286  0.005
N  N156  1  0.24242414  0.23812757  0.63114885  1  -1.218334  0.064617  -0.363718  -0.311194  0.03373  3.659384  0.044
N  N157  1  0.32748310  0.90389473  0.77123843  1  -1.209015  0.06616  -0.372807  -0.320519  0.034686  3.691935  0.041
N  N158  1  0.11525581  0.99467336  0.73386180  1  -1.233663  0.005854  -0.24072  0.054172  0.002588  3.761844  0.004
N  N159  1  0.49055224  0.17789262  0.59765489  1  -1.228323  0.006067  -0.241356  0.044694  0.002826  3.785473  0.005
N  N160  1  0.25757873  0.73812943  0.86884879  1  -1.218323  0.064615  -0.363631  -0.311063  0.03373  3.659197  0.044
N  N161  1  0.17252400  0.40389232  0.72876109  1  -1.208977  0.066163  -0.372801  -0.320607  0.034689  3.691964  0.041
N  N162  1  0.38474788  0.49467062  0.76613927  1  -1.233639  0.005856  -0.240741  0.054174  0.002589  3.762022  0.004
N  N163  1  0.00944834  0.67789239  0.90234208  1  -1.22852  0.006067  -0.241445  0.044592  0.002826  3.78563  0.005
N  N164  1  0.75757711  0.76187108  0.36885481  1  -1.218427  0.064616  -0.363787  -0.311258  0.033729  3.65931  0.044
N  N165  1  0.67251676  0.09610695  0.22875986  1  -1.209223  0.06617  -0.372804  -0.320583  0.03469  3.692064  0.041
N  N166  1  0.88474268  0.00533074  0.26613643  1  -1.233509  0.005856  -0.240774  0.054279  0.002589  3.761689  0.004
N  N167  1  0.50944900  0.82211087  0.40234701  1  -1.228391  0.006067  -0.24141  0.044637  0.002826  3.785655  0.005
N  N168  1  0.74241974  0.26186983  0.13114650  1  -1.218509  0.064616  -0.363691  -0.311093  0.033729  3.659182  0.044
N  N169  1  0.82747999  0.59610694  0.27124330  1  -1.209032  0.066165  -0.372841  -0.320611  0.034688  3.691982  0.041
N  N170  1  0.61525610  0.50532863  0.23386218  1  -1.233472  0.005855  -0.240787  0.054012  0.002589  3.76196  0.004
N  N171  1  0.99054877  0.32210868  0.09765491  1  -1.228503  0.006068  -0.241412  0.044578  0.002826  3.785606  0.005
O  O172  1  0.84334628  0.55493116  0.55240033  1  -1.085454  0.000351  -0.179808  -0.197052  9.6e-05  2.559677  0.0
O  O173  1  0.11463713  0.68062866  0.39988858  1  -1.161737  0.098548  -0.335501  -0.567921  0.050379  2.405062  0.076
O  O174  1  0.25834675  0.74383910  0.68327843  1  -1.166548  0.045281  -0.323355  -0.557876  0.022175  2.129983  0.038
O  O175  1  0.30522502  0.60868709  0.33118805  1  -1.183955  0.014489  -0.324765  -0.56656  0.007025  2.144464  0.011
O  O176  1  0.55009880  0.72997750  0.73535465  1  -1.151341  0.098509  -0.33807  -0.564225  0.05052  2.330886  0.075
O  O177  1  0.65665141  0.05493350  0.94759960  1  -1.085486  0.000351  -0.179768  -0.197017  9.6e-05  2.559657  0.0
O  O178  1  0.38535871  0.18062782  0.10011321  1  -1.16182  0.098541  -0.335539  -0.567974  0.050378  2.405215  0.076
O  O179  1  0.24164788  0.24384380  0.81672232  1  -1.166552  0.045288  -0.323327  -0.557934  0.022179  2.12992  0.038
O  O180  1  0.19477272  0.10868347  0.16881270  1  -1.183718  0.014492  -0.32479  -0.566554  0.007026  2.144245  0.011
O  O181  1  0.94989619  0.22997951  0.76464388  1  -1.151397  0.098511  -0.338082  -0.564241  0.050521  2.330724  0.075
O  O182  1  0.15665496  0.44506265  0.44759980  1  -1.085786  0.000351  -0.17978  -0.197  9.6e-05  2.559403  0.0
O  O183  1  0.88536684  0.31937060  0.60011168  1  -1.161809  0.098546  -0.335509  -0.567886  0.050379  2.404984  0.076
O  O184  1  0.74166271  0.25615472  0.31672328  1  -1.16628  0.045288  -0.323328  -0.557898  0.022177  2.129944  0.038
O  O185  1  0.69478580  0.39131700  0.66881256  1  -1.183978  0.014491  -0.324748  -0.566488  0.007026  2.144371  0.011
O  O186  1  0.44990380  0.27002297  0.26464437  1  -1.151534  0.098508  -0.338022  -0.564138  0.050519  2.330915  0.075
O  O187  1  0.34334160  0.94506516  0.05239895  1  -1.085445  0.000351  -0.179757  -0.196974  9.6e-05  2.559354  0.0
O  O188  1  0.61463705  0.81936841  0.89988665  1  -1.161712  0.098572  -0.335454  -0.567903  0.050391  2.404905  0.076
O  O189  1  0.75834789  0.75615848  0.18327872  1  -1.166353  0.04528  -0.323344  -0.557943  0.022174  2.130147  0.038
O  O190  1  0.80522031  0.89131215  0.83119114  1  -1.184094  0.014485  -0.324705  -0.566405  0.007022  2.144956  0.011
O  O191  1  0.05010093  0.77002095  0.23535546  1  -1.151333  0.098516  -0.338078  -0.564264  0.050523  2.330784  0.075
