# generated using pymatgen
data_CaH13C10SNO6
_symmetry_space_group_name_H-M   'P 1'
_cell_length_a   6.54391591
_cell_length_b   10.47410338
_cell_length_c   18.47122980
_cell_angle_alpha   89.99963569
_cell_angle_beta   98.24096200
_cell_angle_gamma   89.99986502
_symmetry_Int_Tables_number   1
_chemical_formula_structural   CaH13C10SNO6
_chemical_formula_sum   'Ca4 H52 C40 S4 N4 O24'
_cell_volume   1252.97539516
_cell_formula_units_Z   4
loop_
 _symmetry_equiv_pos_site_id
 _symmetry_equiv_pos_as_xyz
  1  'x, y, z'
loop_
 _atom_site_type_symbol
 _atom_site_label
 _atom_site_symmetry_multiplicity
 _atom_site_fract_x
 _atom_site_fract_y
 _atom_site_fract_z
 _atom_site_occupancy
 _atom_site_hle17_bader_spin_density
 _atom_site_hle17_ddec_charge
 _atom_site_hle17_ddec_spin_density
 _atom_site_hle17_ddec_sum_bond_order
 _atom_site_hle17_magmom
 _atom_site_hse06_10hf_bader_spin_density
 _atom_site_hse06_10hf_ddec_charge
 _atom_site_hse06_10hf_ddec_spin_density
 _atom_site_hse06_10hf_ddec_sum_bond_order
 _atom_site_hse06_10hf_magmom
 _atom_site_hse06_bader_spin_density
 _atom_site_hse06_ddec_charge
 _atom_site_hse06_ddec_spin_density
 _atom_site_hse06_ddec_sum_bond_order
 _atom_site_hse06_magmom
 _atom_site_pbe_bader_spin_density
 _atom_site_pbe_cm5_charge
 _atom_site_pbe_ddec_charge
 _atom_site_pbe_ddec_spin_density
 _atom_site_pbe_ddec_sum_bond_order
 _atom_site_pbe_magmom
Ca  Ca0  1  0.25114779  0.90484792  0.47603902  1  0  1.570324  0  1.108115  0  0  1.442439  0  1.460919  0  0  1.487779  0  1.41272  0  0  0.901736  1.408322  0  1.495307  0
Ca  Ca1  1  0.24884837  0.40484485  0.02395914  1  0  1.57039  0  1.107989  0  0  1.442537  0  1.460737  0  0  1.487879  0  1.412545  0  0  0.901748  1.408426  0  1.495118  0
Ca  Ca2  1  0.74885064  0.09515319  0.52396058  1  0  1.570341  0  1.108125  0  0  1.442474  0  1.460883  0  0  1.487816  0  1.412691  0  0  0.901768  1.408365  0  1.495265  0
Ca  Ca3  1  0.75115776  0.59515530  0.97603758  1  0  1.570275  0  1.1082  0  0  1.442415  0  1.460988  0  0  1.487763  0  1.412784  0  0  0.901744  1.408302  0  1.49537  0
H  H4  1  0.63196580  0.08459576  0.70382045  1  0  0.123777  0  0.941372  0  0  0.134756  0  1.001288  0  0  0.138039  0  0.999285  0  0  0.118593  0.132413  0  1.002735  0
H  H5  1  0.86803955  0.58459779  0.79617489  1  0  0.123753  0  0.94139  0  0  0.134784  0  1.001239  0  0  0.138071  0  0.999236  0  0  0.118602  0.132441  0  1.002686  0
H  H6  1  0.36802949  0.91540917  0.29617303  1  0  0.123789  0  0.94138  0  0  0.134756  0  1.001315  0  0  0.138038  0  0.999313  0  0  0.118594  0.132416  0  1.002762  0
H  H7  1  0.13196203  0.41542623  0.20382973  1  0  0.12384  0  0.941332  0  0  0.134829  0  1.001225  0  0  0.138114  0  0.999224  0  0  0.118612  0.132488  0  1.002668  0
H  H8  1  0.59084495  0.17931058  0.83406870  1  0  0.117287  0  0.950723  0  0  0.130757  0  1.006174  0  0  0.133696  0  1.004891  0  0  0.112218  0.128611  0  1.007264  0
H  H9  1  0.90917684  0.67930349  0.66592656  1  0  0.117294  0  0.950762  0  0  0.130767  0  1.006205  0  0  0.133704  0  1.004924  0  0  0.112197  0.12862  0  1.007299  0
H  H10  1  0.40916424  0.82069244  0.16592655  1  0  0.117283  0  0.950762  0  0  0.130809  0  1.006148  0  0  0.133751  0  1.004855  0  0  0.112212  0.128662  0  1.007242  0
H  H11  1  0.09082319  0.32071194  0.33407799  1  0  0.117242  0  0.950858  0  0  0.13076  0  1.00626  0  0  0.133715  0  1.004928  0  0  0.112174  0.128613  0  1.007356  0
H  H12  1  0.21835312  0.59911098  0.31339449  1  0  0.136922  0  0.954067  0  0  0.153609  0  1.0176  0  0  0.155886  0  1.016736  0  0  0.096936  0.151937  0  1.018301  0
H  H13  1  0.28164018  0.09911084  0.18660898  1  0  0.136944  0  0.954008  0  0  0.153623  0  1.01756  0  0  0.155903  0  1.016691  0  0  0.096936  0.151947  0  1.018261  0
H  H14  1  0.78164080  0.40087581  0.68661570  1  0  0.136953  0  0.953981  0  0  0.153607  0  1.01756  0  0  0.155886  0  1.016695  0  0  0.096888  0.151935  0  1.018258  0
H  H15  1  0.71835517  0.90088740  0.81339046  1  0  0.136913  0  0.954016  0  0  0.153596  0  1.01756  0  0  0.155874  0  1.016693  0  0  0.096932  0.151919  0  1.018261  0
H  H16  1  0.39663039  0.46936026  0.33274341  1  0  0.137616  0  0.952444  0  0  0.152918  0  1.019188  0  0  0.155429  0  1.018549  0  0  0.098274  0.15113  0  1.019648  0
H  H17  1  0.10335464  0.96936122  0.16725884  1  0  0.137576  0  0.952444  0  0  0.152861  0  1.019207  0  0  0.15538  0  1.01855  0  0  0.098268  0.15107  0  1.019683  0
H  H18  1  0.60336966  0.53063607  0.66726276  1  0  0.137561  0  0.952495  0  0  0.152862  0  1.019231  0  0  0.155379  0  1.018578  0  0  0.098312  0.151076  0  1.019689  0
H  H19  1  0.89663918  0.03064085  0.83274269  1  0  0.13755  0  0.952452  0  0  0.152829  0  1.019235  0  0  0.155347  0  1.018581  0  0  0.098255  0.151042  0  1.019696  0
H  H20  1  0.47350070  0.61209628  0.29275278  1  0  0.137054  0  0.961044  0  0  0.155146  0  1.022703  0  0  0.156928  0  1.023385  0  0  0.098201  0.15385  0  1.02231  0
H  H21  1  0.02648786  0.11210103  0.20724716  1  0  0.136985  0  0.961023  0  0  0.155072  0  1.022709  0  0  0.156855  0  1.023394  0  0  0.098175  0.153775  0  1.022314  0
H  H22  1  0.52647922  0.38789719  0.70724752  1  0  0.137007  0  0.961072  0  0  0.155116  0  1.022722  0  0  0.156897  0  1.023408  0  0  0.098175  0.153817  0  1.02233  0
H  H23  1  0.97351215  0.88790198  0.79275467  1  0  0.137  0  0.961011  0  0  0.155095  0  1.022685  0  0  0.156876  0  1.023371  0  0  0.098172  0.153798  0  1.022291  0
H  H24  1  0.56216503  0.68026010  0.54261300  1  0  0.110514  0  0.977448  0  0  0.124539  0  1.047679  0  0  0.12684  0  1.045694  0  0  0.113901  0.122759  0  1.049255  0
H  H25  1  0.93783676  0.18025675  0.95738831  1  0  0.110538  0  0.97746  0  0  0.124564  0  1.047692  0  0  0.126865  0  1.045712  0  0  0.113909  0.122785  0  1.049268  0
H  H26  1  0.43785505  0.31974578  0.45738983  1  0  0.110537  0  0.97743  0  0  0.124546  0  1.047686  0  0  0.126856  0  1.045694  0  0  0.113892  0.122765  0  1.049265  0
H  H27  1  0.06216325  0.81973958  0.04261407  1  0  0.110519  0  0.977411  0  0  0.124536  0  1.047677  0  0  0.126838  0  1.045693  0  0  0.1139  0.122757  0  1.049251  0
H  H28  1  0.80881074  0.72338165  0.51946280  1  0  0.107926  0  0.96271  0  0  0.12603  0  1.029363  0  0  0.127311  0  1.02829  0  0  0.113313  0.124984  0  1.030275  0
H  H29  1  0.69119230  0.22338698  0.98053354  1  0  0.10791  0  0.9627  0  0  0.126021  0  1.029348  0  0  0.127305  0  1.028273  0  0  0.1133  0.124975  0  1.03026  0
H  H30  1  0.19121081  0.27661182  0.48053306  1  0  0.107875  0  0.962812  0  0  0.125986  0  1.029456  0  0  0.127269  0  1.028384  0  0  0.113326  0.12494  0  1.03037  0
H  H31  1  0.30880615  0.77661222  0.01946714  1  0  0.107854  0  0.962771  0  0  0.125979  0  1.029422  0  0  0.127261  0  1.028349  0  0  0.113289  0.124933  0  1.030336  0
H  H32  1  0.76628661  0.56534221  0.54987543  1  0  0.091351  0  0.954375  0  0  0.115978  0  1.014998  0  0  0.115693  0  1.016145  0  0  0.103638  0.116051  0  1.014307  0
H  H33  1  0.73371116  0.06534304  0.95012339  1  0  0.091337  0  0.954307  0  0  0.115978  0  1.014923  0  0  0.115693  0  1.01607  0  0  0.103626  0.116051  0  1.014235  0
H  H34  1  0.23372417  0.43465508  0.45012369  1  0  0.091299  0  0.954275  0  0  0.115896  0  1.01496  0  0  0.11561  0  1.016107  0  0  0.103604  0.115969  0  1.014271  0
H  H35  1  0.26629346  0.93465425  0.04987651  1  0  0.09133  0  0.954437  0  0  0.115993  0  1.015024  0  0  0.115708  0  1.01617  0  0  0.103638  0.116066  0  1.014334  0
H  H36  1  0.80646635  0.43640669  0.43964983  1  0  0.104667  0  0.939445  0  0  0.124236  0  1.003269  0  0  0.124966  0  1.003527  0  0  0.105913  0.123604  0  1.003213  0
H  H37  1  0.69352238  0.93641061  0.06035186  1  0  0.104708  0  0.9394  0  0  0.124244  0  1.003257  0  0  0.124974  0  1.003517  0  0  0.105917  0.123615  0  1.003201  0
H  H38  1  0.19351820  0.56358391  0.56035015  1  0  0.104648  0  0.939504  0  0  0.124186  0  1.003357  0  0  0.124915  0  1.003617  0  0  0.105888  0.123559  0  1.003303  0
H  H39  1  0.30647299  0.06358859  0.93964920  1  0  0.104696  0  0.939416  0  0  0.124234  0  1.003262  0  0  0.124967  0  1.003517  0  0  0.105911  0.123602  0  1.003206  0
H  H40  1  0.93306323  0.58202585  0.42136313  1  0  0.102699  0  0.941976  0  0  0.121081  0  1.010231  0  0  0.122351  0  1.009515  0  0  0.105302  0.120055  0  1.010881  0
H  H41  1  0.56692899  0.08203293  0.07863516  1  0  0.10265  0  0.941986  0  0  0.121044  0  1.010235  0  0  0.122316  0  1.009519  0  0  0.105301  0.120015  0  1.010886  0
H  H42  1  0.06692440  0.41796189  0.57863592  1  0  0.102682  0  0.941944  0  0  0.121102  0  1.010163  0  0  0.122372  0  1.009446  0  0  0.105311  0.120076  0  1.010819  0
H  H43  1  0.43307099  0.91796722  0.92136450  1  0  0.102657  0  0.941989  0  0  0.121046  0  1.010231  0  0  0.122317  0  1.009515  0  0  0.105306  0.120017  0  1.01088  0
H  H44  1  0.74183831  0.51588227  0.35384377  1  0  0.098456  0  0.979493  0  0  0.116467  0  1.046778  0  0  0.115763  0  1.049815  0  0  0.103079  0.116824  0  1.044798  0
H  H45  1  0.75815431  0.01588834  0.14615642  1  0  0.098412  0  0.979589  0  0  0.116444  0  1.046826  0  0  0.115739  0  1.049865  0  0  0.103066  0.116802  0  1.044845  0
H  H46  1  0.25815395  0.48411215  0.64615498  1  0  0.098453  0  0.979574  0  0  0.116439  0  1.046874  0  0  0.115733  0  1.049913  0  0  0.103063  0.116798  0  1.044893  0
H  H47  1  0.24184105  0.98411372  0.85384411  1  0  0.098469  0  0.979552  0  0  0.116454  0  1.046838  0  0  0.115748  0  1.049879  0  0  0.103076  0.116811  0  1.044858  0
H  H48  1  0.29341145  0.11869430  0.37264883  1  0  0.43462  0  0.865688  0  0  0.404469  0  0.928844  0  0  0.415286  0  0.912931  0  0  0.297107  0.396743  0  0.94021  0
H  H49  1  0.20658632  0.61868505  0.12734938  1  0  0.434581  0  0.86572  0  0  0.404439  0  0.928861  0  0  0.415257  0  0.912946  0  0  0.297124  0.396715  0  0.940223  0
H  H50  1  0.70658850  0.88130395  0.62734759  1  0  0.434669  0  0.865603  0  0  0.404531  0  0.928743  0  0  0.415349  0  0.912827  0  0  0.297164  0.396811  0  0.940095  0
H  H51  1  0.79341519  0.38131224  0.87264820  1  0  0.434649  0  0.86564  0  0  0.404513  0  0.928772  0  0  0.415331  0  0.912858  0  0  0.297139  0.396789  0  0.940133  0
H  H52  1  0.05582589  0.11470645  0.38702709  1  0  0.419593  0  0.884764  0  0  0.387262  0  0.952282  0  0  0.397783  0  0.937011  0  0  0.294987  0.379731  0  0.963201  0
H  H53  1  0.44417498  0.61470181  0.11297075  1  0  0.419602  0  0.88475  0  0  0.387274  0  0.952281  0  0  0.397798  0  0.937005  0  0  0.294974  0.379743  0  0.9632  0
H  H54  1  0.94417405  0.88529561  0.61296879  1  0  0.419672  0  0.884648  0  0  0.387382  0  0.952138  0  0  0.397905  0  0.936862  0  0  0.29505  0.379852  0  0.963056  0
H  H55  1  0.55582654  0.38529930  0.88702791  1  0  0.419607  0  0.884741  0  0  0.3873  0  0.952244  0  0  0.397823  0  0.936969  0  0  0.294984  0.379768  0  0.963164  0
C  C56  1  0.18218595  0.28032655  0.85307968  1  0  0.667316  0  3.966559  0  0  0.613701  0  4.272196  0  0  0.647791  0  4.263188  0  0  0.208425  0.590561  0  4.277488  0
C  C57  1  0.31782716  0.78031694  0.64691779  1  0  0.667433  0  3.966295  0  0  0.613894  0  4.271853  0  0  0.647989  0  4.262852  0  0  0.208476  0.590755  0  4.277148  0
C  C58  1  0.81780936  0.71967169  0.14691542  1  0  0.66726  0  3.966616  0  0  0.613669  0  4.272228  0  0  0.647764  0  4.263224  0  0  0.208445  0.590527  0  4.27752  0
C  C59  1  0.68217903  0.21968321  0.35308489  1  0  0.667394  0  3.96639  0  0  0.613832  0  4.271947  0  0  0.647927  0  4.262945  0  0  0.208486  0.590694  0  4.277242  0
C  C60  1  0.27735833  0.10035454  0.59136031  1  0  0.707127  0  3.950769  0  0  0.652837  0  4.244448  0  0  0.689289  0  4.233869  0  0  0.226612  0.627895  0  4.250858  0
C  C61  1  0.22264499  0.60035743  0.90863789  1  0  0.707301  0  3.95059  0  0  0.652833  0  4.244557  0  0  0.689286  0  4.233976  0  0  0.226619  0.627892  0  4.250965  0
C  C62  1  0.72264165  0.89963798  0.40863882  1  0  0.707327  0  3.950622  0  0  0.652838  0  4.244609  0  0  0.68929  0  4.234026  0  0  0.226642  0.627898  0  4.251022  0
C  C63  1  0.77736423  0.39964558  0.09135953  1  0  0.707364  0  3.950655  0  0  0.653035  0  4.244406  0  0  0.689488  0  4.23382  0  0  0.22675  0.628094  0  4.250821  0
C  C64  1  0.31095448  0.13707513  0.66892665  1  0  -0.168995  0  3.724652  0  0  -0.151237  0  3.993009  0  0  -0.158568  0  4.011942  0  0  -0.020892  -0.146377  0  3.980322  0
C  C65  1  0.18904711  0.63708275  0.83107403  1  0  -0.169017  0  3.724486  0  0  -0.151226  0  3.992935  0  0  -0.158561  0  4.011875  0  0  -0.020971  -0.146365  0  3.980247  0
C  C66  1  0.68903163  0.86291166  0.33107504  1  0  -0.169004  0  3.724551  0  0  -0.151162  0  3.992917  0  0  -0.158495  0  4.011848  0  0  -0.020945  -0.146303  0  3.980234  0
C  C67  1  0.81095906  0.36292886  0.16892703  1  0  -0.168975  0  3.724572  0  0  -0.151217  0  3.992968  0  0  -0.158548  0  4.0119  0  0  -0.020849  -0.146357  0  3.980282  0
C  C68  1  0.49130845  0.12694594  0.71833520  1  0  -0.061713  0  3.706148  0  0  -0.092243  0  3.965323  0  0  -0.090758  0  3.982653  0  0  -0.085391  -0.092987  0  3.953301  0
C  C69  1  0.00869933  0.62694958  0.78166203  1  0  -0.061788  0  3.706019  0  0  -0.092353  0  3.965219  0  0  -0.090872  0  3.982552  0  0  -0.085416  -0.093103  0  3.953209  0
C  C70  1  0.50869151  0.87305135  0.28166230  1  0  -0.061888  0  3.706125  0  0  -0.092412  0  3.965288  0  0  -0.090934  0  3.982636  0  0  -0.085439  -0.093159  0  3.953265  0
C  C71  1  0.99130685  0.37306585  0.21834011  1  0  -0.062003  0  3.706057  0  0  -0.092536  0  3.965249  0  0  -0.091061  0  3.982591  0  0  -0.08552  -0.09328  0  3.953225  0
C  C72  1  0.46839770  0.17706060  0.78761641  1  0  -0.091668  0  3.740688  0  0  -0.115536  0  3.994585  0  0  -0.115678  0  4.011703  0  0  -0.096957  -0.115371  0  3.982944  0
C  C73  1  0.03161289  0.67704970  0.71238078  1  0  -0.091563  0  3.740482  0  0  -0.115386  0  3.994359  0  0  -0.115534  0  4.011496  0  0  -0.096857  -0.115223  0  3.982725  0
C  C74  1  0.53160225  0.82295101  0.21238000  1  0  -0.091452  0  3.740474  0  0  -0.115342  0  3.994325  0  0  -0.115492  0  4.011461  0  0  -0.09683  -0.115176  0  3.982688  0
C  C75  1  0.96839022  0.32296859  0.28762338  1  0  -0.091292  0  3.74047  0  0  -0.115148  0  3.994239  0  0  -0.115296  0  4.011395  0  0  -0.096711  -0.114984  0  3.982603  0
C  C76  1  0.27073685  0.22328998  0.79046813  1  0  -0.159031  0  3.726997  0  0  -0.142594  0  3.994266  0  0  -0.14717  0  4.011668  0  0  -0.02389  -0.139601  0  3.982647  0
C  C77  1  0.22927810  0.72328456  0.70952749  1  0  -0.158947  0  3.726696  0  0  -0.142593  0  3.994042  0  0  -0.147175  0  4.011446  0  0  -0.023876  -0.139602  0  3.982425  0
C  C78  1  0.72926155  0.77671304  0.20952767  1  0  -0.159026  0  3.72665  0  0  -0.14262  0  3.993979  0  0  -0.147198  0  4.011381  0  0  -0.023908  -0.139629  0  3.982361  0
C  C79  1  0.77072806  0.27672800  0.29047249  1  0  -0.159298  0  3.726887  0  0  -0.142896  0  3.994206  0  0  -0.147482  0  4.011616  0  0  -0.024064  -0.139905  0  3.982591  0
C  C80  1  0.44079535  0.63000555  0.40742357  1  0  0.585437  0  3.776886  0  0  0.543497  0  4.062439  0  0  0.57288  0  4.063113  0  0  0.248685  0.523606  0  4.061333  0
C  C81  1  0.05919929  0.13000485  0.09257715  1  0  0.585281  0  3.777148  0  0  0.543416  0  4.062601  0  0  0.572799  0  4.063278  0  0  0.24866  0.523527  0  4.061493  0
C  C82  1  0.55920466  0.36999078  0.59257935  1  0  0.585288  0  3.777158  0  0  0.543396  0  4.062647  0  0  0.572803  0  4.063322  0  0  0.248631  0.523506  0  4.061537  0
C  C83  1  0.94079762  0.86999530  0.90742345  1  0  0.585329  0  3.777128  0  0  0.543416  0  4.062642  0  0  0.572802  0  4.063319  0  0  0.248682  0.523528  0  4.061533  0
C  C84  1  0.37924078  0.57371766  0.33232746  1  0  -0.444998  0  3.663234  0  0  -0.521051  0  3.8963  0  0  -0.527269  0  3.899557  0  0  -0.24164  -0.516536  0  3.893921  0
C  C85  1  0.12074647  0.07371795  0.16767364  1  0  -0.444803  0  3.663178  0  0  -0.520858  0  3.896199  0  0  -0.52708  0  3.899461  0  0  -0.241571  -0.51634  0  3.893806  0
C  C86  1  0.62075308  0.42627390  0.66767732  1  0  -0.444843  0  3.663364  0  0  -0.520863  0  3.896309  0  0  -0.527084  0  3.899566  0  0  -0.241564  -0.516343  0  3.893925  0
C  C87  1  0.87924890  0.92628125  0.83232742  1  0  -0.444793  0  3.66313  0  0  -0.520815  0  3.896147  0  0  -0.527037  0  3.899411  0  0  -0.241546  -0.516295  0  3.893759  0
C  C88  1  0.69443757  0.64630974  0.51815425  1  0  -0.177416  0  3.640673  0  0  -0.280558  0  3.889624  0  0  -0.276477  0  3.897649  0  0  -0.137618  -0.283009  0  3.884264  0
C  C89  1  0.80556285  0.14631013  0.98184603  1  0  -0.177408  0  3.640648  0  0  -0.280564  0  3.889587  0  0  -0.276488  0  3.89761  0  0  -0.137602  -0.283016  0  3.884226  0
C  C90  1  0.30557631  0.35368946  0.48184611  1  0  -0.177278  0  3.640558  0  0  -0.280409  0  3.88952  0  0  -0.276318  0  3.897567  0  0  -0.137589  -0.282862  0  3.884158  0
C  C91  1  0.19443869  0.85368907  0.01815480  1  0  -0.177341  0  3.640768  0  0  -0.280546  0  3.889728  0  0  -0.276466  0  3.897758  0  0  -0.1376  -0.282997  0  3.884364  0
C  C92  1  0.78542648  0.53003205  0.41251934  1  0  -0.177526  0  3.651197  0  0  -0.280078  0  3.900521  0  0  -0.277518  0  3.912847  0  0  -0.136416  -0.281481  0  3.892092  0
C  C93  1  0.71456915  0.03003406  0.08748148  1  0  -0.177499  0  3.651245  0  0  -0.280014  0  3.900546  0  0  -0.277454  0  3.912868  0  0  -0.136399  -0.281414  0  3.892112  0
C  C94  1  0.21456424  0.46996046  0.58747987  1  0  -0.177485  0  3.651266  0  0  -0.279992  0  3.900561  0  0  -0.27741  0  3.912899  0  0  -0.13635  -0.28141  0  3.892144  0
C  C95  1  0.28542929  0.96996609  0.91251811  1  0  -0.177481  0  3.651129  0  0  -0.279954  0  3.900409  0  0  -0.277391  0  3.912731  0  0  -0.136371  -0.281348  0  3.891972  0
S  S96  1  0.11289400  0.20311220  0.70853978  1  0  0.185328  0  2.639763  0  0  0.186198  0  2.960565  0  0  0.187083  0  2.96702  0  0  0.135735  0.185113  0  2.956639  0
S  S97  1  0.38711183  0.70311712  0.79145925  1  0  0.185304  0  2.639563  0  0  0.186206  0  2.960388  0  0  0.187097  0  2.966842  0  0  0.135801  0.185118  0  2.956461  0
S  S98  1  0.88709980  0.79687936  0.29145904  1  0  0.185283  0  2.639473  0  0  0.186151  0  2.960265  0  0  0.187039  0  2.966717  0  0  0.135726  0.185065  0  2.956339  0
S  S99  1  0.61289893  0.29688780  0.20853879  1  0  0.185412  0  2.63975  0  0  0.186286  0  2.960555  0  0  0.187176  0  2.967011  0  0  0.135756  0.185194  0  2.956628  0
N  N100  1  0.63020682  0.60379296  0.44334467  1  0  -0.138951  0  3.441529  0  0  -0.035509  0  3.667726  0  0  -0.056981  0  3.692632  0  0  -0.278015  -0.021131  0  3.650533  0
N  N101  1  0.86978685  0.10379509  0.05665578  1  0  -0.138951  0  3.441655  0  0  -0.035535  0  3.667835  0  0  -0.057003  0  3.692739  0  0  -0.278041  -0.021157  0  3.650641  0
N  N102  1  0.36979165  0.39620433  0.55665817  1  0  -0.138998  0  3.441514  0  0  -0.035578  0  3.667714  0  0  -0.057117  0  3.692696  0  0  -0.278055  -0.021196  0  3.650519  0
N  N103  1  0.13020696  0.89620315  0.94334412  1  0  -0.139035  0  3.441667  0  0  -0.035612  0  3.667884  0  0  -0.057089  0  3.692798  0  0  -0.278098  -0.021234  0  3.650688  0
O  O104  1  0.09739393  0.10830876  0.55520361  1  0  -0.725516  0  2.013966  0  0  -0.66119  0  2.268765  0  0  -0.688252  0  2.255861  0  0  -0.38056  -0.641857  0  2.277048  0
O  O105  1  0.40260166  0.60830528  0.94479796  1  0  -0.725551  0  2.01384  0  0  -0.661179  0  2.268744  0  0  -0.688234  0  2.255834  0  0  -0.380554  -0.641849  0  2.277029  0
O  O106  1  0.90258599  0.89167993  0.44479669  1  0  -0.725618  0  2.014317  0  0  -0.661216  0  2.269209  0  0  -0.688272  0  2.256299  0  0  -0.380581  -0.641871  0  2.277463  0
O  O107  1  0.59741219  0.39168341  0.05519968  1  0  -0.725638  0  2.014199  0  0  -0.66132  0  2.269044  0  0  -0.688378  0  2.256138  0  0  -0.380617  -0.64197  0  2.277284  0
O  O108  1  0.43051225  0.05926372  0.56224090  1  0  -0.758545  0  2.042101  0  0  -0.689023  0  2.299533  0  0  -0.719001  0  2.288789  0  0  -0.408094  -0.667544  0  2.306227  0
O  O109  1  0.06949134  0.55926651  0.93776071  1  0  -0.75868  0  2.042124  0  0  -0.689104  0  2.299662  0  0  -0.71908  0  2.288914  0  0  -0.408133  -0.667619  0  2.306354  0
O  O110  1  0.56948161  0.94073356  0.43776280  1  0  -0.758616  0  2.041695  0  0  -0.689044  0  2.299259  0  0  -0.719022  0  2.288515  0  0  -0.408099  -0.66756  0  2.305951  0
O  O111  1  0.93051327  0.44073746  0.06223810  1  0  -0.758643  0  2.042005  0  0  -0.689121  0  2.299486  0  0  -0.719096  0  2.288738  0  0  -0.408169  -0.66764  0  2.306179  0
O  O112  1  0.31137835  0.31733840  0.90808728  1  0  -0.712897  0  1.976959  0  0  -0.646499  0  2.216125  0  0  -0.67383  0  2.205242  0  0  -0.355918  -0.626964  0  2.222896  0
O  O113  1  0.18862988  0.81733625  0.59190711  1  0  -0.712994  0  1.976579  0  0  -0.646673  0  2.215847  0  0  -0.673965  0  2.204869  0  0  -0.356027  -0.627152  0  2.222644  0
O  O114  1  0.68861849  0.68265984  0.09190682  1  0  -0.712913  0  1.977068  0  0  -0.646571  0  2.216326  0  0  -0.673884  0  2.205391  0  0  -0.355995  -0.627035  0  2.223096  0
O  O115  1  0.81137011  0.18266295  0.40809310  1  0  -0.712929  0  1.976864  0  0  -0.646581  0  2.216085  0  0  -0.673883  0  2.205132  0  0  -0.35597  -0.627051  0  2.222855  0
O  O116  1  0.98755604  0.28564773  0.84742822  1  0  -0.63465  0  1.944441  0  0  -0.580815  0  2.171625  0  0  -0.604395  0  2.161766  0  0  -0.314706  -0.564288  0  2.177991  0
O  O117  1  0.51245742  0.78563561  0.65256516  1  0  -0.634677  0  1.944519  0  0  -0.580881  0  2.171709  0  0  -0.604469  0  2.161852  0  0  -0.314679  -0.56432  0  2.177994  0
O  O118  1  0.01243928  0.71435242  0.15256851  1  0  -0.634576  0  1.944518  0  0  -0.580718  0  2.171653  0  0  -0.6043  0  2.161793  0  0  -0.314645  -0.564189  0  2.178021  0
O  O119  1  0.48755026  0.21436645  0.34743218  1  0  -0.634688  0  1.944556  0  0  -0.580859  0  2.171716  0  0  -0.604445  0  2.161859  0  0  -0.314706  -0.564303  0  2.178019  0
O  O120  1  0.17962856  0.06210236  0.38342017  1  0  -0.906916  0  1.831713  0  0  -0.859965  0  2.025204  0  0  -0.880389  0  1.992509  0  0  -0.634494  -0.845134  0  2.048191  0
O  O121  1  0.32037418  0.56209689  0.11658065  1  0  -0.906901  0  1.831705  0  0  -0.859961  0  2.025137  0  0  -0.880385  0  1.992441  0  0  -0.634504  -0.845129  0  2.048124  0
O  O122  1  0.82037447  0.93789779  0.61657586  1  0  -0.907062  0  1.831606  0  0  -0.860153  0  2.02494  0  0  -0.880579  0  1.992238  0  0  -0.634636  -0.84533  0  2.047932  0
O  O123  1  0.67963201  0.43790230  0.88342149  1  0  -0.906964  0  1.831666  0  0  -0.860062  0  2.02508  0  0  -0.880485  0  1.992381  0  0  -0.63454  -0.84523  0  2.04808  0
O  O124  1  0.31423475  0.69809245  0.43606731  1  0  -0.679207  0  1.965144  0  0  -0.629638  0  2.221139  0  0  -0.654551  0  2.211882  0  0  -0.368076  -0.611947  0  2.227017  0
O  O125  1  0.18576260  0.19809189  0.06393384  1  0  -0.679114  0  1.965167  0  0  -0.629609  0  2.221151  0  0  -0.654521  0  2.211897  0  0  -0.36805  -0.611919  0  2.227026  0
O  O126  1  0.68576525  0.30190865  0.56393344  1  0  -0.679174  0  1.965307  0  0  -0.629617  0  2.221256  0  0  -0.65453  0  2.211994  0  0  -0.368053  -0.611928  0  2.227133  0
O  O127  1  0.81423739  0.80190921  0.93606692  1  0  -0.679107  0  1.96511  0  0  -0.629583  0  2.22113  0  0  -0.654497  0  2.211874  0  0  -0.368054  -0.611893  0  2.227005  0
