# generated using pymatgen
data_HgH6C10(NCl3)2
_symmetry_space_group_name_H-M   'P 1'
_cell_length_a   3.82300000
_cell_length_b   14.12900000
_cell_length_c   14.12900000
_cell_angle_alpha   90.00000000
_cell_angle_beta   90.00010491
_cell_angle_gamma   89.99989862
_symmetry_Int_Tables_number   1
_chemical_formula_structural   HgH6C10(NCl3)2
_chemical_formula_sum   'Hg2 H12 C20 N4 Cl12'
_cell_volume   763.18029454
_cell_formula_units_Z   2
loop_
 _symmetry_equiv_pos_site_id
 _symmetry_equiv_pos_as_xyz
  1  'x, y, z'
loop_
 _atom_site_type_symbol
 _atom_site_label
 _atom_site_symmetry_multiplicity
 _atom_site_fract_x
 _atom_site_fract_y
 _atom_site_fract_z
 _atom_site_occupancy
 _atom_site_pbe_bader_charge
 _atom_site_pbe_bader_spin_density
 _atom_site_pbe_cm5_charge
 _atom_site_pbe_ddec_charge
 _atom_site_pbe_ddec_spin_density
 _atom_site_pbe_ddec_sum_bond_order
 _atom_site_pbe_magmom
Hg  Hg0  1  0.49999935  0.50000000  0.00000025  1  0.898559  0  0.510755  0.578066  0  2.599185  0
Hg  Hg1  1  0.50000000  0.00000000  0.50000025  1  0.898565  0  0.510763  0.578146  0  2.59884  0
H  H2  1  0.31327933  0.52552976  0.77908006  1  0.110237  0  0.102791  0.098389  0  1.03668  0
H  H3  1  0.31327966  0.47447024  0.22092025  1  0.110229  0  0.102794  0.098364  0  1.036697  0
H  H4  1  0.68672102  0.22092009  0.52553010  1  0.110244  0  0.102798  0.0984  0  1.036669  0
H  H5  1  0.68671999  0.77907991  0.47446987  1  0.110251  0  0.102801  0.098406  0  1.03667  0
H  H6  1  0.31327998  0.02552976  0.72092025  1  0.110243  0  0.102794  0.098397  0  1.036679  0
H  H7  1  0.31327901  0.97447024  0.27908006  1  0.110234  0  0.102792  0.098387  0  1.036687  0
H  H8  1  0.68672037  0.72092009  0.97446987  1  0.110241  0  0.102799  0.098401  0  1.036674  0
H  H9  1  0.68672064  0.27908982  0.02553010  1  0.110283  0  0.102812  0.098393  0  1.036725  0
H  H10  1  0.49999991  0.81366976  0.68632978  1  0.152197  0  0.094029  0.145056  0  1.034381  0
H  H11  1  0.49999878  0.18633024  0.31367000  1  0.152221  0  0.094038  0.145068  0  1.03435  0
H  H12  1  0.50000056  0.31366976  0.81367991  1  0.152299  0  0.093983  0.145012  0  1.034389  0
H  H13  1  0.50000074  0.68632033  0.18631987  1  0.152287  0  0.093944  0.144926  0  1.034482  0
C  C14  1  0.39655115  0.59823979  0.79188002  1  0.591257  0  0.03247  0.000546  0  3.931821  0
C  C15  1  0.39654982  0.40176021  0.20811967  1  0.591373  0  0.032504  0.000661  0  3.93177  0
C  C16  1  0.60344881  0.20812018  0.59824009  1  0.591258  0  0.032471  0.000555  0  3.931812  0
C  C17  1  0.60345022  0.79187982  0.40175980  1  0.591261  0  0.032482  0.000553  0  3.931819  0
C  C18  1  0.39654919  0.09823979  0.70811967  1  0.591134  0  0.032458  0.000538  0  3.931826  0
C  C19  1  0.39654916  0.90176021  0.29188002  1  0.591129  0  0.032477  0.000547  0  3.931825  0
C  C20  1  0.60345077  0.70812018  0.90175980  1  0.591131  0  0.032481  0.000545  0  3.931812  0
C  C21  1  0.60345872  0.29187982  0.09824009  1  0.590939  0  0.032463  0.000553  0  3.931903  0
C  C22  1  0.39318947  0.66691981  0.72084031  1  0.036442  0  0.017321  0.124736  0  4.04176  0
C  C23  1  0.39318903  0.33308019  0.27916008  1  0.036361  0  0.01732  0.124709  0  4.041791  0
C  C24  1  0.60680958  0.27915988  0.66692011  1  0.036503  0  0.017303  0.124702  0  4.041814  0
C  C25  1  0.60680931  0.72084012  0.33307978  1  0.036428  0  0.01726  0.124669  0  4.041817  0
C  C26  1  0.39319012  0.16691981  0.77916008  1  0.036419  0  0.017315  0.124722  0  4.041793  0
C  C27  1  0.39319099  0.83308019  0.22084031  1  0.036584  0  0.017272  0.124693  0  4.041796  0
C  C28  1  0.60680893  0.77915988  0.83307978  1  0.036498  0  0.01726  0.124713  0  4.041774  0
C  C29  1  0.60680996  0.22084012  0.16691020  1  0.037573  0  0.01725  0.124685  0  4.041875  0
C  C30  1  0.50000027  0.75921014  0.74079011  1  0.070846  0  -0.084446  -0.166172  0  3.907032  0
C  C31  1  0.50000104  0.24078986  0.25920968  1  0.06987  0  -0.084428  -0.166162  0  3.90683  0
C  C32  1  0.50000092  0.25921014  0.75920968  1  0.070769  0  -0.084393  -0.166134  0  3.906999  0
C  C33  1  0.50000039  0.74078986  0.24079011  1  0.070779  0  -0.084311  -0.166003  0  3.906954  0
N  N34  1  0.50000117  0.62031991  0.87968034  1  -1.207896  0  -0.301488  -0.143771  0  3.553292  0
N  N35  1  0.50000013  0.37969000  0.12032016  1  -1.207952  0  -0.301532  -0.143853  0  3.55318  0
N  N36  1  0.49999921  0.12031991  0.62032016  1  -1.207897  0  -0.301485  -0.143777  0  3.553299  0
N  N37  1  0.49999948  0.87968009  0.37968034  1  -1.207889  0  -0.301482  -0.143771  0  3.553278  0
Cl  Cl38  1  0.99999997  0.40387005  0.90386984  1  -0.568731  0  -0.280507  -0.444256  0  1.322736  0
Cl  Cl39  1  0.99999872  0.59612995  0.09612973  1  -0.569147  0  -0.280508  -0.444261  0  1.322774  0
Cl  Cl40  1  0.99999937  0.09612995  0.40386984  1  -0.569113  0  -0.280496  -0.444286  0  1.322717  0
Cl  Cl41  1  0.99999932  0.90386015  0.59613964  1  -0.568718  0  -0.280536  -0.444375  0  1.322609  0
Cl  Cl42  1  0.25611930  0.63636988  0.60860017  1  -0.185727  0  0.00595  -0.063591  0  1.610389  0
Cl  Cl43  1  0.25612109  0.36363012  0.39140008  1  -0.18562  0  0.005944  -0.0636  0  1.610402  0
Cl  Cl44  1  0.74387921  0.39139996  0.63637025  1  -0.185715  0  0.005949  -0.063588  0  1.610398  0
Cl  Cl45  1  0.74388040  0.60860004  0.36362978  1  -0.18569  0  0.005951  -0.063591  0  1.610409  0
Cl  Cl46  1  0.25611996  0.13636988  0.89140008  1  -0.185628  0  0.005948  -0.063587  0  1.610386  0
Cl  Cl47  1  0.25612043  0.86363012  0.10860017  1  -0.185689  0  0.005955  -0.063591  0  1.610407  0
Cl  Cl48  1  0.74388117  0.89139996  0.86362978  1  -0.185629  0  0.005951  -0.063597  0  1.610393  0
Cl  Cl49  1  0.74388106  0.10860004  0.13637025  1  -0.185605  0  0.005962  -0.063576  0  1.610483  0
