# generated using pymatgen
data_Zn4H24C36O13
_symmetry_space_group_name_H-M   'P 1'
_cell_length_a   18.58986329
_cell_length_b   18.58986979
_cell_length_c   18.58963449
_cell_angle_alpha   59.99969391
_cell_angle_beta   59.99969574
_cell_angle_gamma   59.99991067
_symmetry_Int_Tables_number   1
_chemical_formula_structural   Zn4H24C36O13
_chemical_formula_sum   'Zn8 H48 C72 O26'
_cell_volume   4542.61677471
_cell_formula_units_Z   2
loop_
 _symmetry_equiv_pos_site_id
 _symmetry_equiv_pos_as_xyz
  1  'x, y, z'
loop_
 _atom_site_type_symbol
 _atom_site_label
 _atom_site_symmetry_multiplicity
 _atom_site_fract_x
 _atom_site_fract_y
 _atom_site_fract_z
 _atom_site_occupancy
 _atom_site_pbe_bader_charge
 _atom_site_pbe_bader_spin_density
 _atom_site_pbe_cm5_charge
 _atom_site_pbe_ddec_charge
 _atom_site_pbe_ddec_spin_density
 _atom_site_pbe_ddec_sum_bond_order
 _atom_site_pbe_magmom
Zn  Zn0  1  0.70693378  0.87919921  0.70692982  1  1.292482  0  0.667558  0.948443  0  2.396869  0
Zn  Zn1  1  0.70693365  0.70693406  0.87919500  1  1.292436  0  0.66743  0.94851  0  2.39687  0
Zn  Zn2  1  0.70694358  0.70694187  0.70694761  1  1.300087  0  0.667322  0.948214  0  2.397503  0
Zn  Zn3  1  0.87919926  0.70693351  0.70692876  1  1.292526  0  0.667565  0.948466  0  2.396836  0
Zn  Zn4  1  0.29306571  0.12080260  0.29306900  1  1.29246  0  0.667488  0.948406  0  2.396988  0
Zn  Zn5  1  0.29306713  0.29306583  0.12080444  1  1.29247  0  0.667432  0.948544  0  2.396897  0
Zn  Zn6  1  0.12080266  0.29306535  0.29306794  1  1.292455  0  0.667462  0.948386  0  2.396988  0
Zn  Zn7  1  0.29305866  0.29305732  0.29305502  1  1.299898  0  0.667452  0.948513  0  2.396954  0
H  H8  1  0.59587945  0.78407098  0.12003180  1  0.057116  0  0.095318  0.104178  0  0.985411  0
H  H9  1  0.50002001  0.12003038  0.78406842  1  0.062936  0  0.095355  0.104206  0  0.98523  0
H  H10  1  0.12002885  0.50001777  0.59588037  1  0.061564  0  0.095359  0.104195  0  0.985377  0
H  H11  1  0.78407246  0.59588092  0.50001617  1  0.051094  0  0.095353  0.104224  0  0.985299  0
H  H12  1  0.78406890  0.12003052  0.59588096  1  0.057185  0  0.095349  0.104217  0  0.985291  0
H  H13  1  0.12003079  0.78407047  0.50001810  1  0.063071  0  0.095386  0.104261  0  0.985184  0
H  H14  1  0.50001932  0.59588094  0.12002871  1  0.061549  0  0.095326  0.104181  0  0.985344  0
H  H15  1  0.59588008  0.50001751  0.78407064  1  0.050702  0  0.095361  0.104212  0  0.985309  0
H  H16  1  0.12002905  0.59588208  0.78406779  1  0.056807  0  0.095352  0.104187  0  0.985293  0
H  H17  1  0.78407133  0.50001787  0.12003222  1  0.063132  0  0.09533  0.104189  0  0.985346  0
H  H18  1  0.59588042  0.12002985  0.50001812  1  0.06156  0  0.09537  0.104213  0  0.985355  0
H  H19  1  0.50001818  0.78407167  0.59588032  1  0.05111  0  0.09533  0.104185  0  0.985369  0
H  H20  1  0.49998302  0.21592745  0.87996762  1  0.063152  0  0.095349  0.104202  0  0.985366  0
H  H21  1  0.40411695  0.87997097  0.21593185  1  0.056786  0  0.095352  0.10419  0  0.985252  0
H  H22  1  0.21593096  0.49998147  0.40411811  1  0.050716  0  0.095361  0.104186  0  0.985258  0
H  H23  1  0.87997086  0.40412010  0.49998153  1  0.061591  0  0.09536  0.104237  0  0.985356  0
H  H24  1  0.49998210  0.87997186  0.40411908  1  0.061569  0  0.09538  0.104282  0  0.985336  0
H  H25  1  0.40411908  0.21592888  0.49998264  1  0.051083  0  0.095367  0.104205  0  0.985274  0
H  H26  1  0.21592875  0.40412038  0.87996805  1  0.057108  0  0.095369  0.104236  0  0.985316  0
H  H27  1  0.87996964  0.49997986  0.21593058  1  0.06296  0  0.095344  0.104176  0  0.98532  0
H  H28  1  0.49998275  0.40412036  0.21592880  1  0.051056  0  0.095371  0.104229  0  0.985281  0
H  H29  1  0.40411902  0.49998163  0.87997179  1  0.061553  0  0.09536  0.104213  0  0.985351  0
H  H30  1  0.21592938  0.87996899  0.49998092  1  0.063058  0  0.09532  0.104184  0  0.985347  0
H  H31  1  0.87996969  0.21593129  0.40411825  1  0.057174  0  0.095347  0.104196  0  0.985281  0
H  H32  1  0.40411973  0.21592945  0.87996804  1  0.056736  0  0.095362  0.104223  0  0.985322  0
H  H33  1  0.49997926  0.87997014  0.21593058  1  0.062966  0  0.095348  0.104194  0  0.985303  0
H  H34  1  0.87997172  0.49998190  0.40411885  1  0.061559  0  0.095372  0.104258  0  0.985348  0
H  H35  1  0.21593055  0.40411904  0.49998163  1  0.050687  0  0.095357  0.104183  0  0.985273  0
H  H36  1  0.21593059  0.87997022  0.40411826  1  0.057181  0  0.09534  0.104197  0  0.985294  0
H  H37  1  0.87996817  0.21592975  0.49998153  1  0.063043  0  0.095362  0.10424  0  0.985216  0
H  H38  1  0.49998106  0.40411961  0.87997179  1  0.061568  0  0.095326  0.104162  0  0.985395  0
H  H39  1  0.40412016  0.49998291  0.21592881  1  0.051054  0  0.095378  0.104245  0  0.985264  0
H  H40  1  0.87997045  0.40411759  0.21593184  1  0.05679  0  0.095354  0.104193  0  0.985294  0
H  H41  1  0.21592731  0.49998310  0.87996763  1  0.063154  0  0.095351  0.104207  0  0.985361  0
H  H42  1  0.40411910  0.87997199  0.49998260  1  0.061562  0  0.095374  0.104258  0  0.985359  0
H  H43  1  0.49998197  0.21592973  0.40411956  1  0.050713  0  0.095343  0.1042  0  0.985296  0
H  H44  1  0.50001723  0.78407190  0.12003222  1  0.063129  0  0.095345  0.104212  0  0.985336  0
H  H45  1  0.59588179  0.12002902  0.78406756  1  0.056814  0  0.095344  0.104172  0  0.98531  0
H  H46  1  0.78407152  0.50001796  0.59588009  1  0.051112  0  0.09533  0.104184  0  0.985368  0
H  H47  1  0.12003024  0.59588010  0.50001729  1  0.061557  0  0.095366  0.104205  0  0.985384  0
H  H48  1  0.50001752  0.12002901  0.59588120  1  0.061543  0  0.095363  0.104204  0  0.985358  0
H  H49  1  0.59588171  0.78407100  0.50001680  1  0.050686  0  0.09535  0.104224  0  0.985282  0
H  H50  1  0.78407043  0.59588005  0.12003180  1  0.056745  0  0.095345  0.10421  0  0.985301  0
H  H51  1  0.12002964  0.50002067  0.78406843  1  0.062939  0  0.095342  0.104175  0  0.985278  0
H  H52  1  0.50001750  0.59588007  0.78407064  1  0.050698  0  0.095371  0.104233  0  0.98529  0
H  H53  1  0.59588082  0.50001946  0.12002871  1  0.061556  0  0.095312  0.104145  0  0.985386  0
H  H54  1  0.78407043  0.12003100  0.50001808  1  0.06307  0  0.095367  0.104243  0  0.985219  0
H  H55  1  0.12002980  0.78406945  0.59588098  1  0.057194  0  0.095339  0.10418  0  0.985325  0
C  C56  1  0.52665126  0.91041626  0.03628115  1  0.121216  0  -0.0055  0.056204  0  3.892071  0
C  C57  1  0.53006344  0.82558564  0.11428743  1  -0.081675  0  -0.153058  -0.197656  0  3.896176  0
C  C58  1  0.52665096  0.03628169  0.91041695  1  -0.009735  0  -0.005533  0.056097  0  3.892107  0
C  C59  1  0.53006426  0.11428732  0.82558405  1  -0.009973  0  -0.153086  -0.197587  0  3.895925  0
C  C60  1  0.03628206  0.52665065  0.52664847  1  -0.05213  0  -0.005503  0.056062  0  3.891994  0
C  C61  1  0.11428801  0.53006314  0.53006222  1  -0.000828  0  -0.153139  -0.197672  0  3.896142  0
C  C62  1  0.91041793  0.52665397  0.52665218  1  0.066173  0  -0.005553  0.056063  0  3.892118  0
C  C63  1  0.82558658  0.53006438  0.53006310  1  -0.075353  0  -0.153006  -0.197565  0  3.896048  0
C  C64  1  0.91041657  0.03628066  0.52665171  1  -0.009116  0  -0.005499  0.056101  0  3.892  0
C  C65  1  0.82558484  0.11428732  0.53006408  1  -0.009983  0  -0.153107  -0.197708  0  3.895935  0
C  C66  1  0.03627991  0.91041710  0.52665173  1  0.123469  0  -0.005501  0.056108  0  3.891968  0
C  C67  1  0.11428744  0.82558516  0.53006347  1  -0.084254  0  -0.153092  -0.197629  0  3.895899  0
C  C68  1  0.52665046  0.52665116  0.03628082  1  -0.052215  0  -0.005539  0.056034  0  3.891987  0
C  C69  1  0.53006347  0.53006416  0.11428618  1  -0.000742  0  -0.153029  -0.19755  0  3.896112  0
C  C70  1  0.52665155  0.52665207  0.91041650  1  0.066132  0  -0.005518  0.056057  0  3.892154  0
C  C71  1  0.53006346  0.53006400  0.82558534  1  -0.075225  0  -0.153135  -0.197671  0  3.896084  0
C  C72  1  0.03628147  0.52665106  0.91041696  1  0.12264  0  -0.005511  0.056137  0  3.892148  0
C  C73  1  0.11428659  0.53006489  0.82558406  1  -0.00995  0  -0.153088  -0.197573  0  3.895945  0
C  C74  1  0.91041650  0.52665156  0.03628136  1  -0.008806  0  -0.005546  0.056128  0  3.892105  0
C  C75  1  0.82558563  0.53006352  0.11428743  1  -0.083001  0  -0.153032  -0.197613  0  3.896074  0
C  C76  1  0.52665008  0.03628196  0.52664992  1  -0.052125  0  -0.005541  0.056098  0  3.892024  0
C  C77  1  0.53006268  0.11428795  0.53006283  1  -0.000728  0  -0.153138  -0.197671  0  3.896168  0
C  C78  1  0.52665528  0.91041696  0.52665241  1  0.066114  0  -0.005544  0.056117  0  3.892095  0
C  C79  1  0.53006439  0.82558650  0.53006311  1  -0.075319  0  -0.153012  -0.197578  0  3.896047  0
C  C80  1  0.47334847  0.08958256  0.96371910  1  0.103718  0  -0.005529  0.056096  0  3.892086  0
C  C81  1  0.46993637  0.17441435  0.88571157  1  -0.082991  0  -0.153126  -0.197701  0  3.896148  0
C  C82  1  0.47334782  0.96371835  0.08958436  1  -0.027676  0  -0.005571  0.055932  0  3.89213  0
C  C83  1  0.46993493  0.88571311  0.17441580  1  -0.009941  0  -0.153089  -0.197558  0  3.896007  0
C  C84  1  0.08958263  0.47334677  0.47334665  1  0.065291  0  -0.005515  0.056118  0  3.892106  0
C  C85  1  0.17441643  0.46993558  0.46993470  1  -0.075238  0  -0.153105  -0.197542  0  3.895821  0
C  C86  1  0.96371752  0.47335018  0.47334991  1  -0.052184  0  -0.005581  0.056067  0  3.891958  0
C  C87  1  0.88571321  0.46993825  0.46993726  1  -0.000747  0  -0.153132  -0.197768  0  3.896258  0
C  C88  1  0.47335147  0.96371654  0.47335014  1  -0.052038  0  -0.005595  0.056031  0  3.892047  0
C  C89  1  0.46993845  0.88571335  0.46993749  1  -0.000843  0  -0.153139  -0.197809  0  3.8963  0
C  C90  1  0.47334787  0.08958206  0.47334686  1  0.066145  0  -0.005539  0.056033  0  3.892281  0
C  C91  1  0.46993585  0.17441499  0.46993594  1  -0.075343  0  -0.153071  -0.197578  0  3.89592  0
C  C92  1  0.08958237  0.47334857  0.96371911  1  -0.028647  0  -0.005548  0.056059  0  3.892154  0
C  C93  1  0.17441418  0.46993646  0.88571158  1  -0.083009  0  -0.153127  -0.197707  0  3.896117  0
C  C94  1  0.96371839  0.47334790  0.08958435  1  0.103698  0  -0.005517  0.056054  0  3.892095  0
C  C95  1  0.88571228  0.46993523  0.17441641  1  -0.009965  0  -0.153136  -0.197611  0  3.896095  0
C  C96  1  0.47334838  0.47334911  0.08958316  1  0.06621  0  -0.005479  0.056165  0  3.892267  0
C  C97  1  0.46993616  0.46993687  0.17441495  1  -0.075228  0  -0.153159  -0.197727  0  3.896038  0
C  C98  1  0.47334885  0.47334940  0.96372009  1  -0.052815  0  -0.005556  0.056073  0  3.891855  0
C  C99  1  0.46993615  0.46993672  0.88571410  1  -0.000987  0  -0.153039  -0.197584  0  3.896122  0
C  C100  1  0.08958314  0.96371924  0.47334814  1  -0.02886  0  -0.00552  0.056056  0  3.892042  0
C  C101  1  0.17441434  0.88571311  0.46993577  1  -0.009995  0  -0.153044  -0.197615  0  3.896041  0
C  C102  1  0.96371927  0.08958333  0.47334812  1  0.10359  0  -0.005509  0.056074  0  3.892029  0
C  C103  1  0.88571259  0.17441504  0.46993575  1  -0.082948  0  -0.15309  -0.197633  0  3.895878  0
C  C104  1  0.61249810  0.88750566  0.88749546  1  1.583905  0  0.226964  0.613261  0  4.190912  0
C  C105  1  0.55617855  0.94382289  0.94382169  1  -0.170768  0  -0.014393  -0.127109  0  3.991364  0
C  C106  1  0.88751026  0.61250135  0.61249923  1  1.582471  0  0.226636  0.612571  0  4.191155  0
C  C107  1  0.94382056  0.55618133  0.55617911  1  -0.094873  0  -0.01436  -0.126922  0  3.99118  0
C  C108  1  0.88750333  0.88750366  0.61249562  1  1.583688  0  0.226946  0.613109  0  4.19057  0
C  C109  1  0.94382178  0.94382209  0.55617858  1  -0.170128  0  -0.01428  -0.126874  0  3.991481  0
C  C110  1  0.61249691  0.61249845  0.88750748  1  1.582602  0  0.226894  0.613042  0  4.190904  0
C  C111  1  0.55617720  0.55617770  0.94382086  1  -0.094842  0  -0.014273  -0.126808  0  3.99138  0
C  C112  1  0.88750532  0.61249851  0.88749546  1  1.51971  0  0.226983  0.61323  0  4.190796  0
C  C113  1  0.94382226  0.55617865  0.94382230  1  -0.106567  0  -0.014407  -0.127129  0  3.991338  0
C  C114  1  0.61250166  0.88750820  0.61250026  1  1.58245  0  0.226741  0.612794  0  4.190712  0
C  C115  1  0.55618206  0.94381894  0.55618058  1  -0.094839  0  -0.014427  -0.127073  0  3.990977  0
C  C116  1  0.38750188  0.11249557  0.11250146  1  1.51484  0  0.227059  0.613294  0  4.190729  0
C  C117  1  0.44381956  0.05617755  0.05617856  1  -0.101798  0  -0.014302  -0.126874  0  3.991301  0
C  C118  1  0.11249164  0.38749857  0.38750171  1  1.582622  0  0.226833  0.613023  0  4.191099  0
C  C119  1  0.05617851  0.44382114  0.44382078  1  -0.094777  0  -0.01434  -0.126994  0  3.991185  0
C  C120  1  0.38749993  0.11249034  0.38750171  1  1.582648  0  0.226781  0.612964  0  4.191154  0
C  C121  1  0.44382212  0.05617788  0.44382183  1  -0.095626  0  -0.014341  -0.126934  0  3.991309  0
C  C122  1  0.11249605  0.38750196  0.11250084  1  1.514859  0  0.227052  0.613273  0  4.190729  0
C  C123  1  0.05617715  0.44382093  0.05617817  1  -0.101811  0  -0.014346  -0.126932  0  3.99141  0
C  C124  1  0.38750280  0.38750251  0.11249196  1  1.582595  0  0.226857  0.613098  0  4.190801  0
C  C125  1  0.44382251  0.44382327  0.05617858  1  -0.094925  0  -0.014288  -0.126927  0  3.991461  0
C  C126  1  0.11249674  0.11249658  0.38750551  1  1.583791  0  0.226996  0.613208  0  4.190571  0
C  C127  1  0.05617709  0.05617804  0.44382189  1  -0.170616  0  -0.014304  -0.126892  0  3.991509  0
O  O128  1  0.75000444  0.75000484  0.75000234  1  -1.165577  0  -0.574029  -1.024772  0  2.552054  0
O  O129  1  0.24999612  0.24999590  0.24999648  1  -1.165599  0  -0.573975  -1.024725  0  2.551982  0
O  O130  1  0.63431511  0.92714530  0.80422260  1  -1.161713  0  -0.312806  -0.540433  0  2.332376  0
O  O131  1  0.63431512  0.80422551  0.92713732  1  -1.161543  0  -0.313197  -0.540961  0  2.33134  0
O  O132  1  0.80421289  0.63432808  0.63432528  1  -1.161767  0  -0.313074  -0.540598  0  2.331023  0
O  O133  1  0.92715367  0.63431026  0.63430858  1  -1.156972  0  -0.31272  -0.540204  0  2.332711  0
O  O134  1  0.92714074  0.80422449  0.63431400  1  -1.161653  0  -0.313101  -0.540756  0  2.331436  0
O  O135  1  0.80422417  0.92714111  0.63431590  1  -1.161554  0  -0.313065  -0.540705  0  2.331613  0
O  O136  1  0.63432204  0.63432143  0.80422262  1  -1.161864  0  -0.31319  -0.540862  0  2.331319  0
O  O137  1  0.63431121  0.63431380  0.92715082  1  -1.15684  0  -0.312925  -0.540568  0  2.332234  0
O  O138  1  0.80422408  0.63431554  0.92713771  1  -1.16158  0  -0.313194  -0.540939  0  2.331305  0
O  O139  1  0.92714475  0.63431529  0.80422237  1  -1.161703  0  -0.312787  -0.540407  0  2.332381  0
O  O140  1  0.63432913  0.80421161  0.63432612  1  -1.161803  0  -0.313091  -0.540671  0  2.330941  0
O  O141  1  0.63431103  0.92715309  0.63430964  1  -1.156962  0  -0.312724  -0.540243  0  2.332587  0
O  O142  1  0.36568443  0.07285441  0.19577893  1  -1.161615  0  -0.312934  -0.540589  0  2.332159  0
O  O143  1  0.36568255  0.19577449  0.07286249  1  -1.161598  0  -0.313234  -0.540985  0  2.331358  0
O  O144  1  0.07284586  0.36568514  0.36569266  1  -1.157015  0  -0.312842  -0.540439  0  2.332497  0
O  O145  1  0.19577335  0.36567770  0.36567822  1  -1.161748  0  -0.31316  -0.540847  0  2.331293  0
O  O146  1  0.36567822  0.19577225  0.36567884  1  -1.161722  0  -0.31309  -0.540779  0  2.331352  0
O  O147  1  0.36568648  0.07284460  0.36569265  1  -1.157051  0  -0.31283  -0.540424  0  2.332505  0
O  O148  1  0.07285541  0.36568504  0.19577791  1  -1.16163  0  -0.312927  -0.540564  0  2.33211  0
O  O149  1  0.19577467  0.36568339  0.07286210  1  -1.161589  0  -0.31322  -0.540976  0  2.331368  0
O  O150  1  0.36568570  0.36568543  0.07285381  1  -1.156829  0  -0.312904  -0.540602  0  2.332195  0
O  O151  1  0.36567950  0.36567920  0.19577664  1  -1.161872  0  -0.313181  -0.540904  0  2.331257  0
O  O152  1  0.07285790  0.19577648  0.36568585  1  -1.161545  0  -0.313089  -0.540764  0  2.331571  0
O  O153  1  0.19577634  0.07285851  0.36568606  1  -1.161545  0  -0.313084  -0.540751  0  2.331537  0
