# generated using pymatgen
data_CuH12C21N4O7
_symmetry_space_group_name_H-M   'P 1'
_cell_length_a   10.08101263
_cell_length_b   10.13123163
_cell_length_c   10.58083509
_cell_angle_alpha   102.12863094
_cell_angle_beta   105.98392103
_cell_angle_gamma   102.32486724
_symmetry_Int_Tables_number   1
_chemical_formula_structural   CuH12C21N4O7
_chemical_formula_sum   'Cu2 H24 C42 N8 O14'
_cell_volume   972.44701172
_cell_formula_units_Z   2
loop_
 _symmetry_equiv_pos_site_id
 _symmetry_equiv_pos_as_xyz
  1  'x, y, z'
loop_
 _atom_site_type_symbol
 _atom_site_label
 _atom_site_symmetry_multiplicity
 _atom_site_fract_x
 _atom_site_fract_y
 _atom_site_fract_z
 _atom_site_occupancy
 _atom_site_pbe_cm5_charge
 _atom_site_pbe_ddec_charge
 _atom_site_pbe_ddec_spin_density
 _atom_site_pbe_ddec_sum_bond_order
 _atom_site_pbe_magmom
Cu  Cu0  1  0.39063642  0.43885379  0.11932618  1  0.74579  0.798813  0.750429  2.259791  0.568
Cu  Cu1  1  0.60935919  0.56114419  0.88066132  1  0.745861  0.798825  -0.75042  2.259836  -0.568
H  H2  1  0.69166302  0.31233251  0.34831181  1  0.112341  0.119446  0.000194  1.014323  0.0
H  H3  1  0.30834905  0.68767081  0.65170595  1  0.112307  0.119395  -0.000194  1.01434  0.0
H  H4  1  0.96770443  0.48704052  0.14450015  1  0.110195  0.123207  6e-05  0.986795  0.0
H  H5  1  0.03228010  0.51294797  0.85548334  1  0.11021  0.123194  -6e-05  0.986824  0.0
H  H6  1  0.90002162  0.71086045  0.05859614  1  0.12879  0.113513  -0.001287  0.998149  -0.002
H  H7  1  0.09997845  0.28913434  0.94138161  1  0.128827  0.113524  0.001287  0.998266  0.002
H  H8  1  0.14317390  0.33219662  0.48435191  1  0.112021  0.11603  2.6e-05  1.006816  0.0
H  H9  1  0.85684874  0.66782667  0.51564907  1  0.112  0.116042  -2.6e-05  1.006824  0.0
H  H10  1  0.68327733  0.65128096  0.29813553  1  0.124671  0.098252  0.001101  1.007492  0.001
H  H11  1  0.31670953  0.34871598  0.70185687  1  0.124668  0.098278  -0.001101  1.007429  -0.001
H  H12  1  0.93608938  0.15557976  0.17647399  1  0.110806  0.113264  -0.00012  1.036701  0.0
H  H13  1  0.06389784  0.84441508  0.82351999  1  0.110797  0.11323  0.00012  1.036646  0.0
H  H14  1  0.26326381  0.66131312  0.13557304  1  0.125415  0.104343  0.001064  1.00084  0.002
H  H15  1  0.73673371  0.33869857  0.86442049  1  0.125493  0.104425  -0.001064  1.000785  -0.002
H  H16  1  0.53505334  0.83596730  0.92626182  1  0.117988  0.095693  -0.000874  1.021778  -0.002
H  H17  1  0.46493508  0.16401806  0.07373634  1  0.118012  0.095735  0.000875  1.021701  0.002
H  H18  1  0.67036735  0.09230754  0.05078674  1  0.105305  0.110091  -0.0006  1.009319  -0.001
H  H19  1  0.32961785  0.90767783  0.94921619  1  0.105286  0.110121  0.0006  1.009287  0.001
H  H20  1  0.76899987  0.90824759  0.41722758  1  0.117945  0.135154  0.000652  0.986761  0.001
H  H21  1  0.23099571  0.09174832  0.58277842  1  0.117943  0.135173  -0.000652  0.986836  -0.001
H  H22  1  0.58802775  0.04763936  0.39748932  1  0.112769  0.117043  7.5e-05  1.017635  0.0
H  H23  1  0.41196719  0.95235237  0.60253366  1  0.112776  0.117142  -7.5e-05  1.017588  0.0
H  H24  1  0.73582211  0.31692600  0.55253545  1  0.301279  0.357494  4.3e-05  0.977896  0.0
H  H25  1  0.26420613  0.68306463  0.44747120  1  0.301387  0.357653  -4.3e-05  0.977667  0.0
C  C26  1  0.64909820  0.87012480  0.98714222  1  0.049834  0.0894  -0.000391  3.925167  0.0
C  C27  1  0.35088981  0.12985527  0.01285008  1  0.049767  0.089269  0.000392  3.925055  0.0
C  C28  1  0.72530999  0.01091336  0.05537715  1  -0.086784  -0.132237  -0.004122  3.997249  -0.005
C  C29  1  0.27467031  0.98906883  0.94461716  1  -0.086673  -0.132249  0.004122  3.997263  0.005
C  C30  1  0.87225468  0.04633357  0.12541246  1  -0.054961  -0.044187  0.002477  3.893323  0.002
C  C31  1  0.12772768  0.95366232  0.87458129  1  -0.054933  -0.044081  -0.002477  3.893189  -0.002
C  C32  1  0.93914287  0.93826799  0.12743972  1  0.0043  -0.027859  -0.004302  4.000049  -0.005
C  C33  1  0.06084652  0.06173107  0.87256042  1  0.00434  -0.027789  0.004302  4.000044  0.005
C  C34  1  0.85452272  0.79889303  0.05930257  1  0.066181  0.091662  -0.00043  3.834005  0.0
C  C35  1  0.14547533  0.20110284  0.94068616  1  0.066161  0.091547  0.000429  3.834248  0.0
C  C36  1  0.37386920  0.72100351  0.19781255  1  0.054095  0.073437  2.8e-05  3.878012  -0.001
C  C37  1  0.62612524  0.27900187  0.80218646  1  0.054031  0.073237  -2.7e-05  3.877996  0.001
C  C38  1  0.41157744  0.86538949  0.26324478  1  -0.001075  -0.033968  0.003813  4.021577  0.005
C  C39  1  0.58841624  0.13461380  0.73675928  1  -0.000982  -0.033638  -0.003813  4.021516  -0.005
C  C40  1  0.30275683  0.93983584  0.25280137  1  0.220245  0.298453  0.000344  4.025183  0.0
C  C41  1  0.69723531  0.06016957  0.74720739  1  0.220266  0.298342  -0.000344  4.025076  0.0
C  C42  1  0.09345589  0.97166429  0.19496566  1  0.224874  0.307148  -0.00037  4.002774  0.0
C  C43  1  0.90653660  0.02833477  0.80503535  1  0.224842  0.307169  0.00037  4.002693  0.0
C  C44  1  0.55617354  0.93570636  0.34358308  1  -0.054495  -0.046008  -0.002457  3.883017  -0.002
C  C45  1  0.44382119  0.06429378  0.65642444  1  -0.054574  -0.046284  0.002457  3.882993  0.002
C  C46  1  0.65573338  0.85903992  0.35553071  1  -0.069869  -0.102097  0.00414  3.919159  0.005
C  C47  1  0.34425797  0.14095916  0.64447471  1  -0.069895  -0.102121  -0.00414  3.919146  -0.005
C  C48  1  0.60889428  0.71487555  0.28887562  1  0.064354  0.118087  0.000166  3.875004  0.0
C  C49  1  0.39109795  0.28512561  0.71111911  1  0.064347  0.118016  -0.000165  3.874972  0.0
C  C50  1  0.89629602  0.23736712  0.53148327  1  0.225938  0.577061  0.000176  4.118982  0.0
C  C51  1  0.10373069  0.76265617  0.46852169  1  0.226299  0.577752  -0.000176  4.11909  0.0
C  C52  1  0.21730922  0.46483579  0.30139979  1  0.214128  0.583683  0.001297  4.20536  -0.001
C  C53  1  0.78269027  0.53516428  0.69858166  1  0.214095  0.58355  -0.001299  4.205242  0.001
C  C54  1  0.69633509  0.43968127  0.14875804  1  0.206399  0.577794  0.001085  4.236528  -0.001
C  C55  1  0.30366275  0.56032201  0.85124625  1  0.206423  0.577799  -0.001086  4.236518  0.001
C  C56  1  0.81812598  0.40299420  0.23858577  1  -0.023814  -0.039004  0.005074  3.988013  0.006
C  C57  1  0.18187768  0.59700380  0.76141252  1  -0.023775  -0.039018  -0.005072  3.988078  -0.006
C  C58  1  0.79861032  0.33875923  0.33946473  1  -0.075774  -0.111573  0.000456  3.939031  0.0
C  C59  1  0.20139833  0.66124934  0.66054457  1  -0.075802  -0.111557  -0.000456  3.939322  0.0
C  C60  1  0.95380522  0.43854497  0.22440702  1  -0.074704  -0.099182  0.000925  3.916059  0.001
C  C61  1  0.04619923  0.56145197  0.77558845  1  -0.074824  -0.099286  -0.000926  3.915819  -0.001
C  C62  1  0.07130049  0.41559268  0.31407307  1  -0.014155  -0.034719  0.008231  3.989171  0.009
C  C63  1  0.92870662  0.58442007  0.68592337  1  -0.014127  -0.034661  -0.008232  3.988873  -0.009
C  C64  1  0.05231433  0.35216825  0.41553529  1  -0.063201  -0.091385  0.001469  3.93262  0.001
C  C65  1  0.94769734  0.64784978  0.58446725  1  -0.063205  -0.091295  -0.00147  3.932505  -0.001
C  C66  1  0.91527618  0.31156812  0.42702279  1  -0.023716  -0.070472  0.000499  4.029528  0.001
C  C67  1  0.08474148  0.68844254  0.57298379  1  -0.023765  -0.07079  -0.000499  4.029494  -0.001
N  N68  1  0.71312714  0.76684626  0.99008923  1  -0.33269  -0.198479  -0.061695  3.568197  -0.077
N  N69  1  0.28687042  0.23314118  0.00990057  1  -0.332705  -0.198341  0.0617  3.568253  0.077
N  N70  1  0.47070223  0.64755510  0.21117112  1  -0.337592  -0.22521  0.060523  3.63068  0.076
N  N71  1  0.52929076  0.35244815  0.78881855  1  -0.337578  -0.225048  -0.060521  3.630617  -0.076
N  N72  1  0.18485915  0.09438228  0.27038254  1  -0.209362  -0.220222  -0.000261  3.141828  0.0
N  N73  1  0.81512879  0.90561574  0.72962171  1  -0.209355  -0.220246  0.000262  3.141874  0.0
N  N74  1  0.32032860  0.07373249  0.30787345  1  -0.219118  -0.237547  7.7e-05  3.143597  0.0
N  N75  1  0.67966057  0.92626975  0.69213291  1  -0.219131  -0.237542  -7.7e-05  3.143675  0.0
O  O76  1  0.21760605  0.42470263  0.17791480  1  -0.321715  -0.553486  0.058948  2.399797  0.082
O  O77  1  0.78238701  0.57529007  0.82206908  1  -0.321688  -0.553437  -0.058966  2.399608  -0.082
O  O78  1  0.32073622  0.54319239  0.40574751  1  -0.315237  -0.530565  0.002354  2.121079  0.004
O  O79  1  0.67926804  0.45680663  0.59423885  1  -0.315248  -0.530522  -0.002352  2.121121  -0.004
O  O80  1  0.57317123  0.39128748  0.16053399  1  -0.330972  -0.57286  0.054294  2.466281  0.075
O  O81  1  0.42683269  0.60871582  0.83947674  1  -0.330944  -0.572829  -0.054299  2.466332  -0.075
O  O82  1  0.72383792  0.51504719  0.07357499  1  -0.318405  -0.587302  -0.005886  2.378613  -0.008
O  O83  1  0.27615490  0.48494553  0.92641922  1  -0.318433  -0.587257  0.005891  2.378639  0.008
O  O84  1  0.77783771  0.23655022  0.56756920  1  -0.338908  -0.503322  0.000171  2.346042  0.0
O  O85  1  0.22219751  0.76345838  0.43245896  1  -0.339175  -0.503806  -0.000171  2.346189  0.0
O  O86  1  0.97999758  0.17466481  0.58005722  1  -0.289723  -0.474213  3e-05  2.082076  0.0
O  O87  1  0.02007024  0.82536591  0.41997213  1  -0.28983  -0.474282  -3e-05  2.082645  0.0
O  O88  1  0.16107026  0.86831875  0.17842695  1  -0.09938  -0.183205  -1.2e-05  2.527806  0.0
O  O89  1  0.83892543  0.13167824  0.82158780  1  -0.099503  -0.183309  1.3e-05  2.527717  0.0
