# generated using pymatgen
data_CuH8C10(N4Cl)2
_symmetry_space_group_name_H-M   'P 1'
_cell_length_a   8.03942435
_cell_length_b   8.91148095
_cell_length_c   9.46834305
_cell_angle_alpha   89.99953919
_cell_angle_beta   106.63803510
_cell_angle_gamma   90.00034312
_symmetry_Int_Tables_number   1
_chemical_formula_structural   CuH8C10(N4Cl)2
_chemical_formula_sum   'Cu2 H16 C20 N16 Cl4'
_cell_volume   649.94182922
_cell_formula_units_Z   2
loop_
 _symmetry_equiv_pos_site_id
 _symmetry_equiv_pos_as_xyz
  1  'x, y, z'
loop_
 _atom_site_type_symbol
 _atom_site_label
 _atom_site_symmetry_multiplicity
 _atom_site_fract_x
 _atom_site_fract_y
 _atom_site_fract_z
 _atom_site_occupancy
 _atom_site_hle17_ddec_charge
 _atom_site_hle17_ddec_spin_density
 _atom_site_hle17_ddec_sum_bond_order
 _atom_site_hle17_magmom
 _atom_site_hse06_10hf_ddec_charge
 _atom_site_hse06_10hf_ddec_spin_density
 _atom_site_hse06_10hf_ddec_sum_bond_order
 _atom_site_hse06_10hf_magmom
 _atom_site_hse06_ddec_charge
 _atom_site_hse06_ddec_spin_density
 _atom_site_hse06_ddec_sum_bond_order
 _atom_site_hse06_magmom
 _atom_site_pbe_cm5_charge
 _atom_site_pbe_ddec_charge
 _atom_site_pbe_ddec_spin_density
 _atom_site_pbe_ddec_sum_bond_order
 _atom_site_pbe_magmom
Cu  Cu0  1  0.99999814  0.99999832  0.99999916  1  0.786927  0.661725  1.890486  0.463  0.768926  0.759562  2.291488  0.581  0.862782  0.83863  2.212859  0.666  0.625448  0.716671  0.70702  2.339137  0.53
Cu  Cu1  1  0.49999811  0.50000263  0.99999882  1  0.786932  -0.661733  1.890508  -0.463  0.768799  -0.759553  2.291515  -0.581  0.862828  -0.838632  2.212861  -0.666  0.62541  0.716645  -0.707022  2.339163  -0.53
H  H2  1  0.22227004  0.43160799  0.49626909  1  0.127124  -0.000121  0.972035  0.0  0.132361  -0.000177  1.037489  0.0  0.136173  -0.000125  1.036807  0.0  0.108384  0.129563  -0.000183  1.038342  0.0
H  H3  1  0.27773513  0.93160469  0.50373350  1  0.127104  0.00012  0.972061  0.0  0.13234  0.000176  1.037518  0.0  0.136153  0.000125  1.036835  0.0  0.108373  0.129541  0.000183  1.038372  0.0
H  H4  1  0.77773069  0.56838921  0.50373071  1  0.12707  -0.000119  0.972094  0.0  0.132313  -0.000176  1.037548  0.0  0.136133  -0.000125  1.036859  0.0  0.108367  0.129513  -0.000183  1.038399  0.0
H  H5  1  0.72226689  0.06839026  0.49626873  1  0.127104  0.000121  0.972087  0.0  0.132358  0.000176  1.037526  0.0  0.13618  0.000125  1.036833  0.0  0.108377  0.129558  0.000183  1.038378  0.0
H  H6  1  0.38490096  0.66447889  0.48039116  1  0.08276  -0.0017  0.934794  0.0  0.09585  -0.001648  0.990435  0.0  0.098816  -0.001259  0.98694  0.0  0.109261  0.093761  -0.001865  0.992653  0.0
H  H7  1  0.11510308  0.16447355  0.51960577  1  0.082659  0.001701  0.934874  0.0  0.095768  0.001648  0.990505  0.0  0.098731  0.001259  0.987014  0.0  0.109236  0.093683  0.001866  0.992718  0.0
H  H8  1  0.61510108  0.33551831  0.51960685  1  0.082725  -0.0017  0.934954  0.0  0.095827  -0.001648  0.990579  0.0  0.098793  -0.001259  0.987087  0.0  0.109286  0.093739  -0.001865  0.992793  0.0
H  H9  1  0.88490027  0.83552028  0.48039151  1  0.082783  0.001698  0.934874  0.0  0.095873  0.001648  0.990507  0.0  0.098839  0.001259  0.987011  0.0  0.109275  0.093784  0.001865  0.992726  0.0
H  H10  1  0.94975318  0.37167697  0.28147896  1  0.113401  0.000583  0.939658  0.0  0.123134  0.000594  1.003577  0.0  0.127114  0.000436  0.998926  0.0  0.125368  0.120197  0.000733  1.007064  0.0
H  H11  1  0.55024958  0.87167620  0.71852687  1  0.113413  -0.000582  0.939607  0.0  0.123141  -0.000594  1.003513  0.0  0.127125  -0.000436  0.998854  0.0  0.125382  0.120198  -0.000733  1.007003  0.0
H  H12  1  0.05024233  0.62832360  0.71852378  1  0.113418  0.00058  0.939665  0.0  0.12312  0.000594  1.003598  0.0  0.1271  0.000436  0.998951  0.0  0.125389  0.120183  0.000733  1.007086  0.0
H  H13  1  0.44975501  0.12832324  0.28147917  1  0.113401  -0.000582  0.939666  0.0  0.123112  -0.000594  1.003592  0.0  0.127094  -0.000436  0.998941  0.0  0.125368  0.120176  -0.000733  1.007079  0.0
H  H14  1  0.75165216  0.72321922  0.88748905  1  0.092023  0.00015  0.964796  0.0  0.098361  0.000161  1.033172  0.0  0.101042  0.000139  1.029363  0.0  0.120889  0.096256  0.000175  1.03606  0.0
H  H15  1  0.74834610  0.22322034  0.11251045  1  0.092006  -0.000151  0.964709  0.0  0.098301  -0.000162  1.033153  0.0  0.10098  -0.00014  1.029344  0.0  0.120873  0.096198  -0.000175  1.03604  0.0
H  H16  1  0.24834727  0.27678135  0.11251149  1  0.091977  0.000155  0.964755  0.0  0.098317  0.000161  1.033144  0.0  0.100998  0.00014  1.029334  0.0  0.120872  0.096215  0.000175  1.036035  0.0
H  H17  1  0.25165073  0.77678696  0.88749050  1  0.091999  -0.000153  0.96473  0.0  0.098297  -0.000161  1.033162  0.0  0.100977  -0.00014  1.029354  0.0  0.120865  0.096194  -0.000175  1.036051  0.0
C  C18  1  0.17462756  0.50642636  0.40266552  1  -0.180647  -0.000465  3.727585  0.0  -0.192426  -0.000565  3.987636  0.0  -0.203972  -0.000392  4.007478  0.0  -0.087616  -0.18506  -0.000617  3.974993  0.0
C  C19  1  0.32537317  0.00642374  0.59733496  1  -0.180654  0.000477  3.727572  0.0  -0.192458  0.000566  3.98762  0.0  -0.203999  0.000393  4.007448  0.0  -0.087646  -0.185094  0.000617  3.974977  0.0
C  C20  1  0.82537188  0.49357196  0.59733290  1  -0.180501  -0.000486  3.72754  0.0  -0.192301  -0.000565  3.987593  0.0  -0.203849  -0.000393  4.007422  0.0  -0.087591  -0.184934  -0.000617  3.974944  0.0
C  C21  1  0.67463014  0.99357346  0.40266865  1  -0.180604  0.000456  3.727504  0.0  -0.192438  0.000567  3.987565  0.0  -0.203993  0.000393  4.007398  0.0  -0.087619  -0.185071  0.000617  3.97492  0.0
C  C22  1  0.26430503  0.64088352  0.39474418  1  0.184875  -0.003042  3.681142  -0.003  0.152063  -0.002485  3.944899  -0.003  0.166718  -0.001983  3.953552  -0.002  0.064381  0.143071  -0.00246  3.937986  -0.003
C  C23  1  0.23569890  0.14088148  0.60525397  1  0.185015  0.003036  3.681145  0.003  0.152161  0.002485  3.944927  0.003  0.166817  0.001983  3.953578  0.002  0.064438  0.143165  0.00246  3.938019  0.003
C  C24  1  0.73569571  0.35911368  0.60525352  1  0.184847  -0.00304  3.681293  -0.003  0.152015  -0.002485  3.945071  -0.003  0.166669  -0.001983  3.953727  -0.002  0.064357  0.143023  -0.00246  3.938154  -0.003
C  C25  1  0.76430574  0.85911685  0.39474469  1  0.184828  0.003061  3.681277  0.003  0.152007  0.002484  3.945047  0.003  0.16666  0.001983  3.953705  0.002  0.064336  0.143013  0.00246  3.938135  0.003
C  C26  1  0.06541694  0.71036392  0.18396912  1  0.46417  -0.00054  3.746775  -0.001  0.415941  0.000921  4.012202  0.001  0.437715  0.000329  4.023746  0.0  0.343082  0.402177  0.001329  4.00402  0.001
C  C27  1  0.43458209  0.21036451  0.81602940  1  0.464111  0.00053  3.746963  0.001  0.415846  -0.000921  4.012435  -0.001  0.437628  -0.000329  4.023977  0.0  0.342974  0.402085  -0.001329  4.004253  -0.001
C  C28  1  0.93458249  0.28963440  0.81603141  1  0.464145  -0.00054  3.74689  -0.001  0.415912  0.000921  4.012352  0.001  0.437686  0.00033  4.023894  0.0  0.343007  0.402148  0.001329  4.004167  0.001
C  C29  1  0.56541605  0.78963830  0.18396871  1  0.464155  0.000546  3.746663  0.001  0.415872  -0.000922  4.012098  -0.001  0.437648  -0.00033  4.023648  0.0  0.343027  0.402111  -0.001329  4.003913  -0.001
C  C30  1  0.02763900  0.47297409  0.29091961  1  0.118564  0.000485  3.603652  0.001  0.059682  0.000663  3.850961  0.001  0.069825  0.000418  3.863599  0.0  0.071004  0.052454  0.000533  3.843295  0.001
C  C31  1  0.47236505  0.97297457  0.70908450  1  0.118502  -0.000499  3.603633  -0.001  0.059718  -0.000663  3.850885  -0.001  0.069867  -0.000418  3.86352  0.0  0.071023  0.052494  -0.000533  3.843218  -0.001
C  C32  1  0.97235913  0.52702424  0.70908060  1  0.118453  0.000513  3.603689  0.001  0.059662  0.000662  3.850975  0.001  0.069802  0.000418  3.863618  0.0  0.071009  0.052433  0.000533  3.84331  0.001
C  C33  1  0.52763825  0.02702487  0.29092016  1  0.118552  -0.000486  3.603638  -0.001  0.059722  -0.000664  3.850872  -0.001  0.069864  -0.000418  3.863515  0.0  0.071023  0.052493  -0.000533  3.843206  -0.001
C  C34  1  0.84664625  0.69581506  0.99096682  1  0.240659  -0.003112  3.703702  -0.003  0.184154  -0.00068  4.006747  -0.001  0.20072  -0.001035  4.02035  -0.001  0.151529  0.173686  -0.00047  3.998149  0.0
C  C35  1  0.65335188  0.19581767  0.00903285  1  0.240726  0.003127  3.703704  0.003  0.184244  0.00068  4.006713  0.001  0.200813  0.001035  4.02032  0.001  0.151523  0.173769  0.00047  3.998139  0.0
C  C36  1  0.15335319  0.30418439  0.00903266  1  0.240764  -0.003165  3.70367  -0.003  0.18426  -0.000679  4.006687  -0.001  0.200825  -0.001034  4.020297  -0.001  0.151549  0.173791  -0.00047  3.998094  0.0
C  C37  1  0.34664495  0.80418850  0.99096704  1  0.240635  0.003139  3.703759  0.003  0.184147  0.00068  4.006837  0.001  0.20072  0.001035  4.020431  0.001  0.151477  0.173677  0.00047  3.998246  0.0
N  N38  1  0.21103516  0.74325739  0.28895637  1  -0.368718  0.000304  3.037859  0.001  -0.338835  -9.9e-05  3.316819  0.0  -0.354816  -1e-05  3.327751  0.0  -0.305906  -0.328223  -0.000186  3.30878  0.0
N  N39  1  0.28896144  0.24325472  0.71103918  1  -0.368656  -0.000294  3.03796  -0.001  -0.338726  9.9e-05  3.316904  0.0  -0.354702  1e-05  3.327826  0.0  -0.305823  -0.328115  0.000186  3.308864  0.0
N  N40  1  0.78896558  0.25673981  0.71104238  1  -0.36863  0.000299  3.037998  0.001  -0.338747  -9.9e-05  3.316988  0.0  -0.354724  -1.1e-05  3.327918  0.0  -0.305847  -0.328135  -0.000186  3.308945  0.0
N  N41  1  0.71103671  0.75674584  0.28895787  1  -0.3687  -0.000314  3.037803  -0.001  -0.338804  0.0001  3.316793  0.0  -0.354784  1e-05  3.327723  0.0  -0.305865  -0.328192  0.000186  3.308748  0.0
N  N42  1  0.97767326  0.57492652  0.18061328  1  0.012554  0.002775  3.623995  0.003  0.133313  0.002166  3.794793  0.003  0.12557  0.00173  3.813509  0.002  -0.105392  0.13824  0.002361  3.782559  0.003
N  N43  1  0.52232694  0.07493046  0.81938677  1  0.012622  -0.002772  3.623941  -0.003  0.13325  -0.002166  3.794874  -0.003  0.125476  -0.001731  3.813641  -0.002  -0.105469  0.138176  -0.002362  3.782635  -0.003
N  N44  1  0.02232489  0.42507180  0.81938483  1  0.012695  0.002769  3.623904  0.003  0.133349  0.002166  3.794813  0.003  0.125609  0.00173  3.813522  0.002  -0.105405  0.138275  0.002361  3.782582  0.003
N  N45  1  0.47767378  0.92507460  0.18061409  1  0.012532  -0.002774  3.624047  -0.003  0.133346  -0.002166  3.794754  -0.003  0.125609  -0.001731  3.813446  -0.002  -0.105384  0.13827  -0.002362  3.782519  -0.003
N  N46  1  0.84041312  0.56502372  0.05750773  1  -0.282317  0.005756  2.891463  0.006  -0.294964  0.003744  3.189997  0.004  -0.311782  0.002917  3.204296  0.003  -0.225791  -0.285233  0.004449  3.181709  0.004
N  N47  1  0.65958964  0.06502847  0.94249302  1  -0.282288  -0.005763  2.891374  -0.006  -0.294904  -0.003745  3.189942  -0.004  -0.311698  -0.002916  3.204219  -0.003  -0.22571  -0.285158  -0.004449  3.181636  -0.004
N  N48  1  0.15958632  0.43497460  0.94249175  1  -0.282418  0.005788  2.891472  0.006  -0.295031  0.003744  3.190024  0.004  -0.31185  0.002917  3.20432  0.003  -0.225805  -0.285301  0.004449  3.181745  0.004
N  N49  1  0.34040978  0.93497771  0.05750857  1  -0.282194  -0.005774  2.891305  -0.006  -0.294879  -0.003745  3.18983  -0.004  -0.311679  -0.002916  3.204108  -0.003  -0.225717  -0.285134  -0.004449  3.181527  -0.004
N  N50  1  0.97789181  0.78823277  0.06259239  1  -0.46187  0.0639  3.257081  0.079  -0.41557  0.047912  3.566037  0.062  -0.453033  0.040512  3.582622  0.055  -0.366872  -0.393108  0.051707  3.556079  0.065
N  N51  1  0.52210673  0.28823232  0.93740668  1  -0.462009  -0.063905  3.257194  -0.079  -0.415609  -0.047918  3.566035  -0.062  -0.453117  -0.040516  3.582683  -0.055  -0.366853  -0.393175  -0.051711  3.556117  -0.065
N  N52  1  0.02211022  0.21176556  0.93740773  1  -0.461954  0.063917  3.257047  0.079  -0.415635  0.047913  3.565996  0.062  -0.453097  0.040513  3.582575  0.055  -0.366856  -0.393171  0.051707  3.556038  0.065
N  N53  1  0.47789012  0.71177274  0.06259110  1  -0.461862  -0.063912  3.257284  -0.079  -0.415495  -0.047916  3.566139  -0.062  -0.453008  -0.040515  3.582799  -0.055  -0.366815  -0.393056  -0.05171  3.556214  -0.065
Cl  Cl54  1  0.96115764  0.91590884  0.76066245  1  -0.536062  0.127996  0.896913  0.146  -0.537521  0.085461  1.173999  0.103  -0.571493  0.066659  1.154538  0.084  -0.315044  -0.516113  0.096131  1.186845  0.113
Cl  Cl55  1  0.53883890  0.41590886  0.23933093  1  -0.536037  -0.12799  0.896917  -0.146  -0.53749  -0.08546  1.174027  -0.103  -0.571494  -0.066655  1.154562  -0.084  -0.315048  -0.516117  -0.096125  1.186902  -0.113
Cl  Cl56  1  0.03884180  0.08409060  0.23933597  1  -0.536052  0.128  0.896907  0.146  -0.537518  0.085463  1.173993  0.103  -0.571489  0.06666  1.154529  0.084  -0.315045  -0.516106  0.09613  1.186836  0.113
Cl  Cl57  1  0.46115795  0.58409507  0.76066685  1  -0.536056  -0.127992  0.896952  -0.146  -0.537511  -0.085462  1.17407  -0.103  -0.571519  -0.066655  1.154606  -0.084  -0.315044  -0.516126  -0.096126  1.186921  -0.113
