# generated using pymatgen
data_CuHgH14C22I2(NO)4
_symmetry_space_group_name_H-M   'P 1'
_cell_length_a   5.06187212
_cell_length_b   15.41175451
_cell_length_c   16.36247097
_cell_angle_alpha   107.86801459
_cell_angle_beta   89.99230593
_cell_angle_gamma   99.46109550
_symmetry_Int_Tables_number   1
_chemical_formula_structural   CuHgH14C22I2(NO)4
_chemical_formula_sum   'Cu2 Hg2 H28 C44 I4 N8 O8'
_cell_volume   1196.65766702
_cell_formula_units_Z   2
loop_
 _symmetry_equiv_pos_site_id
 _symmetry_equiv_pos_as_xyz
  1  'x, y, z'
loop_
 _atom_site_type_symbol
 _atom_site_label
 _atom_site_symmetry_multiplicity
 _atom_site_fract_x
 _atom_site_fract_y
 _atom_site_fract_z
 _atom_site_occupancy
 _atom_site_hle17_ddec_charge
 _atom_site_hle17_ddec_spin_density
 _atom_site_hle17_ddec_sum_bond_order
 _atom_site_hle17_magmom
 _atom_site_hse06_10hf_ddec_charge
 _atom_site_hse06_10hf_ddec_spin_density
 _atom_site_hse06_10hf_ddec_sum_bond_order
 _atom_site_hse06_10hf_magmom
 _atom_site_hse06_ddec_charge
 _atom_site_hse06_ddec_spin_density
 _atom_site_hse06_ddec_sum_bond_order
 _atom_site_hse06_magmom
 _atom_site_pbe_cm5_charge
 _atom_site_pbe_ddec_charge
 _atom_site_pbe_ddec_spin_density
 _atom_site_pbe_ddec_sum_bond_order
 _atom_site_pbe_magmom
Cu  Cu0  1  0.99999876  0.50000059  0.00000060  1  0.836905  0.739545  1.85582  0.509  0.811817  0.812921  2.250067  0.62  0.896956  0.887157  2.185149  0.703  0.749199  0.758508  0.758808  2.297069  0.566
Cu  Cu1  1  0.50000020  0.50000097  0.50000024  1  0.83515  -0.739552  1.857901  -0.509  0.809071  -0.812824  2.253494  -0.62  0.89479  -0.887046  2.187888  -0.703  0.749029  0.756573  -0.758722  2.299181  -0.566
Hg  Hg2  1  0.05457357  0.00000357  0.75003647  1  0.564574  -3e-06  2.128587  0.0  0.422467  2e-06  2.619208  0.0  0.468084  5e-06  2.594528  0.0  0.407457  0.391879  0.0  2.635412  0.0
Hg  Hg3  1  0.94542382  0.99999630  0.24996340  1  0.564557  -2e-06  2.128593  0.0  0.422446  1e-06  2.619225  0.0  0.468062  5e-06  2.594544  0.0  0.407446  0.391855  0.0  2.635432  0.0
H  H4  1  0.43829703  0.72501392  0.99094957  1  0.121003  0.00069  0.946207  0.001  0.127754  0.000617  1.013308  0.001  0.13155  0.000415  1.011203  0.001  0.10877  0.124931  0.000795  1.015021  0.001
H  H5  1  0.71339736  0.27500989  0.50911657  1  0.121262  -0.000698  0.945022  -0.001  0.128081  -0.000619  1.011843  -0.001  0.131911  -0.000416  1.009699  -0.001  0.10877  0.125241  -0.000797  1.01359  -0.001
H  H6  1  0.56169838  0.27498595  0.00905030  1  0.121044  0.000687  0.946167  0.001  0.127746  0.000617  1.013318  0.001  0.131541  0.000415  1.011214  0.001  0.108761  0.124926  0.000795  1.015029  0.001
H  H7  1  0.28660759  0.72498928  0.49088371  1  0.121305  -0.000698  0.945057  -0.001  0.128126  -0.000619  1.011845  -0.001  0.131956  -0.000416  1.0097  -0.001  0.108804  0.125285  -0.000797  1.01359  -0.001
H  H8  1  0.92627347  0.66001387  0.76893824  1  0.125976  0.000346  0.93787  0.0  0.135544  0.000359  0.996451  0.0  0.139461  0.000267  0.994697  0.0  0.114398  0.132617  0.000428  0.997951  0.0
H  H9  1  0.26660541  0.33996668  0.73101671  1  0.126151  -0.000351  0.938342  0.0  0.135843  -0.000361  0.996648  0.0  0.139755  -0.000268  0.994924  0.0  0.114514  0.132916  -0.000429  0.998143  0.0
H  H10  1  0.07372160  0.33998530  0.23106204  1  0.125902  0.000349  0.937934  0.0  0.135465  0.000359  0.996521  0.0  0.139382  0.000267  0.994769  0.0  0.114363  0.132541  0.000428  0.998022  0.0
H  H11  1  0.73339826  0.66003388  0.26898337  1  0.126152  -0.000353  0.938315  0.0  0.135837  -0.000361  0.996635  0.0  0.13975  -0.000268  0.99491  0.0  0.114524  0.132914  -0.000429  0.998129  0.0
H  H12  1  0.10794368  0.55071064  0.83142249  1  0.095743  0.000859  0.920972  0.002  0.105828  0.000757  0.97824  0.001  0.108517  0.000578  0.976029  0.001  0.124762  0.103668  0.000878  0.980051  0.002
H  H13  1  0.55749451  0.44934997  0.66854588  1  0.095241  -0.000864  0.922461  -0.002  0.105376  -0.000756  0.979695  -0.001  0.107992  -0.000578  0.977543  -0.001  0.124797  0.10328  -0.000878  0.981439  -0.002
H  H14  1  0.89204975  0.44928922  0.16857800  1  0.095747  0.000857  0.920946  0.002  0.105826  0.000757  0.978223  0.001  0.1085  0.000578  0.976029  0.001  0.124777  0.103668  0.000878  0.980034  0.002
H  H15  1  0.44251542  0.55065127  0.33145501  1  0.0953  -0.000865  0.922387  -0.002  0.105373  -0.000756  0.979684  -0.001  0.107987  -0.000578  0.977536  -0.001  0.124808  0.103286  -0.000878  0.981436  -0.002
H  H16  1  0.30152130  0.97224768  0.92177077  1  0.065614  -2.1e-05  0.982244  0.0  0.069529  0.0  1.057748  0.0  0.072581  0.0  1.054635  0.0  0.092578  0.067316  0.0  1.060019  0.0
H  H17  1  0.32913855  0.02776021  0.57822764  1  0.065291  2.2e-05  0.982661  0.0  0.069483  -0.0  1.057921  0.0  0.072548  -0.0  1.054745  0.0  0.092439  0.06726  -0.0  1.060237  0.0
H  H18  1  0.69847377  0.02775150  0.07822829  1  0.065609  -2.7e-05  0.982243  0.0  0.069515  0.0  1.057759  0.0  0.072568  0.0  1.054643  0.0  0.092567  0.067303  0.0  1.06003  0.0
H  H19  1  0.67086081  0.97223965  0.42177163  1  0.065316  2.5e-05  0.982656  0.0  0.06951  -0.0  1.05791  0.0  0.072575  -0.0  1.054734  0.0  0.092443  0.067286  -0.0  1.060225  0.0
H  H20  1  0.53249969  0.86704504  0.97470536  1  0.095546  6e-05  0.998976  0.0  0.102112  2.6e-05  1.070673  0.0  0.106126  1.9e-05  1.067901  0.0  0.087427  0.099174  3.1e-05  1.07292  0.0
H  H21  1  0.66529988  0.13299789  0.52527920  1  0.095978  -5.3e-05  0.998623  0.0  0.10211  -2.6e-05  1.070834  0.0  0.106081  -1.9e-05  1.068054  0.0  0.087363  0.099201  -3.1e-05  1.073082  0.0
H  H22  1  0.46749933  0.13295414  0.02529370  1  0.095495  6.4e-05  0.999003  0.0  0.102064  2.6e-05  1.070696  0.0  0.106076  1.9e-05  1.067928  0.0  0.087408  0.099127  3.1e-05  1.072941  0.0
H  H23  1  0.33469948  0.86700197  0.47472067  1  0.095996  -6e-05  0.998621  0.0  0.102127  -2.6e-05  1.070828  0.0  0.106098  -1.9e-05  1.068051  0.0  0.087365  0.099217  -3.1e-05  1.073075  0.0
H  H24  1  0.54413781  0.69769420  0.70894971  1  0.130323  0.000118  0.948461  0.0  0.140932  4.9e-05  1.005774  0.0  0.144834  4e-05  1.00364  0.0  0.111807  0.138058  5.3e-05  1.007483  0.0
H  H25  1  0.84650202  0.30227873  0.79106065  1  0.130566  -0.000111  0.947956  0.0  0.14091  -4.9e-05  1.005545  0.0  0.1448  -4e-05  1.003409  0.0  0.111958  0.138044  -5.3e-05  1.00726  0.0
H  H26  1  0.45585958  0.30230566  0.29105077  1  0.130329  0.000118  0.948478  0.0  0.140934  4.9e-05  1.005787  0.0  0.144836  4e-05  1.003653  0.0  0.111794  0.138062  5.3e-05  1.007498  0.0
H  H27  1  0.15349863  0.69771975  0.20893944  1  0.13055  -0.000116  0.947951  0.0  0.140895  -4.9e-05  1.005538  0.0  0.144785  -4e-05  1.003403  0.0  0.111965  0.138032  -5.3e-05  1.007255  0.0
H  H28  1  0.31405113  0.80929742  0.66825973  1  0.071399  -3.5e-05  0.97523  0.0  0.074747  -7e-06  1.050048  0.0  0.077809  -5e-06  1.04673  0.0  0.096709  0.072407  -1.5e-05  1.05262  0.0
H  H29  1  0.50459515  0.19067228  0.83172796  1  0.071147  2.6e-05  0.975474  0.0  0.074483  8e-06  1.050316  0.0  0.077553  5e-06  1.047003  0.0  0.096841  0.072138  1.6e-05  1.052894  0.0
H  H30  1  0.68594789  0.19070176  0.33173872  1  0.071434  -3.8e-05  0.975225  0.0  0.074785  -7e-06  1.050042  0.0  0.077848  -5e-06  1.046723  0.0  0.096727  0.072447  -1.5e-05  1.052613  0.0
H  H31  1  0.49540386  0.80932689  0.16827232  1  0.071155  3e-05  0.975476  0.0  0.074491  8e-06  1.050313  0.0  0.07756  5e-06  1.047004  0.0  0.096856  0.072147  1.6e-05  1.052892  0.0
C  C32  1  0.69612291  0.62663175  0.98194829  1  0.103461  -0.006258  3.758475  -0.006  0.10923  -0.001121  3.998201  -0.002  0.112593  -0.001905  4.017849  -0.003  0.108948  0.106562  -0.000541  3.985891  -0.001
C  C33  1  0.06961966  0.37337279  0.51806527  1  0.10266  0.006274  3.756959  0.006  0.108131  0.001125  3.997213  0.002  0.11156  0.001898  4.016784  0.003  0.108379  0.105456  0.000542  3.984942  0.001
C  C34  1  0.30387053  0.37336812  0.01805158  1  0.103342  -0.006277  3.758409  -0.006  0.109152  -0.001124  3.998152  -0.002  0.112512  -0.001905  4.017794  -0.003  0.108978  0.106499  -0.000541  3.985839  -0.001
C  C35  1  0.93038598  0.62662777  0.48193541  1  0.102644  0.00623  3.756804  0.006  0.108119  0.001129  3.997044  0.002  0.111546  0.001893  4.016615  0.003  0.108402  0.105452  0.000542  3.984769  0.001
C  C36  1  0.58918595  0.68990893  0.95324845  1  -0.141171  0.006293  3.686985  0.006  -0.170408  0.002187  3.933427  0.002  -0.175484  0.002263  3.951563  0.002  -0.07294  -0.1671  0.002113  3.921596  0.002
C  C37  1  0.89941173  0.31011936  0.54680466  1  -0.141289  -0.006284  3.684026  -0.006  -0.170323  -0.002181  3.929747  -0.002  -0.175508  -0.002263  3.947988  -0.002  -0.072506  -0.166966  -0.002112  3.917812  -0.002
C  C38  1  0.41081144  0.31009094  0.04675142  1  -0.141224  0.006318  3.686934  0.006  -0.170422  0.002188  3.933403  0.002  -0.175499  0.002265  3.951537  0.002  -0.072949  -0.167119  0.002113  3.921568  0.002
C  C39  1  0.10059519  0.68987981  0.45319562  1  -0.141237  -0.006253  3.684142  -0.006  -0.170284  -0.00219  3.929807  -0.002  -0.175454  -0.002256  3.948064  -0.002  -0.072504  -0.166925  -0.002111  3.917869  -0.002
C  C40  1  0.67210347  0.70506333  0.87622154  1  0.104596  -0.007379  3.733617  -0.007  0.117949  -0.002265  3.963548  -0.002  0.122868  -0.002532  3.983026  -0.003  0.017577  0.114538  -0.00202  3.950321  -0.002
C  C41  1  0.96738239  0.29490043  0.62377243  1  0.105423  0.007357  3.732851  0.007  0.119171  0.002261  3.961462  0.002  0.124126  0.002536  3.980918  0.003  0.01748  0.115742  0.002021  3.948232  0.002
C  C42  1  0.32789461  0.29493792  0.12377935  1  0.104645  -0.007385  3.733581  -0.007  0.117962  -0.002264  3.963553  -0.002  0.122879  -0.002535  3.983033  -0.003  0.017563  0.114551  -0.00202  3.950327  -0.002
C  C43  1  0.03262522  0.70510013  0.37622887  1  0.10513  0.007332  3.733018  0.007  0.119017  0.002267  3.961467  0.002  0.123923  0.002532  3.980989  0.003  0.017388  0.11559  0.002021  3.94824  0.002
C  C44  1  0.85790686  0.65285165  0.83010048  1  -0.137092  0.009734  3.642262  0.01  -0.156396  0.003874  3.886451  0.004  -0.162528  0.003658  3.90383  0.004  -0.07044  -0.152341  0.00394  3.874834  0.005
C  C45  1  0.20542424  0.34713512  0.66986080  1  -0.136645  -0.009691  3.643152  -0.01  -0.156406  -0.003868  3.887158  -0.004  -0.162532  -0.003658  3.904456  -0.004  -0.07006  -0.152364  -0.003936  3.875592  -0.005
C  C46  1  0.14208821  0.34714753  0.16989919  1  -0.137031  0.009725  3.642257  0.01  -0.156312  0.003873  3.886446  0.004  -0.162442  0.00366  3.903822  0.004  -0.07044  -0.15226  0.00394  3.874829  0.005
C  C47  1  0.79457814  0.65286682  0.33014029  1  -0.13656  -0.009658  3.64306  -0.01  -0.156361  -0.003867  3.887022  -0.004  -0.16247  -0.003657  3.904332  -0.004  -0.070064  -0.15232  -0.003936  3.875467  -0.005
C  C48  1  0.96053955  0.59178916  0.86390394  1  0.147236  -0.005915  3.657419  -0.006  0.118738  -0.000245  3.914334  -0.001  0.128336  -0.001303  3.929983  -0.002  0.056309  0.112624  0.000592  3.904042  0.0
C  C49  1  0.36903106  0.40823723  0.63606331  1  0.147521  0.005921  3.658896  0.006  0.119067  0.000248  3.915945  0.001  0.128753  0.001302  3.931599  0.002  0.056437  0.112882  -0.000589  3.905672  0.0
C  C50  1  0.03945192  0.40821070  0.13609594  1  0.1472  -0.005906  3.657298  -0.006  0.118714  -0.000245  3.914229  -0.001  0.128319  -0.001305  3.929875  -0.002  0.056315  0.112616  0.000592  3.903947  0.0
C  C51  1  0.63097690  0.59176402  0.36393696  1  0.147501  0.00589  3.658738  0.006  0.119081  0.000244  3.915801  0.001  0.12877  0.001303  3.931446  0.002  0.056438  0.112884  -0.000589  3.90555  0.0
C  C52  1  0.60577016  0.60261018  0.06138826  1  0.588536  -0.004394  3.949458  -0.006  0.544748  0.000108  4.255234  -0.001  0.580126  -1.8e-05  4.249224  -0.001  0.196729  0.520533  0.000167  4.258394  -0.002
C  C53  1  0.00322553  0.39732243  0.43860681  1  0.589516  0.004377  3.95033  0.006  0.545779  -0.000112  4.255789  0.001  0.581146  2.2e-05  4.249831  0.001  0.19678  0.521537  -0.000171  4.259069  0.002
C  C54  1  0.39422757  0.39739038  0.93861121  1  0.588815  -0.004388  3.949307  -0.006  0.544989  0.000108  4.255135  -0.001  0.580367  -1.7e-05  4.24912  -0.001  0.196778  0.52077  0.000167  4.258289  -0.002
C  C55  1  0.99677418  0.60267813  0.56139387  1  0.589545  0.004394  3.95034  0.006  0.545805  -0.000112  4.255801  0.001  0.581174  2.2e-05  4.249841  0.001  0.196796  0.521557  -0.000171  4.25908  0.002
C  C56  1  0.36168167  0.91083542  0.87713328  1  0.117922  0.000999  3.752411  0.001  0.089737  0.000177  4.001517  0.0  0.096529  0.000215  4.020515  0.0  0.031241  0.085328  0.000147  3.988582  0.0
C  C57  1  0.45071586  0.08917362  0.62285617  1  0.117746  -0.000974  3.750539  -0.001  0.089188  -0.000176  4.000073  0.0  0.096009  -0.000215  4.019002  0.0  0.030986  0.084747  -0.000144  3.987205  0.0
C  C58  1  0.63831538  0.08916376  0.12286639  1  0.117885  0.001044  3.752439  0.001  0.089711  0.000176  4.001515  0.0  0.096505  0.000214  4.020512  0.0  0.031271  0.085302  0.000147  3.988588  0.0
C  C59  1  0.54928350  0.91082625  0.37714309  1  0.117695  -0.001002  3.750586  -0.001  0.089148  -0.000176  4.000115  0.0  0.095969  -0.000216  4.019044  0.0  0.030977  0.084709  -0.000144  3.987243  0.0
C  C60  1  0.48766108  0.85153144  0.90609774  1  -0.156784  -0.001646  3.719871  -0.002  -0.173689  -0.000362  3.962666  0.0  -0.181017  -0.000432  3.983878  0.0  -0.09187  -0.168955  -0.000305  3.94843  0.0
C  C61  1  0.63603491  0.14850642  0.59389361  1  -0.156599  0.001557  3.71927  0.001  -0.173399  0.000365  3.961877  0.0  -0.180666  0.00043  3.9832  0.0  -0.09159  -0.16871  0.000307  3.947568  0.0
C  C62  1  0.51233364  0.14846704  0.09390112  1  -0.156689  -0.001684  3.719801  -0.002  -0.17359  -0.000363  3.962586  0.0  -0.180916  -0.00043  3.983796  0.0  -0.091857  -0.168862  -0.000305  3.948369  0.0
C  C63  1  0.36396840  0.85149344  0.40610626  1  -0.15665  0.001598  3.719297  0.002  -0.173435  0.000363  3.961905  0.0  -0.180701  0.000433  3.983225  0.0  -0.091582  -0.168743  0.000307  3.947591  0.0
C  C64  1  0.55792048  0.77275181  0.84622781  1  0.087668  0.00145  3.761312  0.002  0.099687  0.000242  3.991371  0.0  0.101997  0.000313  4.014514  0.0  0.006967  0.098401  0.000189  3.975607  0.0
C  C65  1  0.78532920  0.22724366  0.65377418  1  0.084941  -0.001361  3.76318  -0.002  0.097893  -0.000244  3.991449  0.0  0.100156  -0.000309  4.014602  0.0  0.006388  0.096646  -0.00019  3.975661  0.0
C  C66  1  0.44207691  0.22724806  0.15377145  1  0.087584  0.001475  3.761282  0.002  0.0996  0.000243  3.991357  0.0  0.10191  0.000309  4.0145  0.0  0.00696  0.098317  0.000189  3.975594  0.0
C  C67  1  0.21467609  0.77275620  0.34622631  1  0.085017  -0.001393  3.763164  -0.002  0.097897  -0.000242  3.991457  0.0  0.100175  -0.000313  4.014619  0.0  0.006366  0.096651  -0.00019  3.975671  0.0
C  C68  1  0.50178543  0.75839860  0.75885857  1  -0.146323  -0.0017  3.673475  -0.002  -0.164909  -0.000372  3.916412  0.0  -0.171467  -0.000446  3.935561  0.0  -0.080857  -0.160825  -0.00032  3.90383  0.0
C  C69  1  0.74339858  0.24159062  0.74114364  1  -0.145045  0.001642  3.672515  0.002  -0.163806  0.000376  3.915389  0.0  -0.170339  0.000443  3.934568  0.0  -0.080602  -0.159747  0.000318  3.902798  0.0
C  C70  1  0.49821393  0.24160127  0.24114130  1  -0.146334  -0.001736  3.673532  -0.002  -0.164901  -0.000374  3.916454  0.0  -0.171458  -0.000442  3.935604  0.0  -0.08085  -0.160818  -0.00032  3.903879  0.0
C  C71  1  0.25660207  0.75840786  0.25885644  1  -0.144993  0.001689  3.672476  0.002  -0.163753  0.000374  3.915363  0.0  -0.170284  0.000445  3.93454  0.0  -0.080574  -0.159696  0.000318  3.902783  0.0
C  C72  1  0.37032316  0.82052728  0.73544002  1  0.124581  0.000975  3.733472  0.001  0.094938  0.000167  3.98623  0.0  0.102628  0.000206  4.003784  0.0  0.036745  0.089858  0.000135  3.974488  0.0
C  C73  1  0.54963038  0.17947575  0.76454668  1  0.123325  -0.000911  3.733114  -0.001  0.093761  -0.000171  3.985783  0.0  0.101408  -0.000206  4.003409  0.0  0.036231  0.088706  -0.000136  3.974008  0.0
C  C74  1  0.62967620  0.17947258  0.26455863  1  0.124507  0.001018  3.733452  0.001  0.094841  0.000168  3.986226  0.0  0.10253  0.000204  4.003782  0.0  0.036685  0.089764  0.000135  3.974488  0.0
C  C75  1  0.45037026  0.82052273  0.23545340  1  0.123294  -0.000956  3.733141  -0.001  0.093745  -0.00017  3.985805  0.0  0.101392  -0.000207  4.003431  0.0  0.036195  0.088689  -0.000136  3.974038  0.0
I  I76  1  0.85050812  0.89133537  0.59153436  1  -0.346126  -4.6e-05  1.138979  0.0  -0.30023  4e-06  1.481365  0.0  -0.320239  -1.3e-05  1.465218  0.0  -0.155411  -0.2863  1.7e-05  1.49255  0.0
I  I77  1  0.95912238  0.10880233  0.90848699  1  -0.346139  5.6e-05  1.138422  0.0  -0.300113  2e-06  1.480874  0.0  -0.320085  1.9e-05  1.46464  0.0  -0.155363  -0.286207  -7e-06  1.492121  0.0
I  I78  1  0.14949124  0.10866449  0.40846552  1  -0.346134  -5.2e-05  1.138981  0.0  -0.300246  4e-06  1.481378  0.0  -0.320255  -1.3e-05  1.465232  0.0  -0.155417  -0.286313  1.7e-05  1.492564  0.0
I  I79  1  0.04087535  0.89119823  0.09151430  1  -0.346124  5.9e-05  1.138433  0.0  -0.300087  2e-06  1.480894  0.0  -0.320058  1.8e-05  1.464661  0.0  -0.155344  -0.286177  -6e-06  1.492135  0.0
N  N80  1  0.88306378  0.58024962  0.93901138  1  -0.301425  0.073874  3.344974  0.089  -0.258317  0.051238  3.633712  0.066  -0.285284  0.043534  3.652881  0.059  -0.347796  -0.242375  0.054999  3.62309  0.069
N  N81  1  0.30298702  0.41976537  0.56096654  1  -0.300502  -0.073864  3.343597  -0.089  -0.257408  -0.051212  3.632541  -0.066  -0.284553  -0.043522  3.651689  -0.059  -0.348116  -0.241589  -0.054962  3.621889  -0.068
N  N82  1  0.11693129  0.41974955  0.06098829  1  -0.301309  0.073877  3.34489  0.089  -0.258256  0.051238  3.633676  0.066  -0.285206  0.043533  3.652819  0.059  -0.347793  -0.24236  0.055  3.623102  0.069
N  N83  1  0.69701827  0.58023450  0.43903395  1  -0.300525  -0.073832  3.343425  -0.089  -0.257414  -0.051209  3.632341  -0.066  -0.284556  -0.043522  3.651484  -0.059  -0.348133  -0.241597  -0.05496  3.621698  -0.068
N  N84  1  0.30133023  0.89504117  0.79331356  1  -0.297312  -0.001236  3.276765  -0.001  -0.21913  -0.000317  3.537813  0.0  -0.239631  -0.000363  3.559946  0.0  -0.316231  -0.205226  -0.000279  3.522488  0.0
N  N85  1  0.40614673  0.10496215  0.70667703  1  -0.295803  0.001204  3.275274  0.001  -0.217583  0.000319  3.536214  0.0  -0.238087  0.000365  3.558399  0.0  -0.315789  -0.203678  0.000278  3.520847  0.0
N  N86  1  0.69866913  0.10495870  0.20668509  1  -0.297243  -0.00127  3.276716  -0.002  -0.219046  -0.000317  3.537741  0.0  -0.239549  -0.000364  3.559876  0.0  -0.316205  -0.205143  -0.000278  3.52242  0.0
N  N87  1  0.59385066  0.89503771  0.29332284  1  -0.295758  0.001227  3.275258  0.001  -0.217566  0.00032  3.53622  0.0  -0.23807  0.000364  3.558404  0.0  -0.315776  -0.203661  0.000278  3.520853  0.0
O  O88  1  0.74475831  0.55015539  0.08545541  1  -0.585563  0.095234  2.026131  0.123  -0.560183  0.062959  2.303417  0.089  -0.601126  0.049273  2.295135  0.073  -0.331583  -0.532773  0.071394  2.309286  0.098
O  O89  1  0.19468919  0.44971587  0.41446365  1  -0.585547  -0.095305  2.024459  -0.123  -0.56  -0.063054  2.301996  -0.089  -0.600976  -0.049356  2.293484  -0.074  -0.331363  -0.532812  -0.071507  2.307928  -0.098
O  O90  1  0.25524442  0.44984724  0.91454587  1  -0.58572  0.095228  2.026088  0.123  -0.560291  0.062958  2.303426  0.089  -0.601235  0.049272  2.295141  0.073  -0.331616  -0.53288  0.071397  2.309293  0.098
O  O91  1  0.80531250  0.55028469  0.58553704  1  -0.585573  -0.095298  2.024479  -0.123  -0.560006  -0.063051  2.302033  -0.089  -0.600982  -0.049356  2.293519  -0.074  -0.331359  -0.532818  -0.071509  2.307961  -0.098
O  O92  1  0.40443614  0.63020806  0.09686297  1  -0.568511  0.019796  1.959908  0.025  -0.545468  0.009323  2.206567  0.013  -0.571829  0.004125  2.197419  0.007  -0.302173  -0.525396  0.015466  2.211543  0.021
O  O93  1  0.77417245  0.36973943  0.40320219  1  -0.569046  -0.019762  1.962097  -0.025  -0.54586  -0.009324  2.20862  -0.013  -0.572333  -0.004114  2.199533  -0.007  -0.302186  -0.525837  -0.015453  2.213624  -0.021
O  O94  1  0.59555893  0.36979111  0.90313609  1  -0.568599  0.019787  1.959909  0.025  -0.545544  0.009324  2.206597  0.013  -0.571906  0.004124  2.197448  0.007  -0.302186  -0.525471  0.015468  2.211569  0.021
O  O95  1  0.22583087  0.63026044  0.59679830  1  -0.569072  -0.019768  1.962134  -0.025  -0.545881  -0.009325  2.208648  -0.013  -0.572355  -0.004114  2.199561  -0.007  -0.302207  -0.525856  -0.015454  2.213651  -0.021
