# generated using pymatgen
data_HgH18C15SN4(ClO)2
_symmetry_space_group_name_H-M   'P 1'
_cell_length_a   8.23259353
_cell_length_b   9.09107025
_cell_length_c   13.32481898
_cell_angle_alpha   98.17698429
_cell_angle_beta   106.10175380
_cell_angle_gamma   93.90360688
_symmetry_Int_Tables_number   1
_chemical_formula_structural   HgH18C15SN4(ClO)2
_chemical_formula_sum   'Hg2 H36 C30 S2 N8 Cl4 O4'
_cell_volume   942.32567626
_cell_formula_units_Z   2
loop_
 _symmetry_equiv_pos_site_id
 _symmetry_equiv_pos_as_xyz
  1  'x, y, z'
loop_
 _atom_site_type_symbol
 _atom_site_label
 _atom_site_symmetry_multiplicity
 _atom_site_fract_x
 _atom_site_fract_y
 _atom_site_fract_z
 _atom_site_occupancy
 _atom_site_hle17_bader_spin_density
 _atom_site_hle17_ddec_charge
 _atom_site_hle17_ddec_spin_density
 _atom_site_hle17_ddec_sum_bond_order
 _atom_site_hle17_magmom
 _atom_site_hse06_10hf_bader_spin_density
 _atom_site_hse06_10hf_ddec_charge
 _atom_site_hse06_10hf_ddec_spin_density
 _atom_site_hse06_10hf_ddec_sum_bond_order
 _atom_site_hse06_10hf_magmom
 _atom_site_hse06_bader_spin_density
 _atom_site_hse06_ddec_charge
 _atom_site_hse06_ddec_spin_density
 _atom_site_hse06_ddec_sum_bond_order
 _atom_site_hse06_magmom
 _atom_site_pbe_bader_spin_density
 _atom_site_pbe_cm5_charge
 _atom_site_pbe_ddec_charge
 _atom_site_pbe_ddec_spin_density
 _atom_site_pbe_ddec_sum_bond_order
 _atom_site_pbe_magmom
Hg  Hg0  1  0.48042639  0.05014923  0.63789303  1  0  0.673029  0  2.143242  0  0  0.540389  0  2.650907  0  0  0.583234  0  2.617927  0  0  0.442832  0.511362  0  2.672729  0
Hg  Hg1  1  0.51957158  0.94985070  0.36210654  1  0  0.673039  0  2.143197  0  0  0.540404  0  2.650866  0  0  0.58325  0  2.617883  0  0  0.442829  0.51138  0  2.672666  0
H  H2  1  0.34746412  0.08549445  0.81483170  1  0  0.29086  0  0.945055  0  0  0.268908  0  1.018425  0  0  0.277181  0  1.011777  0  0  0.306321  0.26287  0  1.023546  0
H  H3  1  0.65253511  0.91450548  0.18516808  1  0  0.290802  0  0.94508  0  0  0.268882  0  1.018421  0  0  0.277152  0  1.011775  0  0  0.306309  0.262851  0  1.023523  0
H  H4  1  0.90086317  0.01127680  0.71942321  1  0  0.330954  0  0.924599  0  0  0.304657  0  1.00653  0  0  0.313191  0  0.998653  0  0  0.286156  0.298363  0  1.012427  0
H  H5  1  0.09913719  0.98872201  0.28057740  1  0  0.330923  0  0.924561  0  0  0.30462  0  1.006504  0  0  0.313155  0  0.998625  0  0  0.286151  0.298324  0  1.012416  0
H  H6  1  0.88089448  0.08771634  0.60329805  1  0  0.328587  0  0.923505  0  0  0.307305  0  0.995703  0  0  0.315211  0  0.98924  0  0  0.280129  0.30171  0  1.000091  0
H  H7  1  0.11910446  0.91228135  0.39670221  1  0  0.328564  0  0.923528  0  0  0.307281  0  0.995725  0  0  0.315188  0  0.98926  0  0  0.280132  0.301688  0  1.000114  0
H  H8  1  0.41025178  0.40375509  0.26298256  1  0  0.102836  0  0.96809  0  0  0.123415  0  1.031668  0  0  0.123999  0  1.032616  0  0  0.079872  0.122884  0  1.031091  0
H  H9  1  0.58974669  0.59623924  0.73701505  1  0  0.102885  0  0.968088  0  0  0.123467  0  1.031667  0  0  0.124053  0  1.032608  0  0  0.079903  0.122938  0  1.031087  0
H  H10  1  0.50634614  0.57271133  0.23931691  1  0  0.099857  0  0.979591  0  0  0.113435  0  1.056593  0  0  0.115111  0  1.055927  0  0  0.076889  0.112208  0  1.057154  0
H  H11  1  0.49364901  0.42728636  0.76068198  1  0  0.099922  0  0.979706  0  0  0.113523  0  1.056661  0  0  0.115198  0  1.055994  0  0  0.076928  0.112298  0  1.057218  0
H  H12  1  0.57754557  0.51427731  0.36453495  1  0  0.102198  0  0.95231  0  0  0.123138  0  1.013657  0  0  0.124903  0  1.013116  0  0  0.081598  0.121641  0  1.014301  0
H  H13  1  0.42245322  0.48571926  0.63546443  1  0  0.10227  0  0.952347  0  0  0.123207  0  1.013685  0  0  0.124944  0  1.013173  0  0  0.08164  0.121711  0  1.014336  0
H  H14  1  0.67399345  0.28469578  0.27889224  1  0  0.065052  0  0.92828  0  0  0.080478  0  0.994442  0  0  0.08016  0  0.995304  0  0  0.099758  0.080392  0  0.994222  0
H  H15  1  0.32600811  0.71530301  0.72110407  1  0  0.065023  0  0.928213  0  0  0.080438  0  0.994397  0  0  0.080119  0  0.995258  0  0  0.099733  0.080349  0  0.994187  0
H  H16  1  0.60487478  0.33913707  0.15411657  1  0  0.052742  0  0.945416  0  0  0.069875  0  1.011391  0  0  0.069167  0  1.011937  0  0  0.099711  0.070373  0  1.010789  0
H  H17  1  0.39512739  0.66086620  0.84588177  1  0  0.05277  0  0.945402  0  0  0.069899  0  1.011375  0  0  0.069192  0  1.011921  0  0  0.099722  0.070402  0  1.010771  0
H  H18  1  0.15150177  0.34676953  0.44272718  1  0  0.10276  0  0.96165  0  0  0.125474  0  1.023033  0  0  0.126441  0  1.023298  0  0  0.08245  0.124604  0  1.023027  0
H  H19  1  0.84849464  0.65322816  0.55727192  1  0  0.102738  0  0.961573  0  0  0.125439  0  1.022992  0  0  0.12641  0  1.023253  0  0  0.082452  0.124571  0  1.02298  0
H  H20  1  0.13377424  0.34177808  0.30655974  1  0  0.100445  0  0.967604  0  0  0.12057  0  1.032415  0  0  0.121231  0  1.03303  0  0  0.082603  0.119955  0  1.032039  0
H  H21  1  0.86622091  0.65821962  0.69343990  1  0  0.100418  0  0.967559  0  0  0.120547  0  1.032382  0  0  0.121207  0  1.032993  0  0  0.082599  0.119929  0  1.032003  0
H  H22  1  0.98579667  0.22842649  0.34475684  1  0  0.102676  0  0.978685  0  0  0.121453  0  1.044727  0  0  0.122172  0  1.045801  0  0  0.082182  0.120832  0  1.043858  0
H  H23  1  0.01419625  0.77157346  0.65524264  1  0  0.10258  0  0.978688  0  0  0.121368  0  1.044742  0  0  0.122086  0  1.045819  0  0  0.082142  0.120746  0  1.04387  0
H  H24  1  0.87068599  0.45256758  0.41746248  1  0  0.06485  0  0.931039  0  0  0.086017  0  0.989284  0  0  0.085729  0  0.990191  0  0  0.107395  0.085977  0  0.989046  0
H  H25  1  0.12931086  0.54743347  0.58253701  1  0  0.064888  0  0.931054  0  0  0.086023  0  0.9893  0  0  0.085732  0  0.990212  0  0  0.107409  0.086021  0  0.989021  0
H  H26  1  0.02222592  0.57350871  0.38884632  1  0  0.058131  0  0.945121  0  0  0.072014  0  1.01606  0  0  0.072284  0  1.015911  0  0  0.095393  0.071546  0  1.016159  0
H  H27  1  0.97777348  0.42649234  0.61115510  1  0  0.058131  0  0.94515  0  0  0.072001  0  1.016074  0  0  0.072275  0  1.015923  0  0  0.095399  0.071536  0  1.016181  0
H  H28  1  0.14299793  0.57460123  0.26809217  1  0  0.136598  0  0.956315  0  0  0.147463  0  1.016136  0  0  0.151495  0  1.014627  0  0  0.110602  0.144675  0  1.016959  0
H  H29  1  0.85700309  0.42539309  0.73190737  1  0  0.136625  0  0.956292  0  0  0.147497  0  1.0161  0  0  0.151529  0  1.014592  0  0  0.110624  0.144708  0  1.016928  0
H  H30  1  0.68733572  0.66704807  0.95585342  1  0  0.100213  0  0.93454  0  0  0.11468  0  0.989872  0  0  0.117038  0  0.98826  0  0  0.106693  0.112936  0  0.990986  0
H  H31  1  0.31266693  0.33295856  0.04414833  1  0  0.100188  0  0.934589  0  0  0.114631  0  0.989948  0  0  0.116989  0  0.988338  0  0  0.106655  0.112889  0  0.991063  0
H  H32  1  0.60860713  0.52939427  0.08374880  1  0  0.108278  0  0.96433  0  0  0.121031  0  1.02292  0  0  0.124067  0  1.022512  0  0  0.104885  0.11889  0  1.023461  0
H  H33  1  0.39139618  0.47060788  0.91625112  1  0  0.108263  0  0.964342  0  0  0.12102  0  1.022938  0  0  0.124057  0  1.02253  0  0  0.104893  0.11888  0  1.023478  0
H  H34  1  0.91697127  0.81110838  0.90087205  1  0  0.111024  0  0.946783  0  0  0.118214  0  1.014954  0  0  0.121841  0  1.010144  0  0  0.105437  0.11577  0  1.017606  0
H  H35  1  0.08302793  0.18890050  0.09913234  1  0  0.111056  0  0.946729  0  0  0.118237  0  1.014901  0  0  0.121875  0  1.010062  0  0  0.105432  0.115791  0  1.017553  0
H  H36  1  0.38335325  0.94629433  0.94170830  1  0  0.079378  0  0.948514  0  0  0.087746  0  1.016813  0  0  0.091952  0  1.010656  0  0  0.11564  0.084698  0  1.021108  0
H  H37  1  0.61664834  0.05370447  0.05829026  1  0  0.079399  0  0.9485  0  0  0.087748  0  1.016824  0  0  0.091979  0  1.010631  0  0  0.115634  0.084698  0  1.021115  0
C  C38  1  0.53066732  0.47504544  0.27865626  1  0  -0.32369  0  3.708306  0  0  -0.400922  0  3.955763  0  0  -0.404188  0  3.966088  0  0  -0.257147  -0.39853  0  3.948708  0
C  C39  1  0.46933130  0.52495001  0.72134148  1  0  -0.323912  0  3.708467  0  0  -0.401165  0  3.955922  0  0  -0.404404  0  3.966266  0  0  -0.257249  -0.398773  0  3.948867  0
C  C40  1  0.65600509  0.38309442  0.23927112  1  0  0.04951  0  3.674736  0  0  -0.009624  0  3.940623  0  0  -0.003482  0  3.954293  0  0  -0.063691  -0.013608  0  3.931289  0
C  C41  1  0.34399664  0.61690549  0.76072682  1  0  0.049559  0  3.674501  0  0  -0.009506  0  3.940394  0  0  -0.003363  0  3.954063  0  0  -0.063657  -0.013492  0  3.931071  0
C  C42  1  0.06072342  0.33820367  0.36375676  1  0  -0.315099  0  3.699307  0  0  -0.392056  0  3.943056  0  0  -0.394798  0  3.953961  0  0  -0.253964  -0.389897  0  3.935736  0
C  C43  1  0.93927567  0.66179514  0.63624364  1  0  -0.314878  0  3.699197  0  0  -0.391854  0  3.942947  0  0  -0.394597  0  3.953844  0  0  -0.253901  -0.389695  0  3.935628  0
C  C44  1  0.94637807  0.46332323  0.36217101  1  0  0.040202  0  3.681733  0  0  -0.018894  0  3.945333  0  0  -0.01331  0  3.958435  0  0  -0.065064  -0.022714  0  3.93697  0
C  C45  1  0.05361864  0.53667670  0.63782910  1  0  0.040076  0  3.681985  0  0  -0.018895  0  3.945532  0  0  -0.013314  0  3.958638  0  0  -0.0651  -0.022746  0  3.937178  0
C  C46  1  0.86824722  0.53688636  0.18632963  1  0  0.25465  0  3.792629  0  0  0.237252  0  4.048648  0  0  0.254359  0  4.066769  0  0  0.118075  0.226035  0  4.036179  0
C  C47  1  0.13175613  0.46311580  0.81367330  1  0  0.254723  0  3.792735  0  0  0.237362  0  4.048778  0  0  0.25447  0  4.066897  0  0  0.118127  0.226146  0  4.036309  0
C  C48  1  0.04039748  0.59136487  0.20055438  1  0  -0.299273  0  3.697722  0  0  -0.331154  0  3.964945  0  0  -0.344072  0  3.982858  0  0  -0.118752  -0.322004  0  3.951473  0
C  C49  1  0.95960584  0.40863728  0.79944629  1  0  -0.299395  0  3.697894  0  0  -0.331265  0  3.965106  0  0  -0.344187  0  3.983023  0  0  -0.11882  -0.322115  0  3.951642  0
C  C50  1  0.08092022  0.66604204  0.12617563  1  0  0.287601  0  3.755456  0  0  0.272297  0  4.013251  0  0  0.288589  0  4.028356  0  0  0.094318  0.261506  0  4.003697  0
C  C51  1  0.91908072  0.33396124  0.87382551  1  0  0.287586  0  3.755544  0  0  0.272317  0  4.013358  0  0  0.288599  0  4.028464  0  0  0.094286  0.261518  0  4.003811  0
C  C52  1  0.95723375  0.69685973  0.03603268  1  0  -0.061148  0  3.887169  0  0  -0.048202  0  4.132735  0  0  -0.063729  0  4.162607  0  0  -0.035187  -0.039057  0  4.114136  0
C  C53  1  0.04276737  0.30314467  0.96397010  1  0  -0.06113  0  3.887064  0  0  -0.048193  0  4.132618  0  0  -0.06372  0  4.162493  0  0  -0.035199  -0.039045  0  4.114014  0
C  C54  1  0.78572953  0.64235086  0.02313766  1  0  -0.037593  0  3.722606  0  0  -0.062229  0  3.977932  0  0  -0.055396  0  3.99597  0  0  -0.080023  -0.066294  0  3.966356  0
C  C55  1  0.21427424  0.35765465  0.97686416  1  0  -0.037574  0  3.722505  0  0  -0.062181  0  3.97781  0  0  -0.055351  0  3.995849  0  0  -0.079938  -0.066245  0  3.966232  0
C  C56  1  0.74206177  0.56396991  0.09437713  1  0  -0.178446  0  3.71437  0  0  -0.203777  0  3.982332  0  0  -0.213661  0  4.002292  0  0  -0.105319  -0.198284  0  3.970016  0
C  C57  1  0.25794058  0.43603448  0.90562360  1  0  -0.178431  0  3.71448  0  0  -0.203763  0  3.982425  0  0  -0.213647  0  4.002384  0  0  -0.105358  -0.198271  0  3.97011  0
C  C58  1  0.01082559  0.78119306  0.96840287  1  0  -0.004755  0  3.660593  0  0  -0.045079  0  3.920481  0  0  -0.028175  0  3.93037  0  0  -0.05378  -0.054957  0  3.911725  0
C  C59  1  0.98917454  0.21881357  0.03159846  1  0  -0.004771  0  3.6606  0  0  -0.045043  0  3.920432  0  0  -0.028139  0  3.930324  0  0  -0.053751  -0.054917  0  3.911669  0
C  C60  1  0.18179609  0.82903528  0.98611006  1  0  -0.172563  0  3.84711  0  0  -0.157376  0  4.10537  0  0  -0.176817  0  4.130028  0  0  -0.040478  -0.144576  0  4.087654  0
C  C61  1  0.81820486  0.17096800  0.01389109  1  0  -0.172562  0  3.84702  0  0  -0.157398  0  4.105274  0  0  -0.17684  0  4.129934  0  0  -0.040451  -0.14461  0  4.087567  0
C  C62  1  0.30753097  0.78729762  0.07361056  1  0  0.57214  0  3.845923  0  0  0.519333  0  4.148063  0  0  0.553104  0  4.142948  0  0  0.214529  0.497036  0  4.150548  0
C  C63  1  0.69246543  0.21270007  0.92638778  1  0  0.572065  0  3.846242  0  0  0.519318  0  4.148364  0  0  0.553076  0  4.143249  0  0  0.214437  0.49703  0  4.150842  0
C  C64  1  0.24514128  0.91767887  0.92065552  1  0  0.1014  0  3.694235  0  0  0.062442  0  3.962743  0  0  0.074935  0  3.973221  0  0  0.059309  0.053969  0  3.955774  0
C  C65  1  0.75485921  0.08232106  0.07934447  1  0  0.101375  0  3.694235  0  0  0.06243  0  3.962729  0  0  0.074912  0  3.973199  0  0  0.059315  0.053968  0  3.955751  0
C  C66  1  0.12505462  0.08197534  0.69431516  1  0  0.48029  0  3.838671  0  0  0.432437  0  4.136755  0  0  0.461225  0  4.142166  0  0  0.250364  0.413006  0  4.132617  0
C  C67  1  0.87494660  0.91802012  0.30568827  1  0  0.480297  0  3.838731  0  0  0.432366  0  4.136952  0  0  0.461143  0  4.14238  0  0  0.25029  0.41293  0  4.132827  0
S  S68  1  0.21728031  0.16869957  0.61327269  1  0  -0.284634  0  2.118911  0  0  -0.251206  0  2.481609  0  0  -0.270466  0  2.475683  0  0  -0.103589  -0.238553  0  2.485383  0
S  S69  1  0.78271875  0.83129923  0.38672470  1  0  -0.284637  0  2.119012  0  0  -0.251192  0  2.481786  0  0  -0.270448  0  2.475867  0  0  -0.103551  -0.23854  0  2.485553  0
N  N70  1  0.82502964  0.46328045  0.25858147  1  0  -0.174849  0  3.394289  0  0  -0.078739  0  3.61569  0  0  -0.102368  0  3.643426  0  0  -0.272534  -0.062852  0  3.59688  0
N  N71  1  0.17496736  0.53672172  0.74141816  1  0  -0.17486  0  3.394259  0  0  -0.078923  0  3.615819  0  0  -0.102558  0  3.643558  0  0  -0.272576  -0.063037  0  3.597024  0
N  N72  1  0.14349905  0.96033419  0.83942738  1  0  -0.155999  0  3.033505  0  0  -0.132552  0  3.314031  0  0  -0.139829  0  3.330803  0  0  -0.214757  -0.127951  0  3.303502  0
N  N73  1  0.85650315  0.03966909  0.16057321  1  0  -0.15602  0  3.033376  0  0  -0.132527  0  3.313883  0  0  -0.139808  0  3.330659  0  0  -0.214741  -0.127925  0  3.303356  0
N  N74  1  0.22132618  0.03984609  0.78273843  1  0  -0.309841  0  3.473709  0  0  -0.247402  0  3.719901  0  0  -0.268191  0  3.735042  0  0  -0.296887  -0.233413  0  3.710079  0
N  N75  1  0.77867404  0.96015160  0.21726280  1  0  -0.309784  0  3.473405  0  0  -0.247407  0  3.719687  0  0  -0.268205  0  3.734868  0  0  -0.296905  -0.233423  0  3.709861  0
N  N76  1  0.95760475  0.05525268  0.66901517  1  0  -0.622921  0  3.208928  0  0  -0.579948  0  3.445746  0  0  -0.600867  0  3.442251  0  0  -0.552557  -0.565446  0  3.447441  0
N  N77  1  0.04239294  0.94474501  0.33098564  1  0  -0.622877  0  3.208889  0  0  -0.579855  0  3.445728  0  0  -0.600769  0  3.442237  0  0  -0.552539  -0.565353  0  3.447435  0
Cl  Cl78  1  0.66679613  0.91149301  0.75582823  1  0  -0.459651  0  1.01769  0  0  -0.394289  0  1.292307  0  0  -0.412156  0  1.275419  0  0  -0.244138  -0.381437  0  1.303253  0
Cl  Cl79  1  0.33319712  0.08850021  0.24416691  1  0  -0.459644  0  1.017664  0  0  -0.3943  0  1.292314  0  0  -0.41217  0  1.275424  0  0  -0.244146  -0.381454  0  1.303268  0
Cl  Cl80  1  0.64211706  0.19808957  0.52965319  1  0  -0.514928  0  0.920805  0  0  -0.448749  0  1.173529  0  0  -0.46757  0  1.154848  0  0  -0.297404  -0.43464  0  1.185419  0
Cl  Cl81  1  0.35787948  0.80190924  0.47034528  1  0  -0.514945  0  0.920831  0  0  -0.448768  0  1.173559  0  0  -0.467589  0  1.154879  0  0  -0.297407  -0.434661  0  1.185449  0
O  O82  1  0.25047748  0.71097976  0.14225971  1  0  -0.310593  0  2.363741  0  0  -0.234679  0  2.593612  0  0  -0.254735  0  2.592053  0  0  -0.12849  -0.221354  0  2.594763  0
O  O83  1  0.74952554  0.28902016  0.85774070  1  0  -0.310595  0  2.363722  0  0  -0.23482  0  2.593694  0  0  -0.254851  0  2.592121  0  0  -0.128502  -0.221498  0  2.594849  0
O  O84  1  0.46381929  0.81216743  0.09322276  1  0  -0.57027  0  2.034216  0  0  -0.533123  0  2.281874  0  0  -0.554782  0  2.273479  0  0  -0.299359  -0.517647  0  2.286884  0
O  O85  1  0.53618607  0.18783136  0.90677493  1  0  -0.570152  0  2.03458  0  0  -0.532994  0  2.28221  0  0  -0.554656  0  2.273816  0  0  -0.299269  -0.517523  0  2.287221  0
