# generated using pymatgen
data_ZnH42C39N(ClO3)3
_symmetry_space_group_name_H-M   'P 1'
_cell_length_a   10.78035293
_cell_length_b   18.23053693
_cell_length_c   18.78946301
_cell_angle_alpha   89.97001794
_cell_angle_beta   90.32187363
_cell_angle_gamma   89.27536710
_symmetry_Int_Tables_number   1
_chemical_formula_structural   ZnH42C39N(ClO3)3
_chemical_formula_sum   'Zn2 H84 C78 N2 Cl6 O18'
_cell_volume   3692.36940190
_cell_formula_units_Z   2
loop_
 _symmetry_equiv_pos_site_id
 _symmetry_equiv_pos_as_xyz
  1  'x, y, z'
loop_
 _atom_site_type_symbol
 _atom_site_label
 _atom_site_symmetry_multiplicity
 _atom_site_fract_x
 _atom_site_fract_y
 _atom_site_fract_z
 _atom_site_occupancy
 _atom_site_pbe_bader_charge
 _atom_site_pbe_bader_spin_density
 _atom_site_pbe_cm5_charge
 _atom_site_pbe_ddec_charge
 _atom_site_pbe_ddec_spin_density
 _atom_site_pbe_ddec_sum_bond_order
 _atom_site_pbe_magmom
Zn  Zn0  1  0.48437005  0.42038970  0.50479847  1  1.277921  0  0.683889  0.829283  0  2.46596  0
Zn  Zn1  1  0.47808048  0.57556421  0.49833378  1  1.273499  0  0.684269  0.832195  0  2.382351  0
H  H2  1  0.44212118  0.31137324  0.39883144  1  0.113652  0  0.120227  0.112446  0  1.029704  0
H  H3  1  0.55676323  0.58379853  0.87190951  1  0.080912  0  0.110744  0.128408  0  0.982318  0
H  H4  1  0.63711635  0.40406987  0.31350738  1  0.106055  0  0.109103  0.13059  0  1.002276  0
H  H5  1  0.70203904  0.40518187  0.69083709  1  0.107644  0  0.113626  0.133372  0  0.978603  0
H  H6  1  0.57667830  0.38502557  0.06652826  1  0.055278  0  0.10048  0.109783  0  0.992249  0
H  H7  1  0.59590713  0.38332425  0.93464140  1  0.073313  0  0.099707  0.106622  0  1.00055  0
H  H8  1  0.77252627  0.60353521  0.36780019  1  0.054754  0  0.096872  0.068114  0  1.007397  0
H  H9  1  0.92238826  0.64416252  0.35783639  1  0.029358  0  0.091286  0.049365  0  0.994908  0
H  H10  1  0.69327824  0.72278841  0.41805056  1  0.027666  0  0.088235  0.084789  0  1.012013  0
H  H11  1  0.83786901  0.76353208  0.39978756  1  0.007608  0  0.084919  0.072961  0  0.981998  0
H  H12  1  0.80624747  0.73493911  0.26758791  1  0.012073  0  0.082346  0.10642  0  1.027099  0
H  H13  1  0.51003943  0.30380057  0.61492519  1  0.110017  0  0.118214  0.108253  0  1.029464  0
H  H14  1  0.68509633  0.79145172  0.30160868  1  0.00357  0  0.085852  0.115597  0  0.998459  0
H  H15  1  0.66026584  0.69651422  0.28817824  1  0.034257  0  0.079178  0.107646  0  1.035802  0
H  H16  1  0.13578527  0.62886239  0.60587973  1  0.071095  0  0.09524  0.06042  0  0.997232  0
H  H17  1  0.99183437  0.67337082  0.58161143  1  0.021284  0  0.090024  0.046764  0  0.999121  0
H  H18  1  0.25237241  0.73121783  0.55212519  1  0.028386  0  0.089903  0.088133  0  1.004313  0
H  H19  1  0.11173662  0.77617097  0.52771887  1  0.005282  0  0.08704  0.076119  0  0.984971  0
H  H20  1  0.05309410  0.78539385  0.65826441  1  -0.001152  0  0.079528  0.098392  0  1.028885  0
H  H21  1  0.19697305  0.82854216  0.64191825  1  0.028312  0  0.086221  0.114612  0  1.003891  0
H  H22  1  0.19428850  0.74029797  0.68188746  1  0.025498  0  0.083992  0.111802  0  1.011066  0
H  H23  1  0.35139632  0.16526640  0.27986533  1  0.068239  0  0.10821  0.076945  0  0.961345  0
H  H24  1  0.67892135  0.93377731  0.52421877  1  0.073568  0  0.103042  0.119597  0  1.042054  0
H  H25  1  0.41398825  0.25069937  0.30610654  1  0.04869  0  0.101348  0.064907  0  0.980173  0
H  H26  1  0.17325491  0.18307861  0.36249426  1  0.011232  0  0.091218  0.088266  0  0.998856  0
H  H27  1  0.23352577  0.26666678  0.39266732  1  0.06206  0  0.091315  0.090629  0  1.002001  0
H  H28  1  0.21131240  0.32105421  0.26959936  1  0.009967  0  0.087017  0.113723  0  0.999166  0
H  H29  1  0.06751676  0.28969891  0.30234619  1  0.070934  0  0.088906  0.121201  0  1.002388  0
H  H30  1  0.14938050  0.23703571  0.23807878  1  0.02842  0  0.082312  0.104207  0  1.008334  0
H  H31  1  0.42074518  0.14195892  0.72308928  1  0.045208  0  0.10683  0.07586  0  0.953283  0
H  H32  1  0.39179609  0.22882808  0.68258538  1  0.022336  0  0.101242  0.061093  0  0.99503  0
H  H33  1  0.63859377  0.17464286  0.74818412  1  0.042878  0  0.092929  0.08829  0  0.97198  0
H  H34  1  0.61898764  0.26036172  0.70567042  1  0.043753  0  0.091112  0.085017  0  0.994897  0
H  H35  1  0.28829103  0.92812363  0.47517352  1  0.085988  0  0.100444  0.108686  0  1.063809  0
H  H36  1  0.45761801  0.29830963  0.79510301  1  0.053461  0  0.086945  0.116151  0  0.997355  0
H  H37  1  0.59821803  0.27303798  0.83874436  1  0.053781  0  0.080808  0.110582  0  1.033236  0
H  H38  1  0.47163030  0.21153146  0.83777933  1  0.008055  0  0.084382  0.108349  0  1.004499  0
H  H39  1  0.71986591  0.01300701  0.62092023  1  0.064113  0  0.099381  0.063209  0  0.986161  0
H  H40  1  0.77722797  0.10424751  0.62458224  1  0.042003  0  0.099976  0.066405  0  0.974012  0
H  H41  1  0.88265929  0.98195086  0.52908710  1  0.019884  0  0.085802  0.078542  0  0.984392  0
H  H42  1  0.93399388  0.07368969  0.53235281  1  0.039689  0  0.083064  0.075744  0  1.036176  0
H  H43  1  0.99435659  0.05834491  0.66129882  1  0.040798  0  0.085409  0.112623  0  1.003291  0
H  H44  1  0.07160739  0.99227879  0.60790655  1  0.046612  0  0.086472  0.116976  0  1.006738  0
H  H45  1  0.94232953  0.96623608  0.65977689  1  0.023194  0  0.080067  0.101504  0  1.015194  0
H  H46  1  0.37163542  0.69122044  0.40714395  1  0.132315  0  0.123748  0.116802  0  1.007521  0
H  H47  1  0.08231891  0.08331445  0.44540706  1  0.081031  0  0.100409  0.065678  0  1.006741  0
H  H48  1  0.12724819  0.99396425  0.47380235  1  0.034375  0  0.094622  0.054175  0  0.999084  0
H  H49  1  0.20656388  0.06624851  0.33361073  1  0.028989  0  0.094186  0.092593  0  0.991246  0
H  H50  1  0.24471801  0.97580305  0.35927308  1  0.039912  0  0.092042  0.09017  0  1.004893  0
H  H51  1  0.01294079  0.94576266  0.36105610  1  0.009707  0  0.081465  0.100515  0  1.026483  0
H  H52  1  0.06202170  0.97511355  0.27591237  1  0.049056  0  0.089488  0.11904  0  0.997149  0
H  H53  1  0.97901443  0.03638541  0.33215000  1  0.017118  0  0.089279  0.11823  0  0.995434  0
H  H54  1  0.16231513  0.85146782  0.39911386  1  0.032789  0  0.096158  0.055262  0  0.995617  0
H  H55  1  0.21159670  0.75814875  0.40126631  1  0.070067  0  0.106796  0.072239  0  1.005446  0
H  H56  1  0.23744253  0.86170020  0.27333044  1  0.019939  0  0.095249  0.091224  0  0.972893  0
H  H57  1  0.60569230  0.68632771  0.58136965  1  0.146012  0  0.12299  0.117101  0  1.024863  0
H  H58  1  0.28219238  0.76821471  0.27480786  1  0.014903  0  0.087258  0.086119  0  0.999852  0
H  H59  1  0.05753117  0.73363671  0.29915165  1  0.037161  0  0.087496  0.114227  0  1.023171  0
H  H60  1  0.07252416  0.78144159  0.21757226  1  -0.011874  0  0.091033  0.121283  0  0.997118  0
H  H61  1  0.01396511  0.82757609  0.29364230  1  0.027947  0  0.085773  0.108474  0  1.023861  0
H  H62  1  0.80037261  0.83337077  0.64304672  1  0.056984  0  0.105328  0.072677  0  0.969158  0
H  H63  1  0.76696557  0.74908460  0.59967735  1  0.037486  0  0.105023  0.069254  0  0.990883  0
H  H64  1  0.64406026  0.81042411  0.73507645  1  0.026009  0  0.093352  0.091161  0  0.964678  0
H  H65  1  0.59585551  0.72931276  0.69246794  1  0.052067  0  0.083949  0.076382  0  1.03717  0
H  H66  1  0.80625272  0.67123325  0.71244057  1  0.033491  0  0.086971  0.114238  0  1.002041  0
H  H67  1  0.73912613  0.69933562  0.79407776  1  0.021786  0  0.090407  0.125098  0  0.999927  0
H  H68  1  0.77272800  0.36021675  0.44783152  1  0.128562  0  0.108106  0.133815  0  1.010728  0
H  H69  1  0.85799759  0.75238654  0.75522091  1  0.030651  0  0.084063  0.106083  0  1.011034  0
H  H70  1  0.85938260  0.57474759  0.83072074  1  0.044547  0  0.09237  0.055744  0  1.010718  0
H  H71  1  0.95017051  0.52000357  0.89058954  1  0.032785  0  0.095327  0.058432  0  0.984868  0
H  H72  1  0.96625634  0.68730577  0.87353650  1  0.011814  0  0.091674  0.085268  0  0.976669  0
H  H73  1  0.05785990  0.63382400  0.93253396  1  0.018478  0  0.091985  0.085032  0  0.973906  0
H  H74  1  0.15394289  0.56642595  0.82807294  1  0.009045  0  0.084326  0.112113  0  1.004929  0
H  H75  1  0.17553412  0.66214274  0.82035963  1  -0.002514  0  0.082279  0.108898  0  1.01924  0
H  H76  1  0.06020300  0.61856775  0.76829246  1  0.023542  0  0.084144  0.110789  0  1.011605  0
H  H77  1  0.99425815  0.57465028  0.06996343  1  0.039529  0  0.093504  0.055483  0  0.973396  0
H  H78  1  0.91808875  0.51062883  0.12637638  1  0.054782  0  0.090783  0.047913  0  1.012409  0
H  H79  1  0.19486272  0.36528590  0.55223561  1  0.139149  0  0.108609  0.135681  0  1.017547  0
H  H80  1  0.95827501  0.67278300  0.16214105  1  0.026006  0  0.090702  0.083293  0  0.980947  0
H  H81  1  0.88136093  0.60850732  0.21623412  1  0.03736  0  0.09215  0.088088  0  0.983726  0
H  H82  1  0.07907419  0.53079950  0.22290047  1  0.031201  0  0.086324  0.117311  0  0.995118  0
H  H83  1  0.10354417  0.61993107  0.25687255  1  0.031358  0  0.081669  0.108243  0  1.035281  0
H  H84  1  0.15678150  0.59704690  0.17077529  1  0.031726  0  0.078812  0.103248  0  1.023666  0
H  H85  1  0.53842431  0.59285275  0.13258495  1  0.07203  0  0.109511  0.127436  0  0.984749  0
C  C86  1  0.53903997  0.50049416  0.63553528  1  1.619619  0  0.212081  0.603193  0  4.199809  0
C  C87  1  0.58688521  0.50004332  0.71071660  1  0.059895  0  -0.014377  -0.062822  0  3.956959  0
C  C88  1  0.62901482  0.42725992  0.03921415  1  -0.052002  0  -0.105021  -0.140449  0  4.049249  0
C  C89  1  0.64062288  0.42612915  0.96577472  1  -0.032286  0  -0.099654  -0.123492  0  4.042667  0
C  C90  1  0.70039608  0.48298597  0.92965386  1  0.029753  0  -0.029023  -0.042539  0  4.052995  0
C  C91  1  0.67781634  0.48571605  0.07846836  1  0.039989  0  -0.020999  -0.019591  0  4.045293  0
C  C92  1  0.76073718  0.53780591  0.96908874  1  0.454045  0  0.077252  0.111767  0  4.050171  0
C  C93  1  0.74834833  0.53897546  0.04391595  1  0.538365  0  0.072196  0.108073  0  4.045296  0
C  C94  1  0.45438447  0.27588544  0.44495177  1  0.549797  0  0.01919  -0.075558  0  3.966992  0
C  C95  1  0.49415379  0.27163794  0.56705315  1  0.469702  0  0.014953  -0.084033  0  3.979345  0
C  C96  1  0.44759196  0.19943649  0.44091992  1  0.483648  0  0.095521  0.19469  0  4.060599  0
C  C97  1  0.47624856  0.49696410  0.36440039  1  1.605834  0  0.208987  0.597948  0  4.185849  0
C  C98  1  0.49057971  0.19500040  0.56683902  1  0.485435  0  0.093744  0.189619  0  4.068354  0
C  C99  1  0.47112309  0.15719327  0.50238237  1  0.122539  0  -0.001422  -0.059341  0  3.954918  0
C  C100  1  0.71430379  0.49936647  0.47753088  1  1.561415  0  0.211818  0.595956  0  4.166937  0
C  C101  1  0.24845866  0.50303260  0.51714687  1  1.587096  0  0.216354  0.606656  0  4.156936  0
C  C102  1  0.58485249  0.03814658  0.51701135  1  0.50678  0  0.084203  0.23568  0  4.07  0
C  C103  1  0.36755137  0.03538872  0.48455700  1  0.404738  0  0.086459  0.24128  0  4.056769  0
C  C104  1  0.59091388  0.96166036  0.51470472  1  -0.026334  0  -0.11909  -0.285404  0  3.999179  0
C  C105  1  0.37179446  0.95893481  0.48555741  1  0.008244  0  -0.121276  -0.292242  0  4.007238  0
C  C106  1  0.48407472  0.92137368  0.49933609  1  0.071297  0  -0.01056  0.140514  0  4.027354  0
C  C107  1  0.47419893  0.07629549  0.50061395  1  0.116789  0  -0.02389  -0.107615  0  3.96935  0
C  C108  1  0.64205430  0.49366706  0.15403840  1  0.029404  0  -0.002479  0.054523  0  3.990614  0
C  C109  1  0.41782030  0.80023891  0.44649978  1  0.425457  0  0.093083  0.186039  0  4.054203  0
C  C110  1  0.56207533  0.79772433  0.54489170  1  0.522301  0  0.095379  0.191399  0  4.04328  0
C  C111  1  0.42114359  0.72358781  0.44659425  1  0.598317  0  0.027906  -0.066012  0  3.977875  0
C  C112  1  0.55584165  0.72120672  0.54365994  1  0.450467  0  0.020132  -0.082577  0  3.972875  0
C  C113  1  0.48816486  0.84027119  0.49684009  1  0.003426  0  -0.001842  -0.091626  0  3.893947  0
C  C114  1  0.86488900  0.36248449  0.47105908  1  0.09848  0  -0.098662  -0.181843  0  3.966324  0
C  C115  1  0.10271262  0.36544279  0.52891901  1  0.142301  0  -0.098911  -0.1847  0  3.959027  0
C  C116  1  0.92501175  0.29757327  0.48758463  1  0.011214  0  -0.000684  0.077624  0  4.090737  0
C  C117  1  0.04351442  0.29943220  0.52062996  1  -0.007017  0  0.000124  0.077904  0  4.089796  0
C  C118  1  0.04636646  0.43287513  0.50743258  1  -0.08959  0  -0.003039  0.077647  0  3.957497  0
C  C119  1  0.67512030  0.49012425  0.85237161  1  -0.015409  0  -0.007947  0.039337  0  4.018395  0
C  C120  1  0.92012358  0.43149709  0.48409800  1  0.019554  0  -0.003451  0.078227  0  3.971026  0
C  C121  1  0.85261744  0.49923384  0.47364219  1  -0.020581  0  -0.020606  -0.173337  0  3.913438  0
C  C122  1  0.10999412  0.50191624  0.51039469  1  0.001261  0  -0.01451  -0.15889  0  3.890216  0
C  C123  1  0.91659558  0.56529749  0.47510871  1  0.598941  0  0.08858  0.148933  0  4.041262  0
C  C124  1  0.04477028  0.56651691  0.49505310  1  0.50617  0  0.087359  0.145761  0  4.035264  0
C  C125  1  0.50754773  0.55609163  0.23965888  1  0.02377  0  0.019005  0.133376  0  4.023437  0
C  C126  1  0.54813794  0.55105861  0.76199279  1  -0.032258  0  0.015206  0.124914  0  4.044122  0
C  C127  1  0.56184067  0.55156728  0.17254408  1  0.015102  0  -0.089948  -0.189015  0  3.955521  0
C  C128  1  0.59149256  0.54582239  0.83172073  1  0.112934  0  -0.091164  -0.191142  0  3.969417  0
C  C129  1  0.83455422  0.64638396  0.38789666  1  0.413586  0  -0.067937  0.042596  0  3.869937  0
C  C130  1  0.67204914  0.44194641  0.20692508  1  -0.000706  0  0.008294  0.092583  0  4.037425  0
C  C131  1  0.77275844  0.72122892  0.38169812  1  0.021213  0  -0.169925  -0.121997  0  3.974587  0
C  C132  1  0.72902395  0.73688272  0.30556324  1  -0.043467  0  -0.245219  -0.353168  0  3.967033  0
C  C133  1  0.09078392  0.66661238  0.56748904  1  0.413546  0  -0.068767  0.040541  0  3.888294  0
C  C134  1  0.15528539  0.73992300  0.56785967  1  -0.001433  0  -0.169605  -0.124157  0  3.969564  0
C  C135  1  0.14953287  0.77555883  0.64144872  1  -0.046827  0  -0.242875  -0.348198  0  3.974086  0
C  C136  1  0.35661701  0.20458537  0.32405181  1  0.378706  0  -0.061548  0.027225  0  3.885008  0
C  C137  1  0.22724841  0.23079672  0.34581109  1  -0.014079  0  -0.172841  -0.147045  0  3.970212  0
C  C138  1  0.16050288  0.27179530  0.28549933  1  -0.091963  0  -0.241982  -0.346873  0  3.973658  0
C  C139  1  0.46404468  0.18688134  0.69341403  1  0.429014  0  -0.061834  0.03263  0  3.886446  0
C  C140  1  0.57032645  0.21857841  0.73680009  1  -0.024607  0  -0.170105  -0.141753  0  3.987766  0
C  C141  1  0.71606746  0.44038783  0.80028812  1  0.028232  0  0.010289  0.089679  0  4.04402  0
C  C142  1  0.52173799  0.25219236  0.80600474  1  -0.109232  0  -0.24446  -0.351772  0  3.975889  0
C  C143  1  0.76673205  0.05583359  0.59005181  1  0.410054  0  -0.06564  0.040403  0  3.876996  0
C  C144  1  0.89342197  0.02971201  0.56440409  1  -0.020663  0  -0.174395  -0.145494  0  3.990553  0
C  C145  1  0.97991250  0.01050391  0.62669506  1  -0.11385  0  -0.243836  -0.349564  0  3.976586  0
C  C146  1  0.15567471  0.04116552  0.44108275  1  0.389953  0  -0.066317  0.034242  0  3.890936  0
C  C147  1  0.17255124  0.01874248  0.36347321  1  -0.019175  0  -0.172846  -0.151987  0  3.969302  0
C  C148  1  0.05013971  0.99261602  0.33141427  1  -0.070003  0  -0.241696  -0.348727  0  3.976479  0
C  C149  1  0.22939992  0.81160920  0.37648806  1  0.362215  0  -0.061376  0.032087  0  3.870989  0
C  C150  1  0.21447090  0.80799508  0.29624017  1  0.042643  0  -0.168354  -0.134782  0  3.981946  0
C  C151  1  0.08244641  0.78658254  0.27553604  1  -0.030071  0  -0.241592  -0.354232  0  3.962666  0
C  C152  1  0.61639426  0.44547615  0.27329868  1  0.086814  0  -0.090784  -0.151189  0  3.973605  0
C  C153  1  0.72697910  0.79317999  0.63289117  1  0.39906  0  -0.061374  0.031555  0  3.876293  0
C  C154  1  0.67687517  0.76379781  0.70277064  1  -0.011856  0  -0.17224  -0.145332  0  3.986527  0
C  C155  1  0.77567673  0.71936656  0.74330840  1  -0.068541  0  -0.242388  -0.350844  0  3.962109  0
C  C156  1  0.91056653  0.57535906  0.88164418  1  0.402015  0  -0.068426  0.03371  0  3.879578  0
C  C157  1  0.01094074  0.63308685  0.88034179  1  0.030017  0  -0.166686  -0.125425  0  3.977806  0
C  C158  1  0.10497189  0.61922568  0.82104451  1  -0.012104  0  -0.245565  -0.357924  0  3.987918  0
C  C159  1  0.92339831  0.56918254  0.11189153  1  0.360271  0  -0.067213  0.046611  0  3.882523  0
C  C160  1  0.95586778  0.61435426  0.17688574  1  0.010967  0  -0.169756  -0.132858  0  3.983712  0
C  C161  1  0.08038274  0.58925971  0.20844946  1  -0.087445  0  -0.247699  -0.360906  0  3.990242  0
C  C162  1  0.67162215  0.44489629  0.73064457  1  0.03548  0  -0.086264  -0.15166  0  3.961537  0
C  C163  1  0.53099154  0.50128089  0.29087077  1  0.053481  0  -0.018414  -0.075356  0  3.928474  0
N  N164  1  0.47825317  0.30986885  0.50659864  1  -1.246725  0  -0.338442  -0.16826  0  3.664956  0
N  N165  1  0.48641241  0.68604790  0.49538855  1  -1.266369  0  -0.336386  -0.164297  0  3.663019  0
Cl  Cl166  1  0.85297114  0.21543180  0.46962712  1  -0.204636  0  -0.004192  -0.06951  0  1.56332  0
Cl  Cl167  1  0.11635049  0.21945095  0.54913044  1  -0.212566  0  -0.003774  -0.072141  0  1.561664  0
Cl  Cl168  1  0.40780033  0.62985491  0.25403385  1  -0.216206  0  0.007262  -0.075324  0  1.582567  0
Cl  Cl169  1  0.43758327  0.61797065  0.74197395  1  -0.217573  0  0.007057  -0.067249  0  1.515767  0
Cl  Cl170  1  0.77929209  0.37224467  0.19037294  1  -0.222326  0  -0.02441  -0.103469  0  1.450469  0
Cl  Cl171  1  0.82244707  0.37173680  0.82213948  1  -0.223335  0  -0.013668  -0.09533  0  1.47154  0
O  O172  1  0.49184090  0.44090681  0.61425451  1  -1.162404  0  -0.316051  -0.54141  0  2.285931  0
O  O173  1  0.09839822  0.63438920  0.49717158  1  -1.051954  0  -0.20433  -0.224017  0  2.53083  0
O  O174  1  0.42082813  0.16355954  0.37946762  1  -1.063003  0  -0.180914  -0.197839  0  2.533552  0
O  O175  1  0.50212027  0.15373940  0.62702765  1  -1.063563  0  -0.179938  -0.198603  0  2.542232  0
O  O176  1  0.68658003  0.07979089  0.53236822  1  -1.072992  0  -0.193976  -0.222998  0  2.546464  0
O  O177  1  0.26202334  0.07582301  0.47203125  1  -1.064661  0  -0.184549  -0.209901  0  2.579995  0
O  O178  1  0.35193374  0.83732641  0.39536958  1  -1.070205  0  -0.186375  -0.208574  0  2.553665  0
O  O179  1  0.63501077  0.83398878  0.59216074  1  -1.076077  0  -0.17664  -0.193198  0  2.571016  0
O  O180  1  0.82729132  0.59332076  0.93945633  1  -1.07434  0  -0.193603  -0.209034  0  2.550561  0
O  O181  1  0.80444447  0.59307901  0.08323525  1  -1.056273  0  -0.209639  -0.232248  0  2.505483  0
O  O182  1  0.48999284  0.43467063  0.39441302  1  -1.176672  0  -0.318195  -0.55265  0  2.349449  0
O  O183  1  0.55256353  0.55918019  0.60024360  1  -1.16021  0  -0.310777  -0.547125  0  2.337443  0
O  O184  1  0.42669108  0.55372760  0.39196945  1  -1.161169  0  -0.322054  -0.552784  0  2.320506  0
O  O185  1  0.66673168  0.44289688  0.50634833  1  -1.161201  0  -0.31411  -0.537566  0  2.393774  0
O  O186  1  0.30348375  0.44412120  0.49811923  1  -1.165638  0  -0.310038  -0.532757  0  2.419505  0
O  O187  1  0.65302153  0.55572639  0.45783111  1  -1.15269  0  -0.301898  -0.525539  0  2.387482  0
O  O188  1  0.30321250  0.56119692  0.53642381  1  -1.153398  0  -0.309547  -0.532752  0  2.346879  0
O  O189  1  0.86287085  0.63234778  0.46233095  1  -1.072122  0  -0.198906  -0.222279  0  2.561751  0
