# generated using pymatgen
data_CuH16C10(NO3)2
_symmetry_space_group_name_H-M   'P 1'
_cell_length_a   5.41516569
_cell_length_b   8.57430784
_cell_length_c   13.27143654
_cell_angle_alpha   90.00028381
_cell_angle_beta   98.40843032
_cell_angle_gamma   89.99980662
_symmetry_Int_Tables_number   1
_chemical_formula_structural   CuH16C10(NO3)2
_chemical_formula_sum   'Cu2 H32 C20 N4 O12'
_cell_volume   609.58627283
_cell_formula_units_Z   2
loop_
 _symmetry_equiv_pos_site_id
 _symmetry_equiv_pos_as_xyz
  1  'x, y, z'
loop_
 _atom_site_type_symbol
 _atom_site_label
 _atom_site_symmetry_multiplicity
 _atom_site_fract_x
 _atom_site_fract_y
 _atom_site_fract_z
 _atom_site_occupancy
 _atom_site_hle17_ddec_charge
 _atom_site_hle17_ddec_spin_density
 _atom_site_hle17_ddec_sum_bond_order
 _atom_site_hle17_magmom
 _atom_site_hse06_10hf_ddec_charge
 _atom_site_hse06_10hf_ddec_spin_density
 _atom_site_hse06_10hf_ddec_sum_bond_order
 _atom_site_hse06_10hf_magmom
 _atom_site_hse06_ddec_charge
 _atom_site_hse06_ddec_spin_density
 _atom_site_hse06_ddec_sum_bond_order
 _atom_site_hse06_magmom
 _atom_site_pbe_cm5_charge
 _atom_site_pbe_ddec_charge
 _atom_site_pbe_ddec_spin_density
 _atom_site_pbe_ddec_sum_bond_order
 _atom_site_pbe_magmom
Cu  Cu0  1  0.49999353  0.46700726  0.25000360  1  0.876785  0.676685  1.726093  0.505  0.861598  0.770785  2.101643  0.621  0.94551  0.829402  2.040251  0.698  0.710793  0.809949  0.732046  2.144397  0.573
Cu  Cu1  1  0.50000398  0.53299466  0.74999899  1  0.876795  0.67667  1.726056  0.505  0.861523  0.770777  2.101675  0.621  0.94545  0.829402  2.040271  0.698  0.710746  0.809796  0.732035  2.144523  0.573
H  H2  1  0.02477477  0.40347640  0.34017035  1  0.39813  -0.00025  0.904868  0.0  0.374004  -0.000149  0.969597  0.0  0.383316  -0.000156  0.955887  0.0  0.287031  0.367364  -0.000126  0.979436  0.0
H  H3  1  0.97523195  0.40347948  0.15982979  1  0.398087  -0.000248  0.904874  0.0  0.373958  -0.000149  0.969656  0.0  0.383269  -0.000156  0.955949  0.0  0.287005  0.36732  -0.000126  0.979492  0.0
H  H4  1  0.97522492  0.59652086  0.65982863  1  0.398155  -0.000246  0.904793  0.0  0.374035  -0.000149  0.96954  0.0  0.383346  -0.000157  0.955832  0.0  0.28705  0.367394  -0.000126  0.979381  0.0
H  H5  1  0.02477893  0.59651895  0.84017001  1  0.398008  -0.000248  0.905028  0.0  0.373954  -0.000149  0.969618  0.0  0.383265  -0.000157  0.955911  0.0  0.287009  0.367325  -0.000126  0.979437  0.0
H  H6  1  0.28296898  0.42758565  0.40871545  1  0.404299  -0.000184  0.910019  0.0  0.370073  -0.000178  0.98195  0.0  0.381096  -0.000191  0.965625  0.0  0.278031  0.362295  -0.000149  0.993474  0.0
H  H7  1  0.71703146  0.42759103  0.09129110  1  0.404282  -0.000184  0.910043  0.0  0.37011  -0.000178  0.981903  0.0  0.381131  -0.000191  0.965582  0.0  0.278054  0.362337  -0.000148  0.993424  0.0
H  H8  1  0.71702673  0.57241044  0.59128626  1  0.404322  -0.000185  0.909977  0.0  0.370112  -0.000178  0.981901  0.0  0.381133  -0.000191  0.965579  0.0  0.278038  0.362337  -0.000149  0.993419  0.0
H  H9  1  0.28297930  0.57241089  0.90871020  1  0.404335  -0.000185  0.909973  0.0  0.370129  -0.000178  0.981884  0.0  0.38115  -0.00019  0.965562  0.0  0.278052  0.362356  -0.000148  0.993404  0.0
H  H10  1  0.58395838  0.65026804  0.40399434  1  0.312477  -0.000968  0.913783  -0.001  0.301099  0.000402  0.973142  0.0  0.308472  8.4e-05  0.968863  0.0  0.293347  0.29581  0.000627  0.976519  0.001
H  H11  1  0.41605100  0.65026470  0.09600531  1  0.312474  -0.000976  0.913784  -0.001  0.301137  0.000402  0.973117  0.0  0.30851  8.6e-05  0.968838  0.0  0.293381  0.295848  0.000628  0.97651  0.001
H  H12  1  0.41604311  0.34972922  0.59600553  1  0.312471  -0.000973  0.913773  -0.001  0.301096  0.000401  0.973145  0.0  0.308471  8.4e-05  0.968865  0.0  0.293337  0.295806  0.000627  0.976521  0.001
H  H13  1  0.58395995  0.34973139  0.90399375  1  0.312505  -0.000975  0.913758  -0.001  0.301134  0.000402  0.973107  0.0  0.308509  8.6e-05  0.968826  0.0  0.293342  0.295843  0.000628  0.976499  0.001
H  H14  1  0.85329095  0.61387984  0.36096873  1  0.312929  -0.001633  0.907505  -0.002  0.30461  2.9e-05  0.962819  -0.001  0.311781  -0.000239  0.958525  -0.001  0.291803  0.299354  0.000269  0.966481  0.0
H  H15  1  0.14670747  0.61387851  0.13902924  1  0.312928  -0.001634  0.907493  -0.002  0.304631  3e-05  0.962807  -0.001  0.311804  -0.000239  0.958512  -0.001  0.291794  0.29938  0.000269  0.966478  0.0
H  H16  1  0.14670681  0.38611741  0.63903086  1  0.31291  -0.001638  0.907489  -0.002  0.304597  2.9e-05  0.962804  -0.001  0.311769  -0.000238  0.958509  -0.001  0.291782  0.29934  0.000269  0.966472  0.0
H  H17  1  0.85329981  0.38611875  0.86096879  1  0.312945  -0.001636  0.907548  -0.002  0.304562  3e-05  0.962948  -0.001  0.311735  -0.000238  0.958654  -0.001  0.291766  0.299305  0.000269  0.966628  0.0
H  H18  1  0.66868188  0.88949514  0.32637102  1  0.057235  0.003168  0.952332  0.005  0.073017  0.002104  1.015049  0.003  0.071714  0.001441  1.017161  0.002  0.098443  0.073955  0.002589  1.012895  0.003
H  H19  1  0.33132273  0.88949955  0.17362757  1  0.057238  0.003172  0.952397  0.005  0.072998  0.002103  1.0151  0.003  0.071687  0.001439  1.017219  0.002  0.098445  0.073931  0.002588  1.012949  0.003
H  H20  1  0.33131762  0.11050212  0.67363021  1  0.057257  0.003174  0.952392  0.005  0.073048  0.002104  1.015081  0.003  0.071744  0.00144  1.017198  0.002  0.098456  0.073982  0.002589  1.012928  0.003
H  H21  1  0.66868654  0.11049771  0.82636910  1  0.057191  0.003174  0.952402  0.005  0.072975  0.002104  1.01512  0.003  0.071665  0.00144  1.017237  0.002  0.098436  0.073906  0.002588  1.012969  0.003
H  H22  1  0.76717776  0.78360390  0.22437623  1  0.068041  -9.4e-05  0.931874  0.0  0.087601  -0.000105  0.990487  0.0  0.086938  -9.1e-05  0.991924  0.0  0.108033  0.08766  -0.000119  0.989998  0.0
H  H23  1  0.23282718  0.78360227  0.27562429  1  0.06807  -8.8e-05  0.931886  0.0  0.087583  -0.000105  0.990514  0.0  0.086919  -9.1e-05  0.991943  0.0  0.108043  0.087647  -0.000119  0.990016  0.0
H  H24  1  0.23282914  0.21639453  0.77562630  1  0.068073  -9e-05  0.931879  0.0  0.087607  -0.000105  0.990501  0.0  0.086945  -9.1e-05  0.991938  0.0  0.108058  0.087669  -0.000119  0.990009  0.0
H  H25  1  0.76717277  0.21639732  0.72437170  1  0.068115  -8.8e-05  0.931816  0.0  0.087629  -0.000105  0.990465  0.0  0.086963  -9.1e-05  0.991898  0.0  0.108064  0.08769  -0.00012  0.989971  0.0
H  H26  1  0.36192443  0.08426300  0.91912139  1  0.089199  -4.8e-05  0.981015  0.0  0.098659  -3.4e-05  1.047351  0.0  0.101667  -2.6e-05  1.046077  0.0  0.102819  0.096629  -2e-05  1.048103  0.0
H  H27  1  0.63808276  0.08426145  0.58088786  1  0.089228  -5.2e-05  0.980968  0.0  0.098673  -3.4e-05  1.04733  0.0  0.101668  -2.6e-05  1.046065  0.0  0.102814  0.096638  -2e-05  1.048081  0.0
H  H28  1  0.63806574  0.91574592  0.08087916  1  0.089232  -5.5e-05  0.98098  0.0  0.098656  -3.4e-05  1.047363  0.0  0.101659  -2.7e-05  1.046084  0.0  0.102835  0.096629  -2e-05  1.048109  0.0
H  H29  1  0.36190574  0.91574163  0.41911030  1  0.089264  -5.2e-05  0.980985  0.0  0.098738  -3.4e-05  1.047311  0.0  0.101686  -2.6e-05  1.046109  0.0  0.102837  0.096703  -2e-05  1.048065  0.0
H  H30  1  0.90656540  0.13488292  0.15616195  1  0.105272  0.0003  0.949612  0.0  0.114233  0.000296  1.012154  0.0  0.117627  0.000199  1.009745  0.0  0.106848  0.111847  0.000366  1.01373  0.0
H  H31  1  0.09340164  0.13487507  0.34383364  1  0.105317  0.000297  0.949579  0.0  0.114252  0.000296  1.012131  0.0  0.117648  0.000199  1.009721  0.0  0.106846  0.111853  0.000366  1.013735  0.0
H  H32  1  0.09342644  0.86512833  0.84384098  1  0.105298  0.000295  0.949712  0.0  0.114232  0.000296  1.012265  0.0  0.117628  0.000199  1.009853  0.0  0.106868  0.111836  0.000366  1.013862  0.0
H  H33  1  0.90659052  0.86512685  0.65616555  1  0.105344  0.000298  0.94956  0.0  0.114281  0.000296  1.012119  0.0  0.117676  0.000199  1.009708  0.0  0.10685  0.111879  0.000366  1.013716  0.0
C  C34  1  0.63233294  0.78469936  0.27868639  1  0.044654  -0.003267  3.647556  -0.004  -0.010072  0.000229  3.91915  -0.001  -0.004814  -0.000781  3.933199  -0.001  -0.076464  -0.013201  0.000985  3.909428  0.0
C  C35  1  0.36767759  0.78470056  0.22131454  1  0.044539  -0.003322  3.647486  -0.004  -0.010045  0.000231  3.919041  -0.001  -0.004763  -0.000777  3.933068  -0.001  -0.07651  -0.013168  0.000985  3.909318  0.0
C  C36  1  0.36767042  0.21529906  0.72131361  1  0.044533  -0.003307  3.647589  -0.004  -0.010136  0.000229  3.919195  -0.001  -0.00488  -0.000779  3.933247  -0.001  -0.076514  -0.013266  0.000985  3.909465  0.0
C  C37  1  0.63232782  0.21529669  0.77868335  1  0.044674  -0.003318  3.647354  -0.004  -0.01003  0.00023  3.919016  -0.001  -0.004745  -0.000778  3.933039  -0.001  -0.076504  -0.013149  0.000985  3.909281  0.0
C  C38  1  0.31965881  0.25460016  0.08495114  1  0.649608  -0.005111  3.875003  -0.005  0.601128  -0.001348  4.171727  -0.002  0.637856  -0.001776  4.163164  -0.002  0.214219  0.576106  -0.001045  4.176649  -0.002
C  C39  1  0.68033070  0.25459757  0.41506082  1  0.649893  -0.005076  3.875087  -0.005  0.601379  -0.001352  4.171808  -0.002  0.638124  -0.001774  4.163235  -0.002  0.214284  0.576353  -0.001045  4.17671  -0.002
C  C40  1  0.68034435  0.74540409  0.91505111  1  0.649751  -0.005113  3.874995  -0.005  0.601267  -0.001348  4.171721  -0.002  0.638001  -0.001776  4.163154  -0.002  0.214266  0.576249  -0.001045  4.176631  -0.002
C  C41  1  0.31965375  0.74539852  0.58494081  1  0.649848  -0.00508  3.874873  -0.005  0.601339  -0.001354  4.171593  -0.002  0.638081  -0.001769  4.163024  -0.002  0.214287  0.576311  -0.001045  4.176489  -0.002
C  C42  1  0.15104453  0.12452202  0.04119431  1  -0.061869  0.006716  3.73846  0.007  -0.040056  0.004364  3.971294  0.005  -0.046359  0.003128  3.991588  0.004  -0.016284  -0.03597  0.005156  3.957713  0.006
C  C43  1  0.84895776  0.12451827  0.45880685  1  -0.062145  0.006681  3.738551  0.007  -0.040304  0.004365  3.97135  0.005  -0.046645  0.003126  3.991704  0.004  -0.016437  -0.036217  0.005157  3.957756  0.006
C  C44  1  0.84896455  0.87548224  0.95880460  1  -0.062056  0.006694  3.73829  0.007  -0.040241  0.004366  3.97114  0.005  -0.046558  0.003125  3.991453  0.004  -0.016367  -0.036153  0.005157  3.957555  0.006
C  C45  1  0.15103254  0.87548248  0.54119220  1  -0.062004  0.006698  3.73839  0.007  -0.040155  0.004367  3.97118  0.005  -0.046502  0.00312  3.991538  0.004  -0.016402  -0.036065  0.005157  3.957579  0.006
C  C46  1  0.20113366  0.04730403  0.95335838  1  -0.070987  -0.000228  3.738252  0.0  -0.095581  0.000269  3.991645  0.0  -0.096427  9.5e-05  4.011585  0.0  -0.083697  -0.094696  0.000456  3.978194  0.001
C  C47  1  0.79887365  0.04730542  0.54665152  1  -0.071071  -0.00017  3.737905  0.0  -0.095685  0.000269  3.991317  0.0  -0.096505  9.6e-05  4.011265  0.0  -0.083672  -0.094796  0.000456  3.977854  0.001
C  C48  1  0.79886211  0.95270139  0.04664258  1  -0.070979  -0.000168  3.737938  0.0  -0.095547  0.000268  3.991344  0.0  -0.096379  9.9e-05  4.011295  0.0  -0.083719  -0.094666  0.000457  3.977901  0.001
C  C49  1  0.20111845  0.95269767  0.45334842  1  -0.071238  -0.000199  3.737816  0.0  -0.095884  0.000268  3.991256  0.0  -0.096674  9.9e-05  4.011225  0.0  -0.083736  -0.094999  0.000456  3.977803  0.001
C  C50  1  0.94765014  0.07588077  0.08784223  1  -0.069848  0.000298  3.721731  0.0  -0.093347  0.000451  3.972527  0.0  -0.09304  0.000205  3.990926  0.0  -0.083081  -0.093235  0.000556  3.959904  0.0
C  C51  1  0.05232807  0.07588169  0.41215775  1  -0.069507  0.000346  3.721772  0.0  -0.092968  0.000449  3.972562  0.0  -0.09265  0.000207  3.990959  0.0  -0.082947  -0.092872  0.000556  3.959942  0.0
C  C52  1  0.05235894  0.92412581  0.91215669  1  -0.069747  0.000358  3.721887  0.0  -0.093233  0.000448  3.972696  0.0  -0.092923  0.000209  3.991101  0.0  -0.083079  -0.093121  0.000556  3.960059  0.0
C  C53  1  0.94765869  0.92412140  0.58783877  1  -0.06971  0.000306  3.722006  0.0  -0.093193  0.00045  3.972817  0.0  -0.092875  0.000208  3.99123  0.0  -0.083041  -0.093089  0.000556  3.96018  0.0
N  N54  1  0.66737276  0.64014328  0.33924670  1  -0.598279  0.104182  3.10355  0.131  -0.579294  0.067849  3.375435  0.089  -0.613702  0.053657  3.379279  0.076  -0.642549  -0.558473  0.076045  3.374755  0.095
N  N55  1  0.33263114  0.64013709  0.16075176  1  -0.598282  0.104201  3.103377  0.131  -0.579447  0.067846  3.375333  0.089  -0.613862  0.053655  3.379166  0.076  -0.642605  -0.558638  0.076036  3.374689  0.095
N  N56  1  0.33262494  0.35985514  0.66075364  1  -0.59825  0.104206  3.103461  0.131  -0.579284  0.067851  3.375366  0.089  -0.613697  0.053657  3.379209  0.076  -0.642524  -0.55845  0.076048  3.37469  0.095
N  N57  1  0.66737795  0.35986016  0.83924716  1  -0.59843  0.10421  3.103412  0.131  -0.579354  0.06785  3.375297  0.089  -0.613776  0.053657  3.379129  0.076  -0.64253  -0.558527  0.076039  3.374648  0.095
O  O58  1  0.28744286  0.30113373  0.17482478  1  -0.634077  0.062415  2.109749  0.087  -0.592682  0.04355  2.383002  0.066  -0.631517  0.033743  2.372509  0.055  -0.331342  -0.566248  0.050582  2.389044  0.072
O  O59  1  0.71255047  0.30113973  0.32518385  1  -0.63427  0.062433  2.109738  0.087  -0.592872  0.043557  2.383  0.066  -0.631709  0.033748  2.372488  0.055  -0.331439  -0.566442  0.050598  2.389043  0.072
O  O60  1  0.71256198  0.69886935  0.82517986  1  -0.634132  0.062415  2.10982  0.087  -0.592766  0.04355  2.383096  0.066  -0.631605  0.033743  2.372598  0.055  -0.331379  -0.566319  0.050581  2.389138  0.072
O  O61  1  0.28744157  0.69886452  0.67481683  1  -0.634167  0.062423  2.109673  0.087  -0.592774  0.043553  2.382944  0.066  -0.631614  0.033741  2.37244  0.055  -0.331396  -0.566324  0.050592  2.388984  0.072
O  O62  1  0.47983431  0.30879545  0.03457100  1  -0.609671  -0.001156  2.013753  0.0  -0.549077  -0.000753  2.232918  0.0  -0.574656  -0.001362  2.224893  0.0  -0.299868  -0.531666  -0.000221  2.238176  0.001
O  O63  1  0.52015911  0.30877838  0.46543616  1  -0.609735  -0.001189  2.014088  0.0  -0.549081  -0.000752  2.23322  0.0  -0.574662  -0.001367  2.225186  0.0  -0.299823  -0.531663  -0.000222  2.238459  0.001
O  O64  1  0.52016867  0.69121114  0.96543351  1  -0.609728  -0.001162  2.013812  0.0  -0.549108  -0.000753  2.23296  0.0  -0.574686  -0.001363  2.22493  0.0  -0.299855  -0.531697  -0.00022  2.23821  0.001
O  O65  1  0.47981651  0.69121188  0.53455880  1  -0.609828  -0.001174  2.013995  0.0  -0.549136  -0.000754  2.233081  0.0  -0.574707  -0.001359  2.225039  0.0  -0.299854  -0.531725  -0.000222  2.238322  0.001
O  O66  1  0.15032027  0.48383387  0.36266253  1  -0.835455  -0.002508  1.844019  -0.001  -0.795081  -0.002367  2.022769  -0.001  -0.812675  -0.002635  1.99083  -0.001  -0.602622  -0.782464  -0.001976  2.045552  0.0
O  O67  1  0.84968613  0.48383818  0.13733711  1  -0.835405  -0.002511  1.843993  -0.001  -0.795063  -0.002367  2.022677  -0.001  -0.812657  -0.002636  1.990742  -0.001  -0.602617  -0.782428  -0.001975  2.045434  0.0
O  O68  1  0.84967576  0.51616222  0.63733543  1  -0.835475  -0.002515  1.843891  -0.001  -0.795139  -0.002367  2.022612  -0.001  -0.812732  -0.002635  1.990676  -0.001  -0.602644  -0.782511  -0.001976  2.045388  0.0
O  O69  1  0.15033222  0.51616024  0.86266325  1  -0.835365  -0.00251  1.844144  -0.001  -0.795019  -0.002367  2.022821  -0.001  -0.812614  -0.002636  1.990883  -0.001  -0.602608  -0.782392  -0.001975  2.045608  0.0
