# generated using pymatgen
data_Zn4H9C21N3O13
_symmetry_space_group_name_H-M   'P 1'
_cell_length_a   18.22854843
_cell_length_b   18.20498305
_cell_length_c   18.41297667
_cell_angle_alpha   60.27520659
_cell_angle_beta   89.95732416
_cell_angle_gamma   60.26521905
_symmetry_Int_Tables_number   1
_chemical_formula_structural   Zn4H9C21N3O13
_chemical_formula_sum   'Zn8 H18 C42 N6 O26'
_cell_volume   4357.29488472
_cell_formula_units_Z   2
loop_
 _symmetry_equiv_pos_site_id
 _symmetry_equiv_pos_as_xyz
  1  'x, y, z'
loop_
 _atom_site_type_symbol
 _atom_site_label
 _atom_site_symmetry_multiplicity
 _atom_site_fract_x
 _atom_site_fract_y
 _atom_site_fract_z
 _atom_site_occupancy
 _atom_site_pbe_bader_charge
 _atom_site_pbe_bader_spin_density
 _atom_site_pbe_cm5_charge
 _atom_site_pbe_ddec_charge
 _atom_site_pbe_ddec_spin_density
 _atom_site_pbe_ddec_sum_bond_order
 _atom_site_pbe_magmom
Zn  Zn0  1  0.05341000  0.91129484  0.93855060  1  1.317394  0  0.685396  0.978261  0  2.331182  0
Zn  Zn1  1  0.05168626  0.09321905  0.93571481  1  1.311647  0  0.67876  0.971879  0  2.342354  0
Zn  Zn2  1  0.05068642  0.91812011  0.10769374  1  1.292369  0  0.666294  0.95272  0  2.40961  0
Zn  Zn3  1  0.87681246  0.09148732  0.93632503  1  1.295305  0  0.668403  0.961878  0  2.371023  0
Zn  Zn4  1  0.46512133  0.09029087  0.52349176  1  1.310834  0  0.669333  0.956247  0  2.401825  0
Zn  Zn5  1  0.46298796  0.91648346  0.52353769  1  1.304269  0  0.671305  0.963029  0  2.375596  0
Zn  Zn6  1  0.63993356  0.91643131  0.52257387  1  1.316763  0  0.672977  0.968589  0  2.352948  0
Zn  Zn7  1  0.46288356  0.09230041  0.34917138  1  1.314474  0  0.678672  0.972042  0  2.352964  0
H  H8  1  0.21164922  0.11876578  0.78256522  1  0.112041  0  0.117334  0.132194  0  0.983196  0
H  H9  1  0.30946066  0.11978904  0.68442759  1  0.087819  0  0.115634  0.119396  0  0.979274  0
H  H10  1  0.29275870  0.89432035  0.67972926  1  0.109001  0  0.119315  0.093737  0  0.971182  0
H  H11  1  0.20832321  0.60472359  0.30117437  1  0.093685  0  0.113045  0.126467  0  0.990274  0
H  H12  1  0.30641276  0.40933951  0.40057775  1  0.112077  0  0.11496  0.118195  0  0.979227  0
H  H13  1  0.30167509  0.41324346  0.16483744  1  0.121255  0  0.122937  0.09881  0  0.966691  0
H  H14  1  0.68871062  0.12363312  0.77793350  1  0.106039  0  0.1138  0.127446  0  0.988461  0
H  H15  1  0.59074325  0.12492809  0.67887754  1  0.143181  0  0.11516  0.118974  0  0.979472  0
H  H16  1  0.83161220  0.88864478  0.68550848  1  0.087322  0  0.120794  0.095477  0  0.968948  0
H  H17  1  0.20125551  0.89061153  0.29530966  1  0.114098  0  0.113447  0.126743  0  0.990608  0
H  H18  1  0.29845468  0.88807123  0.39627276  1  0.103907  0  0.115807  0.119447  0  0.978294  0
H  H19  1  0.30140223  0.11955772  0.16233582  1  0.11121  0  0.12252  0.098477  0  0.96852  0
H  H20  1  0.68836735  0.40488028  0.78179865  1  0.117888  0  0.114636  0.128209  0  0.989393  0
H  H21  1  0.58962685  0.60014081  0.68313238  1  0.079799  0  0.116203  0.120542  0  0.978114  0
H  H22  1  0.82966725  0.59221507  0.68231415  1  0.125496  0  0.120259  0.095195  0  0.970741  0
H  H23  1  0.82601877  0.89213647  0.39376886  1  0.09666  0  0.114725  0.128452  0  0.986672  0
H  H24  1  0.92379412  0.89171141  0.29560780  1  0.095132  0  0.116339  0.120431  0  0.978278  0
H  H25  1  0.68290246  0.11841239  0.07126390  1  0.126614  0  0.120145  0.094494  0  0.970868  0
C  C26  1  0.14694665  0.00173594  0.84148745  1  1.544557  0  0.232877  0.577908  0  4.157205  0
C  C27  1  0.20391045  0.00466464  0.78168588  1  0.54908  0  0.119385  0.113045  0  3.960167  0
C  C28  1  0.23184613  0.07031227  0.75822456  1  -0.030202  0  -0.07457  -0.133402  0  3.941594  0
C  C29  1  0.28529019  0.07086939  0.70440403  1  -0.048317  0  -0.061696  -0.045493  0  3.94846  0
C  C30  1  0.30859028  0.00649309  0.67557757  1  0.085753  0  -0.012865  -0.086094  0  3.965635  0
C  C31  1  0.27616791  0.94452241  0.70201882  1  0.505375  0  0.059229  0.085258  0  3.951478  0
C  C32  1  0.36676984  0.00403210  0.61855202  1  1.543306  0  0.2299  0.610333  0  4.175126  0
C  C33  1  0.14698058  0.72391150  0.12215094  1  1.604987  0  0.232194  0.576561  0  4.158901  0
C  C34  1  0.20541451  0.60760258  0.18254073  1  0.518349  0  0.118613  0.112648  0  3.966693  0
C  C35  1  0.23084619  0.55861923  0.27440026  1  -0.011458  0  -0.077233  -0.137545  0  3.951969  0
C  C36  1  0.28456093  0.45162806  0.32874280  1  -0.020571  0  -0.062102  -0.045761  0  3.951646  0
C  C37  1  0.31085216  0.39756158  0.28952183  1  -0.063145  0  -0.011632  -0.082666  0  3.963995  0
C  C38  1  0.28178031  0.45399580  0.19676262  1  0.58352  0  0.061656  0.08722  0  3.942599  0
C  C39  1  0.36832057  0.28267514  0.34489536  1  1.557456  0  0.229472  0.60724  0  4.181092  0
C  C40  1  0.86931769  0.00176631  0.84238212  1  1.585635  0  0.232469  0.579424  0  4.156488  0
C  C41  1  0.80987631  0.00452161  0.78242177  1  0.529384  0  0.118963  0.112397  0  3.964609  0
C  C42  1  0.71691705  0.07305329  0.75568043  1  -0.017056  0  -0.076751  -0.136281  0  3.951082  0
C  C43  1  0.66337490  0.07373416  0.70138769  1  -0.055301  0  -0.062117  -0.046345  0  3.951417  0
C  C44  1  0.70428300  0.00650415  0.67539079  1  -0.036538  0  -0.01221  -0.082925  0  3.960684  0
C  C45  1  0.79807381  0.94148181  0.70522090  1  0.586313  0  0.060364  0.085548  0  3.943796  0
C  C46  1  0.64876395  0.00432077  0.61789777  1  1.557045  0  0.229887  0.608835  0  4.176749  0
C  C47  1  0.14527840  0.00753204  0.11698885  1  1.564361  0  0.23138  0.577759  0  4.157389  0
C  C48  1  0.20260674  0.00618427  0.17758289  1  0.510516  0  0.117747  0.111477  0  3.967068  0
C  C49  1  0.22535166  0.93964621  0.26932572  1  -0.012671  0  -0.076831  -0.135428  0  3.949805  0
C  C50  1  0.27855854  0.93837356  0.32451551  1  -0.059012  0  -0.06187  -0.046358  0  3.949518  0
C  C51  1  0.30700633  0.00362646  0.28625095  1  0.063153  0  -0.011756  -0.082262  0  3.958057  0
C  C52  1  0.28008256  0.06785824  0.19351211  1  0.50352  0  0.060427  0.085758  0  3.942568  0
C  C53  1  0.36513815  0.00431446  0.34266996  1  1.585037  0  0.230381  0.609605  0  4.175921  0
C  C54  1  0.86901332  0.28333156  0.84109200  1  1.526239  0  0.231562  0.578075  0  4.158225  0
C  C55  1  0.80919047  0.39981170  0.78196335  1  0.504326  0  0.118305  0.11226  0  3.965135  0
C  C56  1  0.71624112  0.45006548  0.75786882  1  0.126494  0  -0.076575  -0.135103  0  3.949603  0
C  C57  1  0.66224154  0.55704774  0.70380284  1  -0.098643  0  -0.061674  -0.046041  0  3.950232  0
C  C58  1  0.70272475  0.61013018  0.67571798  1  -0.048767  0  -0.011723  -0.083056  0  3.961107  0
C  C59  1  0.79653600  0.55247436  0.70343492  1  0.542711  0  0.059323  0.084908  0  3.947438  0
C  C60  1  0.64706862  0.72514866  0.61802287  1  1.553537  0  0.230024  0.609778  0  4.175432  0
C  C61  1  0.64534849  0.00648009  0.33915773  1  1.552134  0  0.232792  0.582459  0  4.150396  0
C  C62  1  0.70470023  0.00568155  0.28177704  1  0.587816  0  0.11649  0.108213  0  3.970361  0
C  C63  1  0.79767013  0.94078955  0.32200619  1  -0.070391  0  -0.076365  -0.133756  0  3.948152  0
C  C64  1  0.85115079  0.94062364  0.26821863  1  0.010876  0  -0.061748  -0.046455  0  3.947655  0
C  C65  1  0.81020957  0.00507009  0.17642887  1  -0.062767  0  -0.009486  -0.078389  0  3.955121  0
C  C66  1  0.71641948  0.06742466  0.14271087  1  0.579864  0  0.058798  0.084761  0  3.947063  0
C  C67  1  0.86590200  0.00639971  0.11674574  1  1.581605  0  0.228904  0.607132  0  4.178496  0
N  N68  1  0.22515592  0.94296965  0.75405688  1  -1.143887  0  -0.308999  -0.256165  0  3.282254  0
N  N69  1  0.23022755  0.55671325  0.14397874  1  -1.173593  0  -0.307807  -0.253818  0  3.281994  0
N  N70  1  0.85015471  0.93989172  0.75769860  1  -1.175242  0  -0.307997  -0.254134  0  3.27972  0
N  N71  1  0.22917393  0.06946709  0.13987936  1  -1.175133  0  -0.309239  -0.256799  0  3.282512  0
N  N72  1  0.84905949  0.44967366  0.75531519  1  -1.125896  0  -0.309608  -0.257211  0  3.28556  0
N  N73  1  0.66433776  0.06816342  0.19375145  1  -1.19128  0  -0.31119  -0.259692  0  3.285694  0
O  O74  1  0.00779804  0.00427436  0.97843612  1  -1.179136  0  -0.570337  -1.031671  0  2.521557  0
O  O75  1  0.12387189  0.06608264  0.86174864  1  -1.157412  0  -0.312291  -0.54237  0  2.345191  0
O  O76  1  0.12771967  0.93677464  0.86613533  1  -1.148088  0  -0.300049  -0.514213  0  2.357655  0
O  O77  1  0.38762524  0.94167508  0.59640523  1  -1.17467  0  -0.311645  -0.54478  0  2.328509  0
O  O78  1  0.39109937  0.06484008  0.59683443  1  -1.17567  0  -0.31515  -0.548234  0  2.342749  0
O  O79  1  0.12399859  0.76963571  0.16133867  1  -1.176795  0  -0.317054  -0.546578  0  2.347122  0
O  O80  1  0.12599734  0.76580683  0.03955044  1  -1.154415  0  -0.298001  -0.512159  0  2.358121  0
O  O81  1  0.38923861  0.23897305  0.30432419  1  -1.16289  0  -0.308408  -0.540935  0  2.332968  0
O  O82  1  0.39161958  0.23788573  0.42859486  1  -1.170615  0  -0.314607  -0.545136  0  2.339302  0
O  O83  1  0.82844762  0.06787656  0.86092551  1  -1.1615  0  -0.316624  -0.549291  0  2.344651  0
O  O84  1  0.95270743  0.93549694  0.86883355  1  -1.15772  0  -0.299208  -0.513306  0  2.358318  0
O  O85  1  0.68967040  0.94140741  0.59634005  1  -1.172624  0  -0.310511  -0.543533  0  2.32286  0
O  O86  1  0.56424257  0.06611694  0.59535070  1  -1.163601  0  -0.315078  -0.547211  0  2.345057  0
O  O87  1  0.12310747  0.94463307  0.15640188  1  -1.152632  0  -0.316316  -0.547324  0  2.357047  0
O  O88  1  0.12435185  0.06910515  0.03425104  1  -1.164153  0  -0.300841  -0.516092  0  2.350955  0
O  O89  1  0.38531673  0.06882094  0.30293062  1  -1.157077  0  -0.308673  -0.541285  0  2.332698  0
O  O90  1  0.38985450  0.93978289  0.42615565  1  -1.179401  0  -0.314405  -0.547223  0  2.33491  0
O  O91  1  0.82829743  0.23902080  0.86459627  1  -1.171656  0  -0.315397  -0.547494  0  2.345952  0
O  O92  1  0.95271745  0.24016357  0.86206925  1  -1.131698  0  -0.301116  -0.516158  0  2.356623  0
O  O93  1  0.68827785  0.76867994  0.59551941  1  -1.1637  0  -0.310772  -0.544005  0  2.324637  0
O  O94  1  0.56254520  0.77001812  0.59631737  1  -1.185302  0  -0.314231  -0.547178  0  2.341075  0
O  O95  1  0.68622224  0.94435216  0.42255655  1  -1.173637  0  -0.315328  -0.548679  0  2.34452  0
O  O96  1  0.56152562  0.06748509  0.30059773  1  -1.14646  0  -0.303782  -0.521324  0  2.361953  0
O  O97  1  0.82505229  0.06846514  0.03356512  1  -1.163377  0  -0.31077  -0.543056  0  2.319322  0
O  O98  1  0.95026932  0.94454623  0.15490511  1  -1.172626  0  -0.313586  -0.54534  0  2.345462  0
O  O99  1  0.50850749  0.00293155  0.47956133  1  -1.212508  0  -0.571112  -1.030176  0  2.530181  0
