# generated using pymatgen
data_ZnH21C22NO7
_symmetry_space_group_name_H-M   'P 1'
_cell_length_a   8.84410728
_cell_length_b   16.55630226
_cell_length_c   17.70854920
_cell_angle_alpha   84.95687514
_cell_angle_beta   86.86961051
_cell_angle_gamma   79.48251795
_symmetry_Int_Tables_number   1
_chemical_formula_structural   ZnH21C22NO7
_chemical_formula_sum   'Zn2 H42 C44 N2 O14'
_cell_volume   2537.58425579
_cell_formula_units_Z   2
loop_
 _symmetry_equiv_pos_site_id
 _symmetry_equiv_pos_as_xyz
  1  'x, y, z'
loop_
 _atom_site_type_symbol
 _atom_site_label
 _atom_site_symmetry_multiplicity
 _atom_site_fract_x
 _atom_site_fract_y
 _atom_site_fract_z
 _atom_site_occupancy
 _atom_site_pbe_bader_charge
 _atom_site_pbe_bader_spin_density
 _atom_site_pbe_cm5_charge
 _atom_site_pbe_ddec_charge
 _atom_site_pbe_ddec_spin_density
 _atom_site_pbe_ddec_sum_bond_order
 _atom_site_pbe_magmom
Zn  Zn0  1  0.50135409  0.58600958  0.50143170  1  1.297889  0  0.676053  0.842425  0  2.374022  0
Zn  Zn1  1  0.53234081  0.41233703  0.50409707  1  1.30267  0  0.681741  0.850686  0  2.395094  0
H  H2  1  0.33707083  0.62981058  0.87046633  1  0.065758  0  0.102098  0.105556  0  0.99699  0
H  H3  1  0.45232615  0.37048672  0.14410487  1  0.070088  0  0.102515  0.106609  0  0.993933  0
H  H4  1  0.40100512  0.62639498  0.73149479  1  0.090689  0  0.103923  0.107047  0  1.002298  0
H  H5  1  0.50942090  0.37959297  0.27950834  1  0.103896  0  0.103561  0.108057  0  1.00594  0
H  H6  1  0.47436582  0.36487362  0.89494690  1  0.10405  0  0.107127  0.125179  0  0.992114  0
H  H7  1  0.34844523  0.63643676  0.11657755  1  0.084375  0  0.108139  0.125919  0  0.990658  0
H  H8  1  0.66859535  0.86226686  0.40381778  1  0.08069  0  0.114027  0.136231  0  1.008248  0
H  H9  1  0.29045888  0.15095054  0.56528146  1  0.083281  0  0.113964  0.134136  0  1.011528  0
H  H10  1  0.32775684  0.72456622  0.57981679  1  0.127976  0  0.132147  0.107738  0  0.969441  0
H  H11  1  0.70115009  0.27246779  0.42501649  1  0.13565  0  0.126121  0.096369  0  0.991156  0
H  H12  1  0.30825907  0.87856051  0.57993727  1  0.07881  0  0.113763  0.127763  0  0.987673  0
H  H13  1  0.69116359  0.12322447  0.41198563  1  0.086518  0  0.11215  0.125817  0  0.991392  0
H  H14  1  0.90099715  0.43132908  0.35848813  1  0.073586  0  0.102708  0.073217  0  0.965658  0
H  H15  1  0.91939391  0.33111320  0.40580967  1  0.04744  0  0.091002  0.050063  0  1.005203  0
H  H16  1  0.18999098  0.29558321  0.34881581  1  0.03624  0  0.0871  0.119422  0  1.00045  0
H  H17  1  0.05231501  0.32380698  0.27701030  1  0.03516  0  0.090464  0.119497  0  1.000669  0
H  H18  1  0.16848208  0.39523834  0.29970520  1  0.04919  0  0.091435  0.130901  0  1.006982  0
H  H19  1  0.86624048  0.65735434  0.51488997  1  0.053911  0  0.087408  0.04591  0  1.036866  0
H  H20  1  0.03867457  0.67173320  0.55713380  1  0.070286  0  0.086331  0.049557  0  1.020316  0
H  H21  1  0.90561632  0.66111716  0.68647476  1  0.03605  0  0.087408  0.120326  0  0.996999  0
H  H22  1  0.80172770  0.74278833  0.62728261  1  -0.023597  0  0.079667  0.104587  0  1.015465  0
H  H23  1  0.73523405  0.64688222  0.64351387  1  0.076715  0  0.089008  0.137066  0  1.018762  0
H  H24  1  0.77596619  0.32202368  0.77694489  1  0.017751  0  0.089622  0.040106  0  0.979031  0
H  H25  1  0.72539806  0.38211307  0.68992423  1  0.088365  0  0.101455  0.06864  0  0.996599  0
H  H26  1  0.65576809  0.26250770  0.63529755  1  0.04112  0  0.087991  0.127626  0  1.025393  0
H  H27  1  0.84707977  0.23612866  0.66707050  1  0.025945  0  0.087538  0.115652  0  1.014284  0
H  H28  1  0.69439382  0.20006730  0.72213209  1  0.029137  0  0.086104  0.116099  0  1.000988  0
H  H29  1  0.21316610  0.64158893  0.32669562  1  0.067516  0  0.098945  0.062559  0  0.989249  0
H  H30  1  0.16253891  0.70590489  0.24157631  1  -0.002394  0  0.085944  0.033917  0  0.987806  0
H  H31  1  0.30555753  0.81166509  0.29099710  1  0.033144  0  0.087363  0.118301  0  0.999257  0
H  H32  1  0.14104975  0.79476888  0.34847805  1  0.019964  0  0.084685  0.109584  0  1.016722  0
H  H33  1  0.32818471  0.74747651  0.37770175  1  0.055117  0  0.088155  0.127478  0  1.033651  0
H  H34  1  0.85926381  0.76570445  0.37987570  1  0.035764  0  0.10064  0.052  0  0.996742  0
H  H35  1  0.89161077  0.66354014  0.35131535  1  0.079773  0  0.119241  0.089464  0  0.948977  0
H  H36  1  0.83664595  0.76063490  0.23709795  1  0.033456  0  0.094754  0.127655  0  0.999696  0
H  H37  1  0.68164116  0.70505285  0.25654782  1  0.078017  0  0.102764  0.154043  0  0.987312  0
H  H38  1  0.65959124  0.80902199  0.27922769  1  0.027734  0  0.088571  0.119349  0  1.008974  0
H  H39  1  0.21493911  0.22727312  0.65727270  1  0.043713  0  0.09865  0.051908  0  0.980883  0
H  H40  1  0.09269204  0.28634560  0.58652136  1  0.064878  0  0.104822  0.068226  0  0.977004  0
H  H41  1  0.09689784  0.41482401  0.65215173  1  0.088319  0  0.097794  0.144327  0  1.012759  0
H  H42  1  0.03122373  0.33904481  0.71661868  1  0.060214  0  0.092862  0.122314  0  1.017827  0
H  H43  1  0.22420860  0.35642530  0.71971897  1  0.06407  0  0.096283  0.141155  0  0.997059  0
C  C44  1  0.50191102  0.50903803  0.35630450  1  1.599741  0  0.209808  0.601907  0  4.164119  0
C  C45  1  0.50020912  0.50080753  0.65027978  1  1.55708  0  0.213977  0.598683  0  4.173424  0
C  C46  1  0.38176960  0.49850440  0.97259283  1  -0.058641  0  -0.044567  -0.102783  0  4.112485  0
C  C47  1  0.38126712  0.50001226  0.04144474  1  -0.291546  0  -0.049076  -0.114363  0  4.116327  0
C  C48  1  0.59293815  0.83333354  0.44364009  1  0.106751  0  -0.092905  -0.3079  0  3.902859  0
C  C49  1  0.38253848  0.17614246  0.53390134  1  0.08038  0  -0.092372  -0.304872  0  3.893553  0
C  C50  1  0.59559769  0.74817755  0.44798776  1  1.056274  0  0.228841  0.407813  0  4.074416  0
C  C51  1  0.40052851  0.25789218  0.53959590  1  1.101042  0  0.231262  0.414981  0  4.062687  0
C  C52  1  0.40070068  0.75831894  0.54234146  1  0.459226  0  0.063482  0.12695  0  3.953945  0
C  C53  1  0.61363863  0.24216622  0.45536563  1  0.457428  0  0.058817  0.124377  0  3.968054  0
C  C54  1  0.39004620  0.84285369  0.54208531  1  0.033821  0  -0.089306  -0.213479  0  3.944263  0
C  C55  1  0.60711254  0.16036547  0.44777445  1  0.009983  0  -0.094168  -0.21777  0  3.952477  0
C  C56  1  0.48845107  0.88156760  0.49132769  1  0.026617  0  0.01809  0.204281  0  4.128231  0
C  C57  1  0.48943460  0.12609326  0.48881192  1  0.013036  0  0.016783  0.20255  0  4.130874  0
C  C58  1  0.48357042  0.96768946  0.48838073  1  -0.249317  0  -0.032512  -0.092745  0  4.072726  0
C  C59  1  0.48301105  0.04149392  0.48699527  1  -0.035194  0  -0.030546  -0.088953  0  4.072009  0
C  C60  1  0.81462340  0.46614921  0.49911376  1  1.578203  0  0.209496  0.557253  0  4.220182  0
C  C61  1  0.22378069  0.51892378  0.50979040  1  1.568462  0  0.202653  0.56017  0  4.221688  0
C  C62  1  0.98581675  0.46217061  0.48727215  1  0.513294  0  0.075515  0.034777  0  3.997141  0
C  C63  1  0.05819737  0.51372284  0.52259883  1  0.583039  0  0.049874  -0.019443  0  4.025987  0
C  C64  1  0.37947084  0.57163162  0.84559638  1  0.03157  0  -0.094021  -0.149904  0  3.977523  0
C  C65  1  0.44119598  0.43008097  0.16755614  1  -0.040531  0  -0.092143  -0.148841  0  3.975198  0
C  C66  1  0.41560481  0.56962408  0.76855479  1  -0.063955  0  -0.084189  -0.070896  0  4.013226  0
C  C67  1  0.47261503  0.43518069  0.24264128  1  -0.055093  0  -0.086116  -0.077005  0  4.025018  0
C  C68  1  0.47195231  0.49569449  0.73480676  1  0.00172  0  -0.020413  -0.134717  0  3.919892  0
C  C69  1  0.46046374  0.51099235  0.27475534  1  -0.042056  0  -0.020688  -0.132286  0  3.913484  0
C  C70  1  0.49137177  0.42129698  0.78214327  1  0.492002  0  0.0899  0.242808  0  4.05303  0
C  C71  1  0.41114219  0.58370644  0.22775762  1  0.511973  0  0.085627  0.238386  0  4.052148  0
C  C72  1  0.45522703  0.42287663  0.85975570  1  -0.042798  0  -0.093906  -0.242815  0  3.927579  0
C  C73  1  0.38178127  0.57920863  0.15179214  1  0.054883  0  -0.095559  -0.246459  0  3.931537  0
C  C74  1  0.40097458  0.49751725  0.89281983  1  0.067499  0  -0.001791  0.159628  0  4.141344  0
C  C75  1  0.39827851  0.50288794  0.12005755  1  0.029092  0  -0.001363  0.163179  0  4.137733  0
C  C76  1  0.98446777  0.37885555  0.38229545  1  0.386999  0  -0.067858  0.083334  0  3.889865  0
C  C77  1  0.10610403  0.34666540  0.32343066  1  -0.076197  0  -0.24629  -0.392663  0  3.979295  0
C  C78  1  0.93366740  0.64475741  0.56638991  1  0.372945  0  -0.080758  0.081371  0  3.908669  0
C  C79  1  0.83823000  0.67548265  0.63511998  1  -0.04457  0  -0.252083  -0.392769  0  3.979173  0
C  C80  1  0.70106711  0.32944082  0.72787683  1  0.385808  0  -0.068865  0.091661  0  3.915847  0
C  C81  1  0.72553003  0.25223813  0.68570919  1  -0.039993  0  -0.247788  -0.387688  0  3.972911  0
C  C82  1  0.24675825  0.69088436  0.28697968  1  0.427686  0  -0.068418  0.096021  0  3.922701  0
C  C83  1  0.25640597  0.76575233  0.32845412  1  -0.062993  0  -0.248146  -0.387553  0  3.969723  0
C  C84  1  0.80532374  0.72004434  0.35457842  1  0.408235  0  -0.054935  0.08921  0  3.8831  0
C  C85  1  0.74155530  0.75067398  0.27743805  1  -0.0674  0  -0.242914  -0.40735  0  3.953533  0
C  C86  1  0.18209184  0.28853980  0.62695193  1  0.365527  0  -0.055829  0.090183  0  3.884355  0
C  C87  1  0.13093186  0.35391422  0.68207038  1  -0.085647  0  -0.241255  -0.392178  0  3.917106  0
N  N88  1  0.50028469  0.71195397  0.49646803  1  -1.237791  0  -0.32274  -0.300421  0  3.472291  0
N  N89  1  0.51470685  0.28969101  0.50050790  1  -1.236486  0  -0.321964  -0.301308  0  3.473117  0
O  O90  1  0.46543155  0.57537628  0.38949898  1  -1.159017  0  -0.309443  -0.53797  0  2.379569  0
O  O91  1  0.49659328  0.43661795  0.61635470  1  -1.157708  0  -0.308511  -0.54386  0  2.381848  0
O  O92  1  0.56990083  0.43997895  0.38644893  1  -1.176824  0  -0.326255  -0.571862  0  2.310577  0
O  O93  1  0.52132586  0.57025025  0.61853392  1  -1.159622  0  -0.316267  -0.548761  0  2.323131  0
O  O94  1  0.73187781  0.53671307  0.48859310  1  -1.159501  0  -0.302283  -0.537333  0  2.431513  0
O  O95  1  0.30999572  0.45741386  0.48256005  1  -1.165215  0  -0.318191  -0.547299  0  2.45632  0
O  O96  1  0.76746705  0.39795530  0.51488709  1  -1.154246  0  -0.317918  -0.53802  0  2.288259  0
O  O97  1  0.26858094  0.58413482  0.52671980  1  -1.16103  0  -0.322053  -0.546784  0  2.302911  0
O  O98  1  0.06436664  0.40415625  0.44305573  1  -1.047096  0  -0.176051  -0.158445  0  2.57412  0
O  O99  1  0.97667994  0.55622236  0.57986609  1  -1.062949  0  -0.201992  -0.20186  0  2.546646  0
O  O100  1  0.54303570  0.34466316  0.75651931  1  -1.072805  0  -0.205906  -0.244056  0  2.508979  0
O  O101  1  0.39650382  0.66162885  0.25266117  1  -1.071627  0  -0.209435  -0.24976  0  2.503895  0
O  O102  1  0.68869134  0.69448234  0.40686935  1  -1.060614  0  -0.147984  -0.184939  0  2.584147  0
O  O103  1  0.31500274  0.31034611  0.58414657  1  -1.060774  0  -0.140395  -0.171894  0  2.579051  0
