# generated using pymatgen
data_MnH28C32N3O9F
_symmetry_space_group_name_H-M   'P 1'
_cell_length_a   10.18067721
_cell_length_b   12.10006096
_cell_length_c   13.61638421
_cell_angle_alpha   63.63540688
_cell_angle_beta   72.14045009
_cell_angle_gamma   83.10469132
_symmetry_Int_Tables_number   1
_chemical_formula_structural   MnH28C32N3O9F
_chemical_formula_sum   'Mn2 H56 C64 N6 O18 F2'
_cell_volume   1430.21208896
_cell_formula_units_Z   2
loop_
 _symmetry_equiv_pos_site_id
 _symmetry_equiv_pos_as_xyz
  1  'x, y, z'
loop_
 _atom_site_type_symbol
 _atom_site_label
 _atom_site_symmetry_multiplicity
 _atom_site_fract_x
 _atom_site_fract_y
 _atom_site_fract_z
 _atom_site_occupancy
 _atom_site_hle17_ddec_charge
 _atom_site_hle17_ddec_spin_density
 _atom_site_hle17_ddec_sum_bond_order
 _atom_site_hle17_magmom
 _atom_site_hse06_10hf_ddec_charge
 _atom_site_hse06_10hf_ddec_spin_density
 _atom_site_hse06_10hf_ddec_sum_bond_order
 _atom_site_hse06_10hf_magmom
 _atom_site_hse06_ddec_charge
 _atom_site_hse06_ddec_spin_density
 _atom_site_hse06_ddec_sum_bond_order
 _atom_site_hse06_magmom
 _atom_site_pbe_cm5_charge
 _atom_site_pbe_ddec_charge
 _atom_site_pbe_ddec_spin_density
 _atom_site_pbe_ddec_sum_bond_order
 _atom_site_pbe_magmom
Mn  Mn0  1  0.91774550  0.18472460  0.90003039  1  1.232282  4.767667  1.825912  4.657  1.102191  4.668774  2.329401  4.493  1.151126  4.731567  2.253931  4.579  0.610314  1.071733  4.584707  2.38336  4.385
Mn  Mn1  1  0.08225196  0.81528401  0.09997127  1  1.232248  4.767717  1.825959  4.657  1.102157  4.668823  2.329447  4.493  1.151083  4.731619  2.253985  4.579  0.610324  1.071708  4.584744  2.383395  4.385
H  H2  1  0.92077505  0.21406333  0.57578968  1  0.133105  -0.000159  0.94353  0.0  0.14042  -0.00011  1.008847  0.0  0.143977  -0.000136  1.006099  0.0  0.113475  0.137927  -8.1e-05  1.010685  0.0
H  H3  1  0.07922668  0.78594135  0.42420237  1  0.133083  -0.000173  0.94348  0.0  0.140368  -0.000109  1.008827  0.0  0.143924  -0.000135  1.006083  0.0  0.113475  0.137877  -8.1e-05  1.010665  0.0
H  H4  1  0.27783869  0.51158230  0.25434808  1  0.137095  -0.000105  0.951711  0.0  0.147934  -0.000149  1.010471  0.0  0.15186  -0.000158  1.008611  0.0  0.118699  0.144993  -0.000141  1.012029  0.0
H  H5  1  0.72215876  0.48841876  0.74564636  1  0.137155  -9.1e-05  0.951645  0.0  0.148001  -0.000149  1.010427  0.0  0.151927  -0.000158  1.008567  0.0  0.118692  0.14506  -0.000141  1.011983  0.0
H  H6  1  0.27846560  0.56008097  0.57584066  1  0.104032  -7.2e-05  0.936529  0.0  0.113651  5e-06  0.998125  0.0  0.117527  -1.1e-05  0.99316  0.0  0.129861  0.110981  2.2e-05  1.001606  0.0
H  H7  1  0.72152753  0.43991555  0.42415655  1  0.104119  -6.9e-05  0.936424  0.0  0.113682  5e-06  0.998082  0.0  0.117557  -1.1e-05  0.993121  0.0  0.129912  0.111025  2.2e-05  1.001567  0.0
H  H8  1  0.27489261  0.68009137  0.30916302  1  0.086312  -0.000298  0.958162  0.0  0.095822  -0.000217  1.018931  0.0  0.097065  -0.000285  1.019157  0.0  0.118614  0.094441  -0.000152  1.019298  0.0
H  H9  1  0.72511081  0.31990594  0.69083386  1  0.086372  -0.000291  0.958038  0.0  0.095813  -0.000216  1.018868  0.0  0.097056  -0.000285  1.019095  0.0  0.118627  0.094434  -0.000152  1.019234  0.0
H  H10  1  0.51083353  0.48805209  0.33522131  1  0.12074  2.7e-05  0.949222  0.0  0.134888  6.3e-05  1.01109  0.0  0.137172  4.4e-05  1.009406  0.0  0.102491  0.13343  7.4e-05  1.012126  0.0
H  H11  1  0.48916274  0.51194340  0.66477269  1  0.120663  2.6e-05  0.949287  0.0  0.134844  6.4e-05  1.011131  0.0  0.137122  4.4e-05  1.009449  0.0  0.102488  0.133387  7.4e-05  1.012169  0.0
H  H12  1  0.50985986  0.63565980  0.21043907  1  0.117495  -1e-06  0.964462  0.0  0.131719  3.8e-05  1.023632  0.0  0.134593  1.9e-05  1.022098  0.0  0.099195  0.129553  6.2e-05  1.024903  0.0
H  H13  1  0.49013544  0.36433851  0.78955620  1  0.11741  2e-06  0.964518  0.0  0.131652  3.8e-05  1.023677  0.0  0.13452  1.9e-05  1.022149  0.0  0.099204  0.129486  6.2e-05  1.024947  0.0
H  H14  1  0.48174873  0.60364857  0.45600241  1  0.099414  3e-06  0.973343  0.0  0.116307  -1e-06  1.033802  0.0  0.117117  -2e-06  1.0345  0.0  0.098998  0.115819  -4e-06  1.033419  0.0
H  H15  1  0.51825348  0.39634225  0.54399442  1  0.099401  -5e-06  0.973293  0.0  0.116296  -2e-06  1.033748  0.0  0.117103  -2e-06  1.034454  0.0  0.098981  0.115807  -4e-06  1.033369  0.0
H  H16  1  0.47892196  0.75063689  0.33222084  1  0.118305  2e-05  0.962264  0.0  0.13387  4e-05  1.019445  0.0  0.135067  2.6e-05  1.020898  0.0  0.102282  0.133326  5.1e-05  1.018172  0.0
H  H17  1  0.52108741  0.24935290  0.66777560  1  0.118382  1e-05  0.962204  0.0  0.134024  4e-05  1.019292  0.0  0.135224  2.6e-05  1.020738  0.0  0.102335  0.133482  5.1e-05  1.018016  0.0
H  H18  1  0.04652462  0.46697519  0.08340939  1  0.072363  -9.8e-05  0.921711  0.0  0.087154  -6.7e-05  0.985967  0.0  0.087802  -0.000103  0.985794  0.0  0.105674  0.086281  -2e-06  0.986523  0.0
H  H19  1  0.95348638  0.53302558  0.91657711  1  0.072376  -0.000105  0.921721  0.0  0.08713  -6.7e-05  0.986033  0.0  0.087781  -0.000103  0.985858  0.0  0.105675  0.086249  -2e-06  0.986583  0.0
H  H20  1  0.95463572  0.34504350  0.20936705  1  0.098061  -2e-06  0.93988  0.0  0.112556  2e-05  0.997629  0.0  0.113738  8e-06  0.996473  0.0  0.115373  0.111717  4e-05  0.998521  0.0
H  H21  1  0.04536907  0.65496021  0.79062474  1  0.097991  -4e-06  0.939961  0.0  0.112505  2e-05  0.997689  0.0  0.113683  8e-06  0.996539  0.0  0.115385  0.111659  4e-05  0.998576  0.0
H  H22  1  0.09722216  0.18978481  0.14996631  1  0.082569  -7.4e-05  0.931732  0.0  0.094618  -3.4e-05  1.000491  0.0  0.094893  -5.1e-05  1.000886  0.0  0.113045  0.094622  -4e-06  1.000103  0.0
H  H23  1  0.90278221  0.81021253  0.85003329  1  0.082593  -5.6e-05  0.931619  0.0  0.094634  -3.4e-05  1.000388  0.0  0.094907  -5.1e-05  1.000781  0.0  0.113055  0.094637  -4e-06  1.000003  0.0
H  H24  1  0.01367747  0.28838248  0.04439418  1  0.109268  -0.000561  0.951135  0.0  0.119833  -0.000473  1.014615  0.0  0.122527  -0.000546  1.012048  0.0  0.121411  0.11741  -0.000391  1.016836  0.0
H  H25  1  0.98632485  0.71161300  0.95560368  1  0.109283  -0.000551  0.951154  0.0  0.119832  -0.000474  1.014643  0.0  0.122524  -0.000545  1.012075  0.0  0.121438  0.11741  -0.000391  1.016862  0.0
H  H26  1  0.42770449  0.38217247  0.96726672  1  0.087863  2.6e-05  0.912304  0.0  0.107343  0.000158  0.966489  0.0  0.107783  9e-05  0.966468  0.0  0.120803  0.106884  0.000221  0.966531  0.0
H  H27  1  0.57230577  0.61781456  0.03273138  1  0.087817  2e-05  0.912289  0.0  0.107251  0.000158  0.966562  0.0  0.10769  9e-05  0.966546  0.0  0.120773  0.106802  0.000221  0.966601  0.0
H  H28  1  0.36738604  0.24633851  0.09518779  1  0.078969  2.1e-05  0.962705  0.0  0.088864  7.8e-05  1.034636  0.0  0.088451  4.5e-05  1.037283  0.0  0.110742  0.089373  8.4e-05  1.032695  0.0
H  H29  1  0.63261087  0.75365153  0.90481416  1  0.078952  4e-06  0.962638  0.0  0.088854  7.8e-05  1.034594  0.0  0.088439  4.6e-05  1.037241  0.0  0.110755  0.089354  8.4e-05  1.032677  0.0
H  H30  1  0.37452577  0.40588227  0.15067522  1  0.093515  1.7e-05  0.916478  0.0  0.111925  6.8e-05  0.972428  0.0  0.112249  3.8e-05  0.97248  0.0  0.119149  0.111898  9.9e-05  0.972322  0.0
H  H31  1  0.62547887  0.59411681  0.84931701  1  0.09358  3.5e-05  0.91649  0.0  0.112015  6.8e-05  0.972441  0.0  0.112343  3.9e-05  0.972497  0.0  0.119182  0.111989  9.8e-05  0.972333  0.0
H  H32  1  0.28638336  0.51428994  0.05403695  1  0.08382  -0.00023  0.937102  0.0  0.097619  -0.000165  0.998339  0.0  0.09934  -0.000225  0.996657  0.0  0.103828  0.096013  -8.5e-05  0.999782  0.0
H  H33  1  0.71363144  0.48570339  0.94595248  1  0.083796  -0.000216  0.937206  0.0  0.097689  -0.000166  0.998356  0.0  0.099413  -0.000225  0.996679  0.0  0.103848  0.096082  -8.5e-05  0.999799  0.0
H  H34  1  0.15377281  0.87381538  0.72626987  1  0.101531  -0.000184  0.950508  0.0  0.11085  -6.7e-05  1.012712  0.0  0.11466  -8.7e-05  1.010395  0.0  0.103616  0.107734  -8.5e-05  1.014664  0.0
H  H35  1  0.84622531  0.12619153  0.27374262  1  0.101514  -0.000175  0.950449  0.0  0.110792  -6.7e-05  1.012711  0.0  0.114605  -8.7e-05  1.010387  0.0  0.103586  0.107673  -8.5e-05  1.014671  0.0
H  H36  1  0.27293857  0.94032720  0.52061137  1  0.096083  2e-05  0.9629  0.0  0.106201  -7e-06  1.022144  0.0  0.109333  -1e-05  1.020751  0.0  0.101406  0.10387  -2e-06  1.023415  0.0
H  H37  1  0.72705257  0.05968252  0.47939707  1  0.096015  1.3e-05  0.962731  0.0  0.106108  -7e-06  1.022035  0.0  0.109237  -9e-06  1.02065  0.0  0.101377  0.103779  -2e-06  1.023305  0.0
H  H38  1  0.40560803  0.27694616  0.49834909  1  0.091192  3.9e-05  0.964478  0.0  0.098197  1.8e-05  1.032993  0.0  0.10191  1.3e-05  1.029947  0.0  0.100306  0.095298  1.2e-05  1.035561  0.0
H  H39  1  0.59439335  0.72306156  0.50165796  1  0.091318  2.9e-05  0.964289  0.0  0.098287  1.8e-05  1.032859  0.0  0.102002  1.3e-05  1.02981  0.0  0.100361  0.095391  1.2e-05  1.035419  0.0
H  H40  1  0.28196737  0.20938022  0.70748534  1  0.09804  -0.000327  0.95907  0.0  0.108315  -0.00027  1.019698  0.0  0.111421  -0.00029  1.018765  0.0  0.104258  0.105351  -0.000245  1.021364  0.0
H  H41  1  0.71804579  0.79061537  0.29252778  1  0.098132  -0.000337  0.959033  0.0  0.108361  -0.00027  1.019702  0.0  0.111471  -0.000289  1.01877  0.0  0.104267  0.105397  -0.000245  1.021366  0.0
H  H42  1  0.16593226  0.07510998  0.38331453  1  0.093466  -3e-06  0.969889  0.0  0.10019  -2.5e-05  1.036827  0.0  0.103621  -1.9e-05  1.034621  0.0  0.097563  0.097435  -3.4e-05  1.039054  0.0
H  H43  1  0.83406363  0.92488385  0.61669125  1  0.093526  9e-06  0.969752  0.0  0.100263  -2.5e-05  1.036682  0.0  0.103694  -1.9e-05  1.034476  0.0  0.097592  0.097508  -3.4e-05  1.03891  0.0
H  H44  1  0.13675241  0.97402237  0.26634461  1  0.10421  -0.000398  0.948061  0.0  0.11288  -0.000404  1.011647  0.0  0.116455  -0.000392  1.0094  0.0  0.105955  0.110032  -0.000408  1.013679  0.0
H  H45  1  0.86324467  0.02597701  0.73366087  1  0.104278  -0.000401  0.947988  0.0  0.112849  -0.000404  1.011703  0.0  0.116429  -0.000392  1.009447  0.0  0.105962  0.110002  -0.000408  1.013736  0.0
H  H46  1  0.57562384  0.99262598  0.11283964  1  0.111656  -0.000306  0.94815  0.0  0.118496  -0.000157  1.01192  0.0  0.122336  -0.000217  1.009558  0.0  0.107474  0.114977  -6.3e-05  1.014645  0.0
H  H47  1  0.42437241  0.00737992  0.88716558  1  0.111593  -0.000307  0.948295  0.0  0.118452  -0.000156  1.01202  0.0  0.122287  -0.000216  1.009654  0.0  0.107463  0.114926  -6.3e-05  1.014762  0.0
H  H48  1  0.60233731  0.11206982  0.21643592  1  0.090986  -0.000113  0.988938  0.0  0.098749  -0.000132  1.055288  0.0  0.101929  -0.000159  1.053525  0.0  0.100861  0.096405  -0.000121  1.05661  0.0
H  H49  1  0.39765768  0.88793150  0.78357290  1  0.091003  -0.000101  0.988952  0.0  0.098782  -0.000131  1.055266  0.0  0.101971  -0.000159  1.05348  0.0  0.100818  0.096437  -0.000121  1.056589  0.0
H  H50  1  0.25544457  0.24924002  0.97447563  1  0.312747  -8.1e-05  0.795016  0.0  0.308037  -7.1e-05  0.831211  0.0  0.313254  -8.9e-05  0.829038  0.0  0.350545  0.30416  -4.8e-05  0.833144  0.0
H  H51  1  0.74456151  0.75074710  0.02552554  1  0.312806  -8.3e-05  0.795139  0.0  0.308176  -7.1e-05  0.831199  0.0  0.313392  -9e-05  0.829028  0.0  0.350622  0.304298  -4.8e-05  0.833132  0.0
H  H52  1  0.21565849  0.39604513  0.92008159  1  0.302827  -0.000106  0.885753  0.0  0.282647  -8.6e-05  0.948491  0.0  0.292904  -9.6e-05  0.940671  0.0  0.302708  0.275153  -7.1e-05  0.954172  0.0
H  H53  1  0.78434879  0.60394565  0.07991710  1  0.303  -0.00011  0.88554  0.0  0.282646  -8.6e-05  0.948512  0.0  0.292901  -9.6e-05  0.9407  0.0  0.3027  0.275154  -7e-05  0.954191  0.0
H  H54  1  0.64700683  0.24037335  0.94241570  1  0.400519  -7.2e-05  0.921579  0.0  0.366962  0.00044  0.992275  0.0  0.378617  0.000272  0.975557  0.0  0.278617  0.358937  0.000553  1.003697  0.0
H  H55  1  0.35298724  0.75962509  0.05758640  1  0.400571  -7.3e-05  0.92151  0.0  0.367047  0.00044  0.992161  0.0  0.378702  0.000272  0.975445  0.0  0.278654  0.359023  0.000553  1.003583  0.0
H  H56  1  0.71065483  0.24400313  0.03349138  1  0.405342  -0.00047  0.864201  0.0  0.383977  4.4e-05  0.930731  0.0  0.392622  -0.000141  0.920379  0.0  0.301569  0.378341  0.000154  0.937142  0.0
H  H57  1  0.28934044  0.75600086  0.96651041  1  0.405334  -0.000476  0.864234  0.0  0.383963  4.4e-05  0.930771  0.0  0.392608  -0.000141  0.920419  0.0  0.301567  0.378328  0.000154  0.937182  0.0
C  C58  1  0.11815538  0.40952688  0.77487810  1  0.671387  0.005736  3.899806  0.006  0.618798  0.010249  4.20368  0.009  0.655298  0.007328  4.195914  0.007  0.206234  0.594185  0.012783  4.206934  0.011
C  C59  1  0.88184296  0.59047235  0.22511908  1  0.671545  0.005739  3.89959  0.006  0.618995  0.010244  4.203429  0.009  0.655497  0.007324  4.195658  0.007  0.206333  0.594385  0.012777  4.20668  0.011
C  C60  1  0.12486315  0.41668550  0.66048243  1  -0.278002  0.000188  3.745751  0.0  -0.263537  0.001745  4.00963  0.001  -0.284191  0.000921  4.029665  0.001  -0.042455  -0.25041  0.002709  3.996675  0.002
C  C61  1  0.87513312  0.58331189  0.33951374  1  -0.277975  0.000214  3.74575  0.0  -0.26362  0.001743  4.009701  0.001  -0.284275  0.000922  4.029735  0.001  -0.04245  -0.250488  0.002709  3.996745  0.002
C  C62  1  0.03950629  0.34345561  0.64367320  1  0.396542  0.005835  3.81913  0.006  0.363686  0.010755  4.091221  0.01  0.391969  0.007701  4.095373  0.008  0.126997  0.34449  0.014057  4.087534  0.013
C  C63  1  0.96049204  0.65654269  0.35632364  1  0.396606  0.005821  3.819012  0.006  0.363827  0.010763  4.091044  0.01  0.392115  0.007701  4.095189  0.008  0.127084  0.344631  0.014064  4.087355  0.013
C  C64  1  0.07034298  0.35464302  0.52785485  1  -0.102293  0.00044  3.787974  0.0  -0.088617  0.000827  4.03389  0.001  -0.100161  0.000465  4.058043  0.0  -0.024416  -0.081  0.001057  4.017116  0.001
C  C65  1  0.92965441  0.64535713  0.47214070  1  -0.102496  0.000464  3.788255  0.0  -0.088803  0.00082  4.034158  0.001  -0.100342  0.000467  4.058316  0.0  -0.024437  -0.081197  0.001056  4.017417  0.001
C  C66  1  0.99840721  0.27998871  0.50564542  1  -0.167114  0.000889  3.769579  0.001  -0.207776  0.001373  4.035302  0.001  -0.205451  0.000946  4.051953  0.001  -0.095836  -0.208747  0.002226  4.02333  0.002
C  C67  1  0.00159538  0.72001039  0.49434650  1  -0.167077  0.000929  3.769485  0.001  -0.207687  0.001372  4.035215  0.001  -0.205362  0.000957  4.051864  0.001  -0.095844  -0.208663  0.002227  4.023248  0.002
C  C68  1  0.02898760  0.28759778  0.39771959  1  0.198129  -0.000474  3.762013  0.0  0.185487  0.000291  4.053144  0.0  0.18944  -4.7e-05  4.064893  0.0  0.089691  0.182395  0.00051  4.045025  0.0
C  C69  1  0.97101702  0.71240131  0.60227337  1  0.198208  -0.000508  3.761892  0.0  0.185539  0.000295  4.053027  0.0  0.189501  -7e-05  4.06478  0.0  0.089729  0.182445  0.000509  4.044912  0.0
C  C70  1  0.13188682  0.36924828  0.30255460  1  0.138073  0.001099  3.816775  0.001  0.116361  0.001866  4.082109  0.001  0.127149  0.001288  4.101991  0.001  0.104866  0.109215  0.002904  4.068372  0.002
C  C71  1  0.86811673  0.63074991  0.69743896  1  0.138018  0.001123  3.816908  0.001  0.116384  0.001863  4.082196  0.001  0.127148  0.001304  4.102109  0.001  0.104797  0.109236  0.002906  4.068462  0.002
C  C72  1  0.20245983  0.44422587  0.32494645  1  -0.220233  -0.001279  3.65663  -0.001  -0.252299  -0.001083  3.927404  -0.001  -0.259806  -0.001209  3.944875  -0.001  -0.094365  -0.247489  -0.001166  3.915931  -0.001
C  C73  1  0.79753762  0.55577708  0.67505016  1  -0.220481  -0.001379  3.656662  -0.001  -0.25261  -0.001073  3.927565  -0.001  -0.260102  -0.001243  3.945049  -0.001  -0.094427  -0.247797  -0.001168  3.916087  -0.001
C  C74  1  0.17371617  0.43650634  0.43550723  1  0.182482  0.001447  3.755235  0.001  0.162419  0.002307  4.009717  0.002  0.172826  0.001663  4.030592  0.001  0.105521  0.155955  0.003219  3.995203  0.002
C  C75  1  0.82628134  0.56349563  0.56448609  1  0.18277  0.001447  3.755054  0.001  0.162611  0.002308  4.009726  0.002  0.172995  0.001671  4.030634  0.001  0.105574  0.156152  0.003221  3.995199  0.002
C  C76  1  0.21927123  0.49903882  0.56532342  1  0.119512  0.001165  3.663859  0.001  0.062432  0.002106  3.925046  0.001  0.079395  0.001294  3.937397  0.001  0.06155  0.051289  0.002978  3.917632  0.002
C  C77  1  0.78073027  0.50096033  0.43467092  1  0.119335  0.001145  3.663934  0.001  0.062339  0.002107  3.925145  0.001  0.079301  0.001297  3.937494  0.001  0.061469  0.051155  0.002978  3.917783  0.002
C  C78  1  0.33356731  0.61034741  0.36184020  1  0.083142  -6.4e-05  3.658433  0.0  0.057337  -6.6e-05  3.921065  0.0  0.060795  -0.0001  3.936646  0.0  -0.002006  0.055663  4e-06  3.909962  0.0
C  C79  1  0.66643411  0.38965084  0.63815599  1  0.083092  -0.000115  3.658417  0.0  0.057384  -6.4e-05  3.920978  0.0  0.060843  -0.000101  3.936554  0.0  -0.00201  0.055702  4e-06  3.909884  0.0
C  C80  1  0.47570277  0.58276932  0.30270384  1  -0.212618  0.000125  3.645585  0.0  -0.26155  0.000331  3.911413  0.0  -0.263405  0.00023  3.921997  0.0  -0.179418  -0.260068  0.000442  3.903874  0.0
C  C81  1  0.52429246  0.41722525  0.69729003  1  -0.212439  0.000123  3.645575  0.0  -0.261405  0.00033  3.911394  0.0  -0.26325  0.000232  3.921973  0.0  -0.179465  -0.259924  0.000442  3.903857  0.0
C  C82  1  0.45746038  0.65180070  0.37476771  1  -0.217598  -4.2e-05  3.660346  0.0  -0.261639  2e-05  3.91663  0.0  -0.26455  6e-06  3.93056  0.0  -0.177063  -0.259384  3.2e-05  3.906598  0.0
C  C83  1  0.54254378  0.34818732  0.62522983  1  -0.217728  1.7e-05  3.660243  0.0  -0.261852  2e-05  3.916537  0.0  -0.264762  6e-06  3.930463  0.0  -0.177078  -0.259595  3.2e-05  3.906506  0.0
C  C84  1  0.05524763  0.37078383  0.14549414  1  -0.029157  3e-06  3.663343  0.0  -0.089676  0.000114  3.928241  0.0  -0.085628  6.4e-05  3.939152  0.0  -0.061707  -0.092371  0.000196  3.920947  0.0
C  C85  1  0.94475807  0.62921710  0.85449858  1  -0.029096  2.5e-05  3.663545  0.0  -0.089621  0.000114  3.928461  0.0  -0.085575  6.4e-05  3.939368  0.0  -0.061708  -0.092275  0.000196  3.921112  0.0
C  C86  1  0.08934557  0.28486286  0.08787635  1  0.002033  -2.9e-05  3.539558  0.0  -0.066434  -6.8e-05  3.812603  0.0  -0.061804  -0.000162  3.820164  0.0  -0.063606  -0.069342  2.1e-05  3.807432  0.0
C  C87  1  0.91066091  0.71513253  0.91211918  1  0.002105  -8.3e-05  3.539428  0.0  -0.066322  -6.5e-05  3.812425  0.0  -0.061681  -0.000165  3.81997  0.0  -0.063591  -0.069242  2.1e-05  3.807248  0.0
C  C88  1  0.33824174  0.33860853  0.04124642  1  0.02017  4.5e-05  3.507938  0.0  -0.044997  0.000343  3.773919  0.0  -0.040564  0.000237  3.783885  0.0  -0.053338  -0.047807  0.000458  3.766679  0.0
C  C89  1  0.66176556  0.66138224  0.95875154  1  0.020431  0.000108  3.507746  0.0  -0.044733  0.000343  3.773814  0.0  -0.040295  0.000235  3.783784  0.0  -0.053332  -0.047572  0.000458  3.766635  0.0
C  C90  1  0.29355262  0.41539571  0.10963359  1  -0.030048  4.4e-05  3.637158  0.0  -0.087449  0.000155  3.895308  0.0  -0.084011  8.2e-05  3.907328  0.0  -0.057378  -0.089568  0.000205  3.886765  0.0
C  C91  1  0.70645504  0.58460052  0.89035767  1  -0.030263  -5.2e-05  3.637236  0.0  -0.087796  0.000156  3.895522  0.0  -0.084381  8.4e-05  3.907575  0.0  -0.057432  -0.089902  0.000206  3.886988  0.0
C  C92  1  0.20591991  0.04032886  0.72795954  1  -0.045834  -0.001676  3.738474  -0.001  -0.025726  -0.0005  3.973391  0.0  -0.030065  -0.001486  3.992613  -0.001  -0.008674  -0.025203  0.002434  3.96276  0.002
C  C93  1  0.79407937  0.95967702  0.27204724  1  -0.045775  -0.001636  3.738399  -0.001  -0.025483  -0.000498  3.973063  0.0  -0.029819  -0.001488  3.992282  -0.001  -0.008598  -0.024959  0.002434  3.962432  0.002
C  C94  1  0.20519532  0.96384831  0.67541803  1  -0.075813  0.002336  3.731857  0.002  -0.100746  0.003106  3.986337  0.003  -0.1017  0.002319  4.004542  0.002  -0.086021  -0.100055  0.0045  3.975529  0.003
C  C95  1  0.79480079  0.03615672  0.32459125  1  -0.075799  0.002285  3.731601  0.002  -0.100726  0.003105  3.986025  0.003  -0.101676  0.002321  4.004223  0.002  -0.086002  -0.100037  0.0045  3.975222  0.003
C  C96  1  0.27239690  0.00157904  0.55983392  1  -0.074526  -0.001749  3.724407  -0.001  -0.098359  -0.000565  3.977408  -0.001  -0.099312  -0.001371  3.998537  -0.001  -0.082629  -0.098376  0.001677  3.963818  0.001
C  C97  1  0.72759853  0.99843241  0.44016996  1  -0.074453  -0.001708  3.724165  -0.001  -0.098291  -0.000565  3.977199  -0.001  -0.099245  -0.001376  3.998325  -0.001  -0.082653  -0.098308  0.001675  3.963605  0.001
C  C98  1  0.34206260  0.11669442  0.49486812  1  -0.040511  0.001934  3.761237  0.002  -0.023118  0.002965  3.994889  0.002  -0.030317  0.002075  4.02082  0.002  -0.020921  -0.017557  0.004999  3.977743  0.003
C  C99  1  0.65792378  0.88332082  0.50513323  1  -0.04068  0.001944  3.761163  0.002  -0.023191  0.002964  3.99487  0.002  -0.030384  0.002081  4.0208  0.002  -0.02094  -0.017623  0.004999  3.977711  0.003
C  C100  1  0.34757628  0.19007949  0.54945895  1  -0.066055  -0.001648  3.732661  -0.001  -0.087894  -0.00059  3.982353  0.0  -0.088374  -0.001244  4.003449  -0.001  -0.081718  -0.088179  0.001025  3.968966  0.001
C  C101  1  0.65242137  0.80993468  0.45054189  1  -0.066133  -0.001579  3.732863  -0.001  -0.087939  -0.00059  3.982545  0.0  -0.088419  -0.00125  4.003643  -0.001  -0.081783  -0.088222  0.001023  3.969149  0.001
C  C102  1  0.27948541  0.15285843  0.66438158  1  -0.079169  0.002146  3.750592  0.002  -0.101336  0.002673  3.999266  0.002  -0.104035  0.002069  4.020997  0.002  -0.084294  -0.099987  0.003405  3.986989  0.003
C  C103  1  0.72052092  0.84714838  0.33563065  1  -0.079274  0.002122  3.750977  0.002  -0.101457  0.002672  3.999631  0.002  -0.10416  0.002071  4.021365  0.002  -0.084236  -0.100105  0.003405  3.987352  0.003
C  C104  1  0.41330909  0.16356239  0.37063608  1  0.381836  0.000195  3.74424  0.0  0.362113  0.001938  4.008034  0.001  0.384795  6.4e-05  4.009386  0.0  0.151606  0.343545  0.008182  4.010809  0.005
C  C105  1  0.58668293  0.83644363  0.62937367  1  0.382131  0.000129  3.744074  0.0  0.362122  0.001939  4.008263  0.001  0.384786  6.3e-05  4.009637  0.0  0.151654  0.343559  0.008176  4.011032  0.005
C  C106  1  0.38763113  0.09837240  0.30775661  1  -0.03032  0.002658  3.770166  0.002  -0.011676  0.00373  4.001049  0.003  -0.016561  0.00263  4.023099  0.002  -0.019431  -0.007826  0.005878  3.986918  0.004
C  C107  1  0.61236060  0.90162717  0.69225655  1  -0.03039  0.002676  3.770269  0.002  -0.01165  0.003732  4.001147  0.003  -0.016525  0.002629  4.023199  0.002  -0.019441  -0.007799  0.005878  3.987011  0.004
C  C108  1  0.25560596  0.05832136  0.32346514  1  -0.0981  -0.0016  3.765847  -0.001  -0.122284  -1.4e-05  4.024161  0.0  -0.122551  -0.001107  4.042265  -0.001  -0.091396  -0.122921  0.001791  4.013287  0.001
C  C109  1  0.74439223  0.94167890  0.67653827  1  -0.098247  -0.00169  3.76573  -0.001  -0.122442  -1.4e-05  4.024012  0.0  -0.122714  -0.001111  4.042117  -0.001  -0.091464  -0.123077  0.001789  4.013137  0.001
C  C110  1  0.23891561  0.00115691  0.25912985  1  -0.092888  0.002357  3.751434  0.002  -0.114876  0.002707  4.004343  0.002  -0.115281  0.00212  4.021861  0.002  -0.091139  -0.115114  0.00363  3.994486  0.003
C  C111  1  0.76108036  0.99884159  0.74087769  1  -0.09286  0.00238  3.75132  0.002  -0.114772  0.002706  4.004241  0.002  -0.115178  0.002123  4.021767  0.002  -0.091087  -0.115008  0.00363  3.994381  0.003
C  C112  1  0.35433150  0.97597346  0.18417087  1  -0.046231  -0.002331  3.747247  -0.001  -0.026439  -0.001152  3.983922  -0.001  -0.030605  -0.002141  4.00236  -0.001  -0.014569  -0.02575  0.001335  3.974257  0.001
C  C113  1  0.64566656  0.02402688  0.81583695  1  -0.046232  -0.002316  3.747255  -0.001  -0.026452  -0.001154  3.983938  -0.001  -0.030619  -0.002142  4.002375  -0.001  -0.014604  -0.025766  0.001332  3.974269  0.001
C  C114  1  0.48639815  0.01315873  0.17051849  1  -0.071356  0.002878  3.728271  0.003  -0.095412  0.003467  3.982304  0.003  -0.095191  0.002654  3.999328  0.002  -0.083908  -0.096129  0.004802  3.973313  0.004
C  C115  1  0.51359985  0.98684259  0.82949262  1  -0.071295  0.002903  3.728297  0.003  -0.09536  0.003468  3.982353  0.003  -0.095129  0.002657  3.999372  0.002  -0.083926  -0.096074  0.004804  3.973349  0.004
C  C116  1  0.50152832  0.07849978  0.22842413  1  -0.09032  -0.002746  3.750946  -0.002  -0.11072  -0.001942  3.998446  -0.001  -0.111692  -0.002161  4.018048  -0.001  -0.086269  -0.110724  -0.000908  3.986213  -0.001
C  C117  1  0.49846641  0.92149696  0.77158880  1  -0.090371  -0.002811  3.750943  -0.002  -0.110768  -0.001942  3.998385  -0.001  -0.111741  -0.002165  4.017984  -0.001  -0.08616  -0.110771  -0.000911  3.986154  -0.001
C  C118  1  0.13896831  0.00088117  0.85295141  1  0.67084  0.016681  3.870802  0.016  0.617546  0.025836  4.167314  0.023  0.653697  0.01945  4.158378  0.018  0.226  0.593223  0.032167  4.171793  0.027
C  C119  1  0.86102813  0.99913406  0.14705660  1  0.670888  0.016677  3.870493  0.016  0.617495  0.025828  4.167082  0.023  0.65364  0.019447  4.158145  0.018  0.226062  0.593176  0.032159  4.171563  0.027
C  C120  1  0.33393133  0.91077628  0.11893466  1  0.649998  0.008388  3.907051  0.008  0.597896  0.013686  4.20647  0.012  0.632857  0.010057  4.197656  0.009  0.211881  0.574016  0.017629  4.211652  0.015
C  C121  1  0.66606914  0.08922761  0.88106459  1  0.650086  0.008365  3.907034  0.008  0.597985  0.013685  4.206443  0.012  0.632945  0.010055  4.197629  0.009  0.211876  0.574109  0.017627  4.211619  0.015
N  N122  1  0.22660132  0.32044993  0.99810435  1  -0.268019  -0.000128  3.248243  0.0  -0.201541  -4.2e-05  3.464674  0.0  -0.215761  -9e-05  3.472226  0.0  -0.45809  -0.191837  1.4e-05  3.459849  0.0
N  N123  1  0.77340190  0.67954088  0.00189300  1  -0.268453  -0.000116  3.248269  0.0  -0.201895  -4.3e-05  3.464719  0.0  -0.216117  -9e-05  3.472263  0.0  -0.458206  -0.192178  1.4e-05  3.459907  0.0
N  N124  1  0.16305017  0.36720529  0.19710469  1  -0.186949  0.000509  3.389665  0.001  -0.105559  0.001247  3.634386  0.001  -0.125485  0.000752  3.659559  0.001  -0.296946  -0.091551  0.002009  3.616305  0.002
N  N125  1  0.83695855  0.63279375  0.80288815  1  -0.186804  0.000541  3.389661  0.001  -0.105414  0.001242  3.634421  0.001  -0.125326  0.000766  3.659604  0.001  -0.296925  -0.091416  0.00201  3.616327  0.002
N  N126  1  0.24460007  0.51110983  0.45769307  1  -0.108425  0.001271  3.528709  0.001  -0.017632  0.002878  3.743462  0.003  -0.036151  0.002153  3.768634  0.002  -0.22599  -0.005681  0.003641  3.725881  0.004
N  N127  1  0.75539518  0.48888851  0.54230368  1  -0.108301  0.001276  3.528744  0.001  -0.017484  0.002879  3.743469  0.003  -0.035995  0.002152  3.768645  0.002  -0.225937  -0.005527  0.003642  3.725884  0.004
O  O128  1  0.02375730  0.34189630  0.86327592  1  -0.662216  0.033971  2.051069  0.02  -0.599162  0.039235  2.320608  0.022  -0.628188  0.035122  2.304538  0.018  -0.325029  -0.5774  0.043751  2.330321  0.027
O  O129  1  0.97622711  0.65811609  0.13671966  1  -0.662187  0.033959  2.051163  0.02  -0.599152  0.039229  2.320686  0.022  -0.628179  0.03512  2.304617  0.018  -0.324995  -0.577394  0.043745  2.330397  0.027
O  O130  1  0.70993429  0.29012666  0.95383684  1  -0.827255  0.021547  1.829852  0.014  -0.778076  0.030751  2.018179  0.021  -0.799005  0.027569  1.989158  0.018  -0.575009  -0.761781  0.034026  2.037034  0.024
O  O131  1  0.29005683  0.70987553  0.04616511  1  -0.827289  0.021555  1.829904  0.014  -0.778122  0.030753  2.01817  0.021  -0.799053  0.027572  1.989149  0.018  -0.575037  -0.761828  0.034029  2.037025  0.024
O  O132  1  0.20710672  0.46969688  0.78129312  1  -0.631435  0.005802  1.893048  0.007  -0.588497  0.009622  2.114197  0.011  -0.613274  0.007305  2.104948  0.008  -0.334903  -0.569572  0.011805  2.118844  0.013
O  O133  1  0.79290247  0.53028547  0.21870198  1  -0.631602  0.005797  1.892687  0.007  -0.588591  0.009621  2.113809  0.011  -0.613368  0.007302  2.104555  0.008  -0.335019  -0.569665  0.011802  2.118456  0.013
O  O134  1  0.94184776  0.27025748  0.72154880  1  -0.570122  0.029152  2.079786  0.017  -0.51336  0.032998  2.347627  0.017  -0.539998  0.03055  2.337023  0.015  -0.294914  -0.493222  0.035053  2.353787  0.019
O  O135  1  0.05815457  0.72973799  0.27844832  1  -0.570242  0.029153  2.079828  0.017  -0.513493  0.032998  2.347654  0.017  -0.540117  0.030549  2.337018  0.015  -0.29504  -0.49335  0.035052  2.353803  0.019
O  O136  1  0.10026919  0.08463308  0.88715076  1  -0.642773  0.028103  2.053466  0.012  -0.586848  0.036802  2.326228  0.017  -0.615066  0.032612  2.310012  0.013  -0.309054  -0.566518  0.041998  2.33713  0.022
O  O137  1  0.89972399  0.91537757  0.11285907  1  -0.64281  0.028105  2.053383  0.012  -0.58687  0.036799  2.32619  0.017  -0.615088  0.032606  2.309979  0.013  -0.309109  -0.566543  0.041996  2.337093  0.022
O  O138  1  0.13065233  0.88467963  0.91722770  1  -0.66322  0.036591  2.027849  0.025  -0.598519  0.045967  2.287172  0.031  -0.628293  0.04099  2.272798  0.026  -0.308857  -0.575602  0.049725  2.295072  0.035
O  O139  1  0.86934096  0.11533096  0.08277846  1  -0.663288  0.036586  2.027691  0.025  -0.598581  0.045967  2.287074  0.031  -0.628364  0.040993  2.272726  0.026  -0.308967  -0.575667  0.049726  2.29498  0.035
O  O140  1  0.49434168  0.25362398  0.31973564  1  -0.468027  0.001358  1.870266  0.002  -0.431496  0.00342  2.067736  0.004  -0.445043  0.00179  2.061708  0.002  -0.280781  -0.425324  0.00867  2.074592  0.009
O  O141  1  0.50566862  0.74637530  0.68027366  1  -0.468157  0.001403  1.870317  0.002  -0.431512  0.003416  2.067929  0.004  -0.445052  0.001791  2.061909  0.002  -0.280814  -0.425347  0.008665  2.0748  0.009
O  O142  1  0.22230048  0.93547107  0.08903348  1  -0.66347  0.029827  2.044252  0.015  -0.60441  0.033993  2.315218  0.015  -0.634096  0.030892  2.300143  0.012  -0.325532  -0.582297  0.037488  2.324629  0.018
O  O143  1  0.77770436  0.06453732  0.91096080  1  -0.663518  0.029844  2.044296  0.015  -0.604441  0.033993  2.315249  0.015  -0.634127  0.030893  2.300175  0.012  -0.325495  -0.582329  0.037489  2.32466  0.018
O  O144  1  0.42580380  0.83695085  0.09811179  1  -0.625758  0.004907  1.933812  0.006  -0.571128  0.009194  2.153851  0.01  -0.59645  0.006623  2.145201  0.008  -0.319557  -0.553273  0.012504  2.159452  0.014
O  O145  1  0.57419333  0.16305039  0.90189366  1  -0.625812  0.004903  1.933795  0.006  -0.571169  0.009194  2.153839  0.01  -0.596491  0.006619  2.145187  0.008  -0.319558  -0.553313  0.012502  2.159438  0.014
F  F146  1  0.96023478  0.20843104  0.38208402  1  -0.192062  -2.7e-05  1.214921  0.0  -0.137489  -6e-06  1.381914  0.0  -0.147494  -2.3e-05  1.373801  0.0  -0.085969  -0.129994  -1e-05  1.387427  0.0
F  F147  1  0.03976773  0.79156716  0.61790975  1  -0.192034  -2.8e-05  1.214876  0.0  -0.137461  -7e-06  1.381876  0.0  -0.147466  -2.5e-05  1.373761  0.0  -0.085916  -0.129966  -1e-05  1.38739  0.0
