# generated using pymatgen
data_PrH15C11SO9
_symmetry_space_group_name_H-M   'P 1'
_cell_length_a   8.21246665
_cell_length_b   9.83011901
_cell_length_c   18.70300000
_cell_angle_alpha   90.00000000
_cell_angle_beta   102.80282855
_cell_angle_gamma   90.00000000
_symmetry_Int_Tables_number   1
_chemical_formula_structural   PrH15C11SO9
_chemical_formula_sum   'Pr4 H60 C44 S4 O36'
_cell_volume   1472.34618133
_cell_formula_units_Z   4
loop_
 _symmetry_equiv_pos_site_id
 _symmetry_equiv_pos_as_xyz
  1  'x, y, z'
loop_
 _atom_site_type_symbol
 _atom_site_label
 _atom_site_symmetry_multiplicity
 _atom_site_fract_x
 _atom_site_fract_y
 _atom_site_fract_z
 _atom_site_occupancy
 _atom_site_hle17_bader_spin_density
 _atom_site_hle17_ddec_charge
 _atom_site_hle17_ddec_spin_density
 _atom_site_hle17_ddec_sum_bond_order
 _atom_site_hle17_magmom
 _atom_site_hse06_10hf_bader_spin_density
 _atom_site_hse06_10hf_ddec_charge
 _atom_site_hse06_10hf_ddec_spin_density
 _atom_site_hse06_10hf_ddec_sum_bond_order
 _atom_site_hse06_10hf_magmom
 _atom_site_hse06_bader_spin_density
 _atom_site_hse06_ddec_charge
 _atom_site_hse06_ddec_spin_density
 _atom_site_hse06_ddec_sum_bond_order
 _atom_site_hse06_magmom
 _atom_site_pbe_bader_charge
 _atom_site_pbe_bader_spin_density
 _atom_site_pbe_cm5_charge
 _atom_site_pbe_ddec_charge
 _atom_site_pbe_ddec_spin_density
 _atom_site_pbe_ddec_sum_bond_order
 _atom_site_pbe_magmom
Pr  Pr0  1  0.02283758  0.71676243  0.99539919  1  0  2.346559  0  1.584217  0  0  2.236983  0  1.946373  0  0  2.273503  0  1.905601  0  2.282731  0  1.496569  2.160732  0  2.067013  0
Pr  Pr1  1  0.47715545  0.21676645  0.50460427  1  0  2.346643  0  1.584097  0  0  2.237066  0  1.946224  0  0  2.273587  0  1.905455  0  2.282666  0  1.49666  2.160732  0  2.067011  0
Pr  Pr2  1  0.97715721  0.28323157  0.00459950  1  0  2.346673  0  1.584056  0  0  2.237085  0  1.946175  0  0  2.273604  0  1.905404  0  2.282635  0  1.496662  2.160744  0  2.066978  0
Pr  Pr3  1  0.52284559  0.78324281  0.49540358  1  0  2.34663  0  1.584092  0  0  2.23706  0  1.946223  0  0  2.27358  0  1.905452  0  2.282791  0  1.496658  2.160833  0  2.066824  0
H  H4  1  0.35185407  0.81192506  0.09718299  1  0  0.422898  0  0.842927  0  0  0.399783  0  0.911866  0  0  0.407279  0  0.900896  0  0.609804  0  0.317032  0.394367  0  0.918187  0
H  H5  1  0.14815145  0.31193213  0.40282063  1  0  0.422854  0  0.843029  0  0  0.39975  0  0.911915  0  0  0.407246  0  0.900945  0  0.609894  0  0.317051  0.394334  0  0.918252  0
H  H6  1  0.64814697  0.18805062  0.90281899  1  0  0.422785  0  0.842999  0  0  0.399669  0  0.91201  0  0  0.407166  0  0.901039  0  0.610699  0  0.316967  0.394255  0  0.918256  0
H  H7  1  0.85185458  0.68806288  0.59718183  1  0  0.422812  0  0.842982  0  0  0.399705  0  0.911958  0  0  0.407201  0  0.900988  0  0.609723  0  0.317017  0.394291  0  0.918222  0
H  H8  1  0.80287285  0.95356730  0.00693269  1  0  0.423706  0  0.886009  0  0  0.39208  0  0.951655  0  0  0.403367  0  0.935252  0  0.639175  0  0.297359  0.384428  0  0.962461  0
H  H9  1  0.69713619  0.45356216  0.49306992  1  0  0.423476  0  0.886304  0  0  0.391908  0  0.951881  0  0  0.403196  0  0.935477  0  0.638853  0  0.297295  0.384255  0  0.962689  0
H  H10  1  0.19714192  0.04643077  0.99306366  1  0  0.42368  0  0.886035  0  0  0.392055  0  0.951679  0  0  0.403343  0  0.935276  0  0.639212  0  0.297358  0.384407  0  0.962479  0
H  H11  1  0.30286859  0.54643998  0.50693402  1  0  0.423439  0  0.886352  0  0  0.391861  0  0.951948  0  0  0.403149  0  0.935544  0  0.638909  0  0.297286  0.384207  0  0.962758  0
H  H12  1  0.41281463  0.68562751  0.05827422  1  0  0.450724  0  0.834946  0  0  0.419997  0  0.897117  0  0  0.429911  0  0.882534  0  0.638959  0  0.307671  0.412774  0  0.907641  0
H  H13  1  0.08717090  0.18564475  0.44172851  1  0  0.450831  0  0.8348  0  0  0.420117  0  0.896955  0  0  0.43003  0  0.882374  0  0.63915  0  0.307779  0.412895  0  0.907478  0
H  H14  1  0.58716393  0.31435021  0.94171861  1  0  0.450739  0  0.834921  0  0  0.419998  0  0.89712  0  0  0.429917  0  0.882528  0  0.639134  0  0.307676  0.412775  0  0.907645  0
H  H15  1  0.91283263  0.81436044  0.55828012  1  0  0.450784  0  0.834859  0  0  0.42004  0  0.897061  0  0  0.429957  0  0.882473  0  0.63909  0  0.307689  0.412817  0  0.907586  0
H  H16  1  0.68754114  0.82396154  0.00630996  1  0  0.432109  0  0.823224  0  0  0.415705  0  0.876269  0  0  0.424247  0  0.865856  0  0.619091  0  0.321955  0.409542  0  0.882835  0
H  H17  1  0.81247914  0.32396454  0.49368894  1  0  0.432141  0  0.823083  0  0  0.415728  0  0.87614  0  0  0.424268  0  0.865789  0  0.618935  0  0.321959  0.409567  0  0.882704  0
H  H18  1  0.31249736  0.17602228  0.99368764  1  0  0.432137  0  0.823054  0  0  0.415708  0  0.876149  0  0  0.424248  0  0.865812  0  0.618918  0  0.321912  0.409546  0  0.882715  0
H  H19  1  0.18751190  0.67602946  0.50631313  1  0  0.432108  0  0.823151  0  0  0.415691  0  0.876219  0  0  0.424232  0  0.865848  0  0.618868  0  0.321913  0.409529  0  0.882786  0
H  H20  1  0.31424180  0.66478544  0.79261266  1  0  0.097743  0  0.96602  0  0  0.108209  0  1.027947  0  0  0.110663  0  1.027451  0  0.110454  0  0.106201  0.10623  0  1.028832  0
H  H21  1  0.18575622  0.16477725  0.70738969  1  0  0.097803  0  0.965991  0  0  0.108266  0  1.027908  0  0  0.110718  0  1.027419  0  0.110468  0  0.106237  0.106286  0  1.028792  0
H  H22  1  0.68572802  0.33525942  0.20739697  1  0  0.097852  0  0.965981  0  0  0.108349  0  1.027851  0  0  0.110802  0  1.027359  0  0.110466  0  0.10631  0.106369  0  1.028732  0
H  H23  1  0.81424107  0.83519843  0.29261566  1  0  0.097753  0  0.965978  0  0  0.108269  0  1.02784  0  0  0.11072  0  1.027352  0  0.110264  0  0.106245  0.106289  0  1.028725  0
H  H24  1  0.21061545  0.67679954  0.65724962  1  0  0.092238  0  0.970957  0  0  0.100293  0  1.035956  0  0  0.103211  0  1.035141  0  0.071889  0  0.099589  0.098004  0  1.037068  0
H  H25  1  0.28938007  0.17678118  0.84275409  1  0  0.092193  0  0.971134  0  0  0.100296  0  1.036071  0  0  0.103213  0  1.035259  0  0.07167  0  0.099612  0.098002  0  1.037191  0
H  H26  1  0.78941305  0.32327177  0.34275663  1  0  0.092205  0  0.971283  0  0  0.100212  0  1.036304  0  0  0.103125  0  1.035499  0  0.072239  0  0.099582  0.097922  0  1.03742  0
H  H27  1  0.71059974  0.82318942  0.15725384  1  0  0.092205  0  0.97099  0  0  0.100296  0  1.035941  0  0  0.103211  0  1.035135  0  0.071774  0  0.099593  0.098008  0  1.037053  0
H  H28  1  0.01318134  0.49866131  0.59265081  1  0  0.095464  0  0.956278  0  0  0.106357  0  1.01515  0  0  0.110217  0  1.011805  0  0.09919  0  0.1042  0.103388  0  1.018062  0
H  H29  1  0.48683541  0.99864915  0.90734801  1  0  0.095443  0  0.956366  0  0  0.106401  0  1.01516  0  0  0.110265  0  1.011806  0  0.099231  0  0.104218  0.10343  0  1.018076  0
H  H30  1  0.98689961  0.50140186  0.40732793  1  0  0.095473  0  0.956645  0  0  0.106375  0  1.01544  0  0  0.110238  0  1.01209  0  0.099743  0  0.104212  0.103405  0  1.018354  0
H  H31  1  0.51316437  0.00132755  0.09265919  1  0  0.095322  0  0.956443  0  0  0.106386  0  1.015123  0  0  0.11025  0  1.011769  0  0.099347  0  0.1042  0.103412  0  1.018044  0
H  H32  1  0.91535252  0.31604602  0.66332721  1  0  0.11279  0  0.955381  0  0  0.122011  0  1.013848  0  0  0.125429  0  1.012462  0  0.127665  0  0.109963  0.119374  0  1.01527  0
H  H33  1  0.58466277  0.81603895  0.83666853  1  0  0.112721  0  0.955269  0  0  0.121991  0  1.013704  0  0  0.125405  0  1.012323  0  0.127608  0  0.109937  0.119352  0  1.01513  0
H  H34  1  0.08469721  0.68399782  0.33663245  1  0  0.112652  0  0.95529  0  0  0.121779  0  1.013862  0  0  0.125229  0  1.012444  0  0.127247  0  0.109901  0.119146  0  1.015272  0
H  H35  1  0.41534451  0.18394691  0.16333833  1  0  0.112682  0  0.955299  0  0  0.12187  0  1.013808  0  0  0.125362  0  1.01233  0  0.127808  0  0.10989  0.119236  0  1.015221  0
H  H36  1  0.02701950  0.30091497  0.79956058  1  0  0.099716  0  0.976195  0  0  0.107191  0  1.0447  0  0  0.110576  0  1.042514  0  0.091623  0  0.10862  0.104672  0  1.046579  0
H  H37  1  0.47297478  0.80090587  0.70043659  1  0  0.099788  0  0.97627  0  0  0.107216  0  1.044829  0  0  0.110598  0  1.042639  0  0.091461  0  0.108645  0.104692  0  1.04671  0
H  H38  1  0.97296406  0.69910649  0.20040066  1  0  0.099653  0  0.976292  0  0  0.10709  0  1.044906  0  0  0.110474  0  1.042718  0  0.091587  0  0.108585  0.104575  0  1.046773  0
H  H39  1  0.52704873  0.19907999  0.29957024  1  0  0.099636  0  0.976409  0  0  0.107169  0  1.044846  0  0  0.110557  0  1.042666  0  0.091242  0  0.10865  0.104653  0  1.046718  0
H  H40  1  0.77427125  0.37008809  0.81456191  1  0  0.101055  0  0.938407  0  0  0.115287  0  1.003531  0  0  0.117705  0  1.00206  0  0.026494  0  0.105821  0.113917  0  1.003878  0
H  H41  1  0.72571033  0.87009221  0.68543269  1  0  0.101054  0  0.938352  0  0  0.115295  0  1.003462  0  0  0.117709  0  1.001997  0  0.026467  0  0.105865  0.11393  0  1.003802  0
H  H42  1  0.22574352  0.62990692  0.18543766  1  0  0.101028  0  0.938381  0  0  0.115294  0  1.003461  0  0  0.117715  0  1.001984  0  0.026282  0  0.105833  0.113925  0  1.003807  0
H  H43  1  0.27426324  0.12991806  0.31456768  1  0  0.101018  0  0.93836  0  0  0.115287  0  1.003457  0  0  0.117705  0  1.001989  0  0.026461  0  0.105882  0.11392  0  1.003803  0
H  H44  1  0.59326510  0.43956233  0.83555935  1  0  0.118312  0  0.966243  0  0  0.133587  0  1.024882  0  0  0.136147  0  1.024171  0  0.126248  0  0.106074  0.131665  0  1.025773  0
H  H45  1  0.90672521  0.93956034  0.66443931  1  0  0.118243  0  0.966223  0  0  0.133542  0  1.024815  0  0  0.136101  0  1.024102  0  0.12627  0  0.106059  0.131621  0  1.025711  0
H  H46  1  0.40673593  0.56041946  0.16443567  1  0  0.118263  0  0.966272  0  0  0.133564  0  1.024884  0  0  0.136125  0  1.024172  0  0.126195  0  0.106054  0.131642  0  1.025778  0
H  H47  1  0.09326583  0.06043264  0.33556757  1  0  0.118303  0  0.966138  0  0  0.133574  0  1.024819  0  0  0.136132  0  1.024108  0  0.126229  0  0.10607  0.131654  0  1.025709  0
H  H48  1  0.77878532  0.56782019  0.72680192  1  0  0.06049  0  0.94661  0  0  0.078413  0  1.008237  0  0  0.078637  0  1.009828  0  0.028041  0  0.087146  0.078067  0  1.007534  0
H  H49  1  0.72120749  0.06781200  0.77319858  1  0  0.060506  0  0.94674  0  0  0.078415  0  1.008384  0  0  0.078637  0  1.009982  0  0.027959  0  0.087118  0.078061  0  1.007671  0
H  H50  1  0.22122071  0.43216771  0.27319465  1  0  0.06046  0  0.946697  0  0  0.078378  0  1.00834  0  0  0.078604  0  1.009923  0  0.028093  0  0.087136  0.078027  0  1.007633  0
H  H51  1  0.27878230  0.93218098  0.22680871  1  0  0.06049  0  0.946741  0  0  0.078432  0  1.008338  0  0  0.078652  0  1.009929  0  0.028107  0  0.087159  0.078086  0  1.007634  0
H  H52  1  0.59841352  0.63315307  0.75010671  1  0  0.058965  0  0.957863  0  0  0.076781  0  1.023001  0  0  0.076876  0  1.023801  0  0.016371  0  0.089095  0.076437  0  1.023005  0
H  H53  1  0.90158304  0.13314691  0.74989950  1  0  0.059058  0  0.957882  0  0  0.07686  0  1.023008  0  0  0.076957  0  1.023816  0  0.01633  0  0.089132  0.076505  0  1.023005  0
H  H54  1  0.40160001  0.36684093  0.24989380  1  0  0.059054  0  0.9578  0  0  0.076864  0  1.022926  0  0  0.076956  0  1.023743  0  0.01607  0  0.089159  0.076514  0  1.022928  0
H  H55  1  0.09841300  0.86684810  0.25011428  1  0  0.05901  0  0.957799  0  0  0.076817  0  1.022926  0  0  0.076907  0  1.023737  0  0.016328  0  0.089124  0.076472  0  1.022929  0
H  H56  1  0.62120115  0.34910971  0.68345699  1  0  0.130469  0  0.963897  0  0  0.144609  0  1.024473  0  0  0.147831  0  1.022615  0  0.118118  0  0.112422  0.142578  0  1.02513  0
H  H57  1  0.87877668  0.84910671  0.81654687  1  0  0.130346  0  0.964036  0  0  0.144545  0  1.024485  0  0  0.14777  0  1.022622  0  0.118032  0  0.11236  0.142525  0  1.025148  0
H  H58  1  0.37879739  0.65088632  0.31654207  1  0  0.130472  0  0.963849  0  0  0.144571  0  1.024489  0  0  0.147786  0  1.02263  0  0.118154  0  0.112415  0.142539  0  1.025147  0
H  H59  1  0.12119563  0.15088525  0.18345872  1  0  0.130512  0  0.963855  0  0  0.144627  0  1.024468  0  0  0.147853  0  1.022607  0  0.118159  0  0.112428  0.142596  0  1.025125  0
H  H60  1  0.44114277  0.41832352  0.70378153  1  0  0.10884  0  0.931432  0  0  0.124969  0  0.989221  0  0  0.126196  0  0.990693  0  0.062652  0  0.102717  0.124049  0  0.988394  0
H  H61  1  0.05883777  0.91829916  0.79621965  1  0  0.108886  0  0.931487  0  0  0.124981  0  0.989213  0  0  0.126205  0  0.990684  0  0.062806  0  0.102727  0.124073  0  0.988393  0
H  H62  1  0.55885951  0.58167048  0.29622538  1  0  0.108793  0  0.931526  0  0  0.124971  0  0.989252  0  0  0.126194  0  0.990725  0  0.062723  0  0.102723  0.124052  0  0.988425  0
H  H63  1  0.94114079  0.08167551  0.20378655  1  0  0.108862  0  0.931351  0  0  0.124983  0  0.989162  0  0  0.126213  0  0.990638  0  0.063122  0  0.102709  0.124064  0  0.988334  0
C  C64  1  0.17921425  0.47982634  0.80291525  1  0  -0.132463  0  3.741742  0  0  -0.102664  0  3.982625  0  0  -0.11029  0  4.005805  0  -0.216158  0  -0.016446  -0.097965  0  3.967678  0
C  C65  1  0.32078252  0.97981825  0.69708216  1  0  -0.132518  0  3.7421  0  0  -0.10266  0  3.982881  0  0  -0.110283  0  4.006058  0  -0.216123  0  -0.016471  -0.097968  0  3.967948  0
C  C66  1  0.82076556  0.52020123  0.19707129  1  0  -0.132396  0  3.742532  0  0  -0.102232  0  3.982917  0  0  -0.109838  0  4.006068  0  -0.216473  0  -0.016365  -0.097579  0  3.968045  0
C  C67  1  0.67923600  0.02016557  0.30292525  1  0  -0.132367  0  3.742042  0  0  -0.102494  0  3.982815  0  0  -0.110119  0  4.005991  0  -0.216423  0  -0.016355  -0.097798  0  3.967876  0
C  C68  1  0.22920369  0.58760835  0.76391421  1  0  -0.054889  0  3.73415  0  0  -0.078673  0  3.97583  0  0  -0.078128  0  3.996827  0  -0.031591  0  -0.080399  -0.078784  0  3.961968  0
C  C69  1  0.27079558  0.08759406  0.73608612  1  0  -0.054887  0  3.734238  0  0  -0.078696  0  3.975929  0  0  -0.078149  0  3.996918  0  -0.032226  0  -0.080354  -0.078804  0  3.962067  0
C  C70  1  0.77078486  0.41243550  0.23608334  1  0  -0.055288  0  3.735043  0  0  -0.079215  0  3.976704  0  0  -0.078664  0  3.997669  0  -0.032674  0  -0.080626  -0.079318  0  3.962863  0
C  C71  1  0.72920670  0.91238366  0.26392132  1  0  -0.054931  0  3.734473  0  0  -0.078794  0  3.976178  0  0  -0.078233  0  3.997142  0  -0.031708  0  -0.080394  -0.078904  0  3.962317  0
C  C72  1  0.16936571  0.59444346  0.68815008  1  0  -0.080063  0  3.755515  0  0  -0.089483  0  4.004096  0  0  -0.09312  0  4.025772  0  -0.069838  0  -0.090761  -0.087073  0  3.98976  0
C  C73  1  0.33063356  0.09443121  0.81185185  1  0  -0.080136  0  3.75552  0  0  -0.089598  0  4.004101  0  0  -0.093235  0  4.025778  0  -0.069048  0  -0.090859  -0.087188  0  3.989765  0
C  C74  1  0.83065655  0.40561157  0.31184540  1  0  -0.08007  0  3.75604  0  0  -0.089475  0  4.004639  0  0  -0.093107  0  4.026316  0  -0.069065  0  -0.090861  -0.087065  0  3.990294  0
C  C75  1  0.66936123  0.90554448  0.18815700  1  0  -0.080183  0  3.755772  0  0  -0.089634  0  4.004408  0  0  -0.093272  0  4.026088  0  -0.069873  0  -0.090899  -0.087222  0  3.990066  0
C  C76  1  0.05924734  0.49508251  0.65194576  1  0  -0.064996  0  3.74606  0  0  -0.080352  0  3.99239  0  0  -0.079792  0  4.010538  0  -0.098599  0  -0.085467  -0.080788  0  3.98051  0
C  C77  1  0.44075817  0.99507137  0.84805357  1  0  -0.064973  0  3.745736  0  0  -0.080369  0  3.992067  0  0  -0.079808  0  4.010213  0  -0.098282  0  -0.085476  -0.080806  0  3.98019  0
C  C78  1  0.94079865  0.50496540  0.34803599  1  0  -0.064728  0  3.745866  0  0  -0.080056  0  3.992039  0  0  -0.079495  0  4.010197  0  -0.098333  0  -0.08531  -0.080493  0  3.980161  0
C  C79  1  0.55924286  0.00490431  0.15195375  1  0  -0.064741  0  3.745783  0  0  -0.080238  0  3.992078  0  0  -0.079682  0  4.01025  0  -0.098663  0  -0.085375  -0.080673  0  3.980198  0
C  C80  1  0.00604498  0.39012040  0.69161851  1  0  -0.058809  0  3.71665  0  0  -0.068229  0  3.963778  0  0  -0.071024  0  3.983637  0  0.002039  0  -0.081201  -0.066335  0  3.95071  0
C  C81  1  0.49396427  0.89011435  0.80837691  1  0  -0.05855  0  3.716123  0  0  -0.068018  0  3.96327  0  0  -0.070812  0  3.983133  0  0.001784  0  -0.081082  -0.066124  0  3.950197  0
C  C82  1  0.99398976  0.60991734  0.30834985  1  0  -0.058671  0  3.716022  0  0  -0.068025  0  3.963236  0  0  -0.070858  0  3.983099  0  0.001958  0  -0.080936  -0.066127  0  3.95016  0
C  C83  1  0.50604550  0.10987354  0.19163072  1  0  -0.058672  0  3.716071  0  0  -0.068059  0  3.963245  0  0  -0.070912  0  3.983086  0  0.002135  0  -0.08101  -0.066163  0  3.950172  0
C  C84  1  0.06690815  0.38187635  0.76747383  1  0  -0.075752  0  3.753543  0  0  -0.100301  0  4.001202  0  0  -0.100791  0  4.022825  0  -0.049646  0  -0.082098  -0.099779  0  3.98702  0
C  C85  1  0.43308862  0.88186827  0.73252091  1  0  -0.075967  0  3.753738  0  0  -0.100502  0  4.001386  0  0  -0.100988  0  4.023001  0  -0.049362  0  -0.082171  -0.099972  0  3.9872  0
C  C86  1  0.93309038  0.61815528  0.23249367  1  0  -0.075733  0  3.753483  0  0  -0.100394  0  4.001015  0  0  -0.100885  0  4.022638  0  -0.049821  0  -0.08224  -0.099858  0  3.986842  0
C  C87  1  0.56692865  0.11811759  0.26748799  1  0  -0.075782  0  3.753632  0  0  -0.10042  0  4.001231  0  0  -0.100924  0  4.022881  0  -0.048945  0  -0.08229  -0.099897  0  3.987051  0
C  C88  1  0.80943979  0.55023647  0.87835711  1  0  0.75227  0  3.814476  0  0  0.706354  0  4.117758  0  0  0.740661  0  4.106408  0  1.532522  0  0.218222  0.683733  0  4.118592  0
C  C89  1  0.69056550  0.05024965  0.62164300  1  0  0.752217  0  3.814651  0  0  0.706345  0  4.117869  0  0  0.740652  0  4.106513  0  1.532358  0  0.218299  0.683726  0  4.118699  0
C  C90  1  0.19055874  0.44975549  0.12164248  1  0  0.752291  0  3.814336  0  0  0.706424  0  4.117534  0  0  0.74073  0  4.106179  0  1.532549  0  0.218284  0.683806  0  4.11836  0
C  C91  1  0.30943928  0.94976571  0.37836254  1  0  0.751937  0  3.814657  0  0  0.706216  0  4.117662  0  0  0.740518  0  4.106314  0  1.531847  0  0.218263  0.683598  0  4.118493  0
C  C92  1  0.70818474  0.46653555  0.81771446  1  0  -0.28465  0  3.699467  0  0  -0.321646  0  3.946179  0  0  -0.328656  0  3.955033  0  -0.046133  0  -0.165333  -0.316979  0  3.940214  0
C  C93  1  0.79180932  0.96653865  0.68228617  1  0  -0.28443  0  3.699004  0  0  -0.321509  0  3.945861  0  0  -0.328505  0  3.954717  0  -0.045969  0  -0.16537  -0.31686  0  3.939887  0
C  C94  1  0.29182254  0.53345641  0.18228652  1  0  -0.284572  0  3.699067  0  0  -0.321661  0  3.945836  0  0  -0.328668  0  3.954689  0  -0.045651  0  -0.165333  -0.317  0  3.939861  0
C  C95  1  0.20818298  0.03346857  0.31771870  1  0  -0.28445  0  3.699171  0  0  -0.32156  0  3.945923  0  0  -0.328564  0  3.954772  0  -0.045865  0  -0.165392  -0.316901  0  3.93997  0
C  C96  1  0.66473852  0.53839328  0.74439062  1  0  -0.04483  0  3.734442  0  0  -0.089446  0  3.995295  0  0  -0.088351  0  4.00966  0  0.012788  0  -0.170843  -0.090471  0  3.986533  0
C  C97  1  0.83525304  0.03838712  0.75561244  1  0  -0.045194  0  3.734647  0  0  -0.089869  0  3.995499  0  0  -0.088792  0  4.009882  0  0.013161  0  -0.170969  -0.090829  0  3.986687  0
C  C98  1  0.33526876  0.46159970  0.25561089  1  0  -0.044978  0  3.734416  0  0  -0.089603  0  3.995315  0  0  -0.088519  0  4.009694  0  0.012694  0  -0.170961  -0.090601  0  3.986516  0
C  C99  1  0.16474050  0.96160687  0.24439683  1  0  -0.045017  0  3.734683  0  0  -0.089609  0  3.995547  0  0  -0.088506  0  4.009904  0  0.012702  0  -0.170943  -0.090634  0  3.986792  0
C  C100  1  0.51020869  0.50577923  0.61219515  1  0  0.773168  0  3.77583  0  0  0.72684  0  4.075403  0  0  0.761188  0  4.064534  0  1.546767  0  0.238614  0.703419  0  4.078407  0
C  C101  1  0.98978287  0.00576595  0.88780630  1  0  0.773439  0  3.775453  0  0  0.726972  0  4.07513  0  0  0.761316  0  4.06426  0  1.546566  0  0.238641  0.703568  0  4.078141  0
C  C102  1  0.48977861  0.49421884  0.38780816  1  0  0.773292  0  3.775547  0  0  0.726881  0  4.075229  0  0  0.761224  0  4.064358  0  1.54728  0  0.238662  0.703461  0  4.078238  0
C  C103  1  0.01020817  0.99421787  0.11220004  1  0  0.773414  0  3.775675  0  0  0.726856  0  4.0756  0  0  0.76121  0  4.064727  0  1.546782  0  0.238571  0.703434  0  4.078609  0
C  C104  1  0.55803037  0.44644526  0.68782465  1  0  -0.303373  0  3.696153  0  0  -0.340035  0  3.942541  0  0  -0.347493  0  3.951377  0  -0.064124  0  -0.168202  -0.334875  0  3.936447  0
C  C105  1  0.94195495  0.94642801  0.81217566  1  0  -0.303287  0  3.696207  0  0  -0.33978  0  3.94224  0  0  -0.347218  0  3.95106  0  -0.064319  0  -0.168055  -0.334695  0  3.936205  0
C  C106  1  0.44196817  0.55354976  0.31217762  1  0  -0.303319  0  3.696166  0  0  -0.339944  0  3.942493  0  0  -0.34738  0  3.95131  0  -0.064359  0  -0.16819  -0.33479  0  3.936391  0
C  C107  1  0.05802736  0.05355276  0.18783037  1  0  -0.30341  0  3.696055  0  0  -0.340056  0  3.942595  0  0  -0.347533  0  3.951461  0  -0.064842  0  -0.168203  -0.334894  0  3.936499  0
S  S108  1  0.26045505  0.47247749  0.89941188  1  0  1.382404  0  5.563599  0  0  1.281787  0  6.089683  0  0  1.330692  0  6.06239  0  3.19425  0  0.550101  1.247472  0  6.104419  0
S  S109  1  0.23954047  0.97248263  0.60059183  1  0  1.382474  0  5.564093  0  0  1.281807  0  6.090175  0  0  1.330708  0  6.062879  0  3.194769  0  0.550041  1.247495  0  6.104918  0
S  S110  1  0.73951227  0.52752057  0.10057612  1  0  1.38263  0  5.56403  0  0  1.281887  0  6.090123  0  0  1.330785  0  6.06283  0  3.19525  0  0.550193  1.247584  0  6.104861  0
S  S111  1  0.76046930  0.02751340  0.39941313  1  0  1.382562  0  5.564082  0  0  1.281925  0  6.090175  0  0  1.330829  0  6.06287  0  3.195386  0  0.550091  1.247613  0  6.104922  0
O  O112  1  0.83080640  0.67670798  0.87115528  1  0  -0.681145  0  1.978988  0  0  -0.632665  0  2.216427  0  0  -0.65631  0  2.207076  0  -1.197324  0  -0.36145  -0.611474  0  2.222355  0
O  O113  1  0.66917892  0.17671810  0.62885198  1  0  -0.681208  0  1.979319  0  0  -0.632701  0  2.216697  0  0  -0.656342  0  2.207346  0  -1.197181  0  -0.361521  -0.611497  0  2.22262  0
O  O114  1  0.16918215  0.32328500  0.12884441  1  0  -0.68123  0  1.979128  0  0  -0.632686  0  2.216458  0  0  -0.656334  0  2.207115  0  -1.197232  0  -0.361511  -0.611492  0  2.222394  0
O  O115  1  0.33082836  0.82329726  0.37115648  1  0  -0.681104  0  1.979167  0  0  -0.632632  0  2.216432  0  0  -0.65627  0  2.207087  0  -1.197131  0  -0.361523  -0.611453  0  2.222366  0
O  O116  1  0.75679186  0.87059882  0.97786994  1  0  -0.870332  0  1.822329  0  0  -0.828136  0  1.998097  0  0  -0.845924  0  1.971629  0  -1.2509  0  -0.612321  -0.810712  0  2.018405  0
O  O117  1  0.74321593  0.37058860  0.52212775  1  0  -0.87011  0  1.822434  0  0  -0.827928  0  1.998073  0  0  -0.845716  0  1.971661  0  -1.250437  0  -0.61221  -0.810494  0  2.018385  0
O  O118  1  0.24321916  0.12940535  0.02212231  1  0  -0.870321  0  1.822204  0  0  -0.828084  0  1.99798  0  0  -0.845873  0  1.971587  0  -1.250756  0  -0.61226  -0.810652  0  2.018293  0
O  O119  1  0.25678885  0.62941456  0.47787619  1  0  -0.870054  0  1.822507  0  0  -0.827872  0  1.998147  0  0  -0.845663  0  1.971724  0  -1.250429  0  -0.612157  -0.810449  0  2.018454  0
O  O120  1  0.33523504  0.76406908  0.05048758  1  0  -0.872625  0  1.828436  0  0  -0.833471  0  2.01359  0  0  -0.848591  0  1.984329  0  -1.230836  0  -0.616503  -0.817454  0  2.036084  0
O  O121  1  0.16474550  0.26408734  0.44951842  1  0  -0.872637  0  1.828331  0  0  -0.83348  0  2.013395  0  0  -0.848602  0  1.984134  0  -1.231118  0  -0.616594  -0.817455  0  2.035915  0
O  O122  1  0.66475351  0.23591678  0.94951158  1  0  -0.872497  0  1.828384  0  0  -0.83334  0  2.013592  0  0  -0.848464  0  1.984325  0  -1.231959  0  -0.616432  -0.817309  0  2.036014  0
O  O123  1  0.83524555  0.73592598  0.55048847  1  0  -0.872585  0  1.828391  0  0  -0.833431  0  2.013577  0  0  -0.848554  0  1.984315  0  -1.230918  0  -0.616505  -0.817419  0  2.03602  0
O  O124  1  0.55867470  0.62458552  0.60033989  1  0  -0.728275  0  1.98124  0  0  -0.679172  0  2.233625  0  0  -0.702534  0  2.221391  0  -1.212204  0  -0.388859  -0.657002  0  2.243678  0
O  O125  1  0.94132185  0.12457123  0.89966365  1  0  -0.728309  0  1.981131  0  0  -0.679169  0  2.233563  0  0  -0.702533  0  2.221334  0  -1.211985  0  -0.388844  -0.656983  0  2.243615  0
O  O126  1  0.44131884  0.37541458  0.39966296  1  0  -0.728287  0  1.9811  0  0  -0.679137  0  2.233511  0  0  -0.702499  0  2.221277  0  -1.212381  0  -0.388882  -0.656954  0  2.243574  0
O  O127  1  0.05865046  0.87540446  0.10034568  1  0  -0.728401  0  1.981418  0  0  -0.679165  0  2.233865  0  0  -0.702528  0  2.221625  0  -1.212164  0  -0.388786  -0.656991  0  2.24392  0
O  O128  1  0.21360735  0.60424090  0.92645428  1  0  -0.742816  0  2.021601  0  0  -0.692527  0  2.28813  0  0  -0.712949  0  2.271661  0  -1.344503  0  -0.391157  -0.67175  0  2.300394  0
O  O129  1  0.28637318  0.10424289  0.57354797  1  0  -0.74291  0  2.021729  0  0  -0.692571  0  2.288175  0  0  -0.71299  0  2.271703  0  -1.34464  0  -0.391225  -0.671784  0  2.300444  0
O  O130  1  0.78638369  0.39576021  0.07354137  1  0  -0.743037  0  2.021538  0  0  -0.692669  0  2.287966  0  0  -0.713092  0  2.271501  0  -1.344694  0  -0.391293  -0.671877  0  2.300228  0
O  O131  1  0.71362785  0.89575721  0.42645935  1  0  -0.742948  0  2.021761  0  0  -0.692602  0  2.288171  0  0  -0.713022  0  2.271702  0  -1.344745  0  -0.391262  -0.671826  0  2.300435  0
O  O132  1  0.44138627  0.45527424  0.91188360  1  0  -0.653413  0  1.962649  0  0  -0.596517  0  2.199065  0  0  -0.618151  0  2.184358  0  -1.324249  0  -0.320527  -0.581684  0  2.209537  0
O  O133  1  0.05861300  0.95527226  0.58811726  1  0  -0.653367  0  1.96268  0  0  -0.596442  0  2.199068  0  0  -0.618072  0  2.18436  0  -1.324407  0  -0.320471  -0.581606  0  2.209537  0
O  O134  1  0.55857481  0.54469636  0.08810165  1  0  -0.653347  0  1.962721  0  0  -0.596491  0  2.199219  0  0  -0.618115  0  2.184506  0  -1.3248  0  -0.320577  -0.581656  0  2.209691  0
O  O135  1  0.94140052  0.04471156  0.41189555  1  0  -0.65343  0  1.962572  0  0  -0.596599  0  2.199054  0  0  -0.618224  0  2.184337  0  -1.324658  0  -0.32057  -0.581763  0  2.209529  0
O  O136  1  0.18019573  0.35372003  0.92613164  1  0  -0.787028  0  2.067736  0  0  -0.738855  0  2.342701  0  0  -0.758898  0  2.325699  0  -1.362072  0  -0.39174  -0.718608  0  2.354839  0
O  O137  1  0.31978980  0.85373432  0.57386521  1  0  -0.787059  0  2.068054  0  0  -0.738882  0  2.34305  0  0  -0.758922  0  2.326042  0  -1.362471  0  -0.391712  -0.718658  0  2.355199  0
O  O138  1  0.81973537  0.64628210  0.07384374  1  0  -0.787061  0  2.068004  0  0  -0.738885  0  2.342996  0  0  -0.758931  0  2.325993  0  -1.362094  0  -0.391634  -0.718659  0  2.35514  0
O  O139  1  0.68022497  0.14626883  0.42613810  1  0  -0.787122  0  2.067971  0  0  -0.738915  0  2.342881  0  0  -0.758958  0  2.325875  0  -1.36246  0  -0.39166  -0.718682  0  2.355038  0
O  O140  1  0.87432879  0.49239282  0.93981295  1  0  -0.851484  0  2.167509  0  0  -0.805275  0  2.433091  0  0  -0.829173  0  2.421004  0  -1.236701  0  -0.459325  -0.777456  0  2.440281  0
O  O141  1  0.62569399  0.99241728  0.56018084  1  0  -0.85154  0  2.16777  0  0  -0.805318  0  2.433277  0  0  -0.829238  0  2.421241  0  -1.236728  0  -0.459367  -0.777505  0  2.440466  0
O  O142  1  0.12565476  0.50760220  0.06018892  1  0  -0.851488  0  2.167477  0  0  -0.805284  0  2.433017  0  0  -0.829214  0  2.420994  0  -1.237086  0  -0.459332  -0.777469  0  2.440202  0
O  O143  1  0.37432328  0.00760723  0.43982164  1  0  -0.851313  0  2.167529  0  0  -0.805173  0  2.433019  0  0  -0.829094  0  2.42099  0  -1.236604  0  -0.459353  -0.777354  0  2.440207  0
O  O144  1  0.41752725  0.43219416  0.56199589  1  0  -0.772917  0  2.019644  0  0  -0.719824  0  2.264811  0  0  -0.74419  0  2.251173  0  -1.221811  0  -0.396821  -0.695662  0  2.274165  0
O  O145  1  0.08247577  0.93218607  0.93800427  1  0  -0.773123  0  2.019612  0  0  -0.719992  0  2.264854  0  0  -0.744359  0  2.251217  0  -1.221997  0  -0.396861  -0.695844  0  2.274196  0
O  O146  1  0.58244756  0.56780391  0.43800781  1  0  -0.773036  0  2.01963  0  0  -0.719944  0  2.264848  0  0  -0.74431  0  2.251212  0  -1.221938  0  -0.396826  -0.6958  0  2.274198  0
O  O147  1  0.91753276  0.06780284  0.06199896  1  0  -0.773018  0  2.019452  0  0  -0.719819  0  2.264721  0  0  -0.744183  0  2.251077  0  -1.221787  0  -0.396764  -0.695658  0  2.274078  0
