# generated using pymatgen
data_Mo2H9C10N3O8
_symmetry_space_group_name_H-M   'P 1'
_cell_length_a   7.36084393
_cell_length_b   8.51314102
_cell_length_c   11.28227444
_cell_angle_alpha   98.68887468
_cell_angle_beta   92.73708719
_cell_angle_gamma   98.42560415
_symmetry_Int_Tables_number   1
_chemical_formula_structural   Mo2H9C10N3O8
_chemical_formula_sum   'Mo4 H18 C20 N6 O16'
_cell_volume   689.56638355
_cell_formula_units_Z   2
loop_
 _symmetry_equiv_pos_site_id
 _symmetry_equiv_pos_as_xyz
  1  'x, y, z'
loop_
 _atom_site_type_symbol
 _atom_site_label
 _atom_site_symmetry_multiplicity
 _atom_site_fract_x
 _atom_site_fract_y
 _atom_site_fract_z
 _atom_site_occupancy
 _atom_site_hle17_bader_spin_density
 _atom_site_hle17_ddec_charge
 _atom_site_hle17_ddec_spin_density
 _atom_site_hle17_ddec_sum_bond_order
 _atom_site_hle17_magmom
 _atom_site_hse06_10hf_bader_spin_density
 _atom_site_hse06_10hf_ddec_charge
 _atom_site_hse06_10hf_ddec_spin_density
 _atom_site_hse06_10hf_ddec_sum_bond_order
 _atom_site_hse06_10hf_magmom
 _atom_site_hse06_bader_spin_density
 _atom_site_hse06_ddec_charge
 _atom_site_hse06_ddec_spin_density
 _atom_site_hse06_ddec_sum_bond_order
 _atom_site_hse06_magmom
 _atom_site_pbe_bader_spin_density
 _atom_site_pbe_cm5_charge
 _atom_site_pbe_ddec_charge
 _atom_site_pbe_ddec_spin_density
 _atom_site_pbe_ddec_sum_bond_order
 _atom_site_pbe_magmom
Mo  Mo0  1  0.39715072  0.07094191  0.63070786  1  0  2.226357  0  4.032327  0  0  2.222141  0  4.571698  0  0  2.321161  0  4.537177  0  0  1.536441  2.14907  0  4.602666  0
Mo  Mo1  1  0.60285094  0.92906268  0.36929442  1  0  2.226581  0  4.032171  0  0  2.222326  0  4.571549  0  0  2.321345  0  4.537023  0  0  1.536471  2.149283  0  4.602308  0
Mo  Mo2  1  0.09518086  0.88018874  0.38554830  1  0  2.25489  0  4.008139  0  0  2.253675  0  4.546968  0  0  2.353533  0  4.51182  0  0  1.541364  2.182267  0  4.57492  0
Mo  Mo3  1  0.90483038  0.11980864  0.61445704  1  0  2.255128  0  4.007969  0  0  2.253913  0  4.54678  0  0  2.353777  0  4.511624  0  0  1.541325  2.182544  0  4.574455  0
H  H4  1  0.48472951  0.46550303  0.38584254  1  0  0.129438  0  0.914899  0  0  0.141889  0  0.973118  0  0  0.1441  0  0.971765  0  0  0.123726  0.140246  0  0.97422  0
H  H5  1  0.51528476  0.53448724  0.61414701  1  0  0.1295  0  0.914756  0  0  0.141914  0  0.973026  0  0  0.144125  0  0.97167  0  0  0.123734  0.140273  0  0.974126  0
H  H6  1  0.25133615  0.49285222  0.38991269  1  0  0.145295  0  0.892892  0  0  0.15874  0  0.950465  0  0  0.161646  0  0.94808  0  0  0.135574  0.156648  0  0.952297  0
H  H7  1  0.74868682  0.50715726  0.61008740  1  0  0.145239  0  0.892804  0  0  0.158716  0  0.950359  0  0  0.161628  0  0.947956  0  0  0.135543  0.156625  0  0.95218  0
H  H8  1  0.16825705  0.72214249  0.10671376  1  0  0.323784  0  0.896434  0  0  0.303384  0  0.960734  0  0  0.313114  0  0.951654  0  0  0.317717  0.296523  0  0.967212  0
H  H9  1  0.83173278  0.27784885  0.89328654  1  0  0.323771  0  0.89632  0  0  0.303335  0  0.960671  0  0  0.313065  0  0.95159  0  0  0.317684  0.296467  0  0.96716  0
H  H10  1  0.41424019  0.15804257  0.17664211  1  0  0.132523  0  0.966934  0  0  0.143794  0  1.023886  0  0  0.147346  0  1.020943  0  0  0.124505  0.141151  0  1.02607  0
H  H11  1  0.58575265  0.84195002  0.82335313  1  0  0.132501  0  0.966955  0  0  0.143738  0  1.023954  0  0  0.147314  0  1.020976  0  0  0.124514  0.141105  0  1.026132  0
H  H12  1  0.35515356  0.22788084  0.94620059  1  0  0.145486  0  0.974891  0  0  0.157369  0  1.028591  0  0  0.161473  0  1.026376  0  0  0.107156  0.154325  0  1.030447  0
H  H13  1  0.64481983  0.77210930  0.05379187  1  0  0.145521  0  0.974895  0  0  0.157366  0  1.028621  0  0  0.161499  0  1.026364  0  0  0.107177  0.154321  0  1.030484  0
H  H14  1  0.08865354  0.90796401  0.99545928  1  0  0.090863  0  0.936003  0  0  0.103213  0  0.99385  0  0  0.105624  0  0.991843  0  0  0.129945  0.101457  0  0.995299  0
H  H15  1  0.91134115  0.09203211  0.00454619  1  0  0.090813  0  0.93603  0  0  0.103192  0  0.993815  0  0  0.105598  0  0.991821  0  0  0.129903  0.101432  0  0.995269  0
H  H16  1  0.06747893  0.84344170  0.76677816  1  0  0.134687  0  0.953205  0  0  0.139799  0  1.014722  0  0  0.143953  0  1.012294  0  0  0.116759  0.136751  0  1.016661  0
H  H17  1  0.93252033  0.15657251  0.23322516  1  0  0.134833  0  0.953137  0  0  0.13996  0  1.014635  0  0  0.144105  0  1.012228  0  0  0.11683  0.136907  0  1.016574  0
H  H18  1  0.15331445  0.58096067  0.67290980  1  0  0.118365  0  0.907506  0  0  0.131716  0  0.958076  0  0  0.134395  0  0.955614  0  0  0.122258  0.129641  0  0.960034  0
H  H19  1  0.84668872  0.41905236  0.32709175  1  0  0.118415  0  0.907492  0  0  0.131699  0  0.958144  0  0  0.134413  0  0.955642  0  0  0.12229  0.129625  0  0.960099  0
H  H20  1  0.25631159  0.39475180  0.80412973  1  0  0.138426  0  0.963912  0  0  0.147319  0  1.02265  0  0  0.151305  0  1.02093  0  0  0.115305  0.144416  0  1.024158  0
H  H21  1  0.74368986  0.60525885  0.19586704  1  0  0.138393  0  0.963887  0  0  0.147297  0  1.022631  0  0  0.151284  0  1.02091  0  0  0.115284  0.144393  0  1.024144  0
C  C22  1  0.29824278  0.25543099  0.41167476  1  0  0.737666  0  3.792137  0  0  0.696253  0  4.091474  0  0  0.73393  0  4.077557  0  0  0.228746  0.67053  0  4.100114  0
C  C23  1  0.70176117  0.74457119  0.58832821  1  0  0.737799  0  3.792237  0  0  0.696407  0  4.091501  0  0  0.73408  0  4.077579  0  0  0.228754  0.670689  0  4.10015  0
C  C24  1  0.34329079  0.40785759  0.35611606  1  0  -0.17655  0  3.566421  0  0  -0.248195  0  3.800704  0  0  -0.249798  0  3.804953  0  0  -0.04233  -0.247042  0  3.797905  0
C  C25  1  0.65671748  0.59214471  0.64387113  1  0  -0.176504  0  3.565822  0  0  -0.24815  0  3.800212  0  0  -0.249744  0  3.804455  0  0  -0.042327  -0.246989  0  3.797404  0
C  C26  1  0.36236454  0.25849817  0.14553144  1  0  -0.01414  0  3.659822  0  0  -0.074675  0  3.918148  0  0  -0.070281  0  3.935548  0  0  0.012145  -0.077096  0  3.906116  0
C  C27  1  0.63762415  0.74149437  0.85446807  1  0  -0.014027  0  3.659615  0  0  -0.074466  0  3.917942  0  0  -0.070087  0  3.935335  0  0  0.0122  -0.07689  0  3.905916  0
C  C28  1  0.33248014  0.29628460  0.03195337  1  0  -0.229834  0  3.746807  0  0  -0.253086  0  4.01214  0  0  -0.261429  0  4.033669  0  0  -0.115466  -0.247386  0  3.997334  0
C  C29  1  0.66750623  0.70371034  0.96804722  1  0  -0.229878  0  3.746854  0  0  -0.253093  0  4.012181  0  0  -0.261462  0  4.033694  0  0  -0.11547  -0.247393  0  3.997396  0
C  C30  1  0.27248925  0.44836629  0.05281039  1  0  0.081792  0  3.858087  0  0  0.075506  0  4.132106  0  0  0.077352  0  4.153495  0  0  0.08299  0.074601  0  4.117155  0
C  C31  1  0.72749711  0.55163589  0.94718573  1  0  0.081885  0  3.857955  0  0  0.075591  0  4.131964  0  0  0.077437  0  4.153359  0  0  0.082984  0.07469  0  4.117023  0
C  C32  1  0.22226833  0.54924198  0.96797487  1  0  0.22626  0  3.716356  0  0  0.213458  0  3.961446  0  0  0.224427  0  3.97836  0  0  0.142885  0.206038  0  3.950104  0
C  C33  1  0.77772024  0.45076503  0.03202100  1  0  0.226158  0  3.716269  0  0  0.213334  0  3.961361  0  0  0.224304  0  3.978277  0  0  0.142841  0.205892  0  3.950046  0
C  C34  1  0.12278126  0.79776159  0.94579720  1  0  0.136705  0  3.64594  0  0  0.097119  0  3.897324  0  0  0.105102  0  3.913475  0  0  0.063808  0.09198  0  3.886412  0
C  C35  1  0.87721792  0.20223695  0.05420872  1  0  0.136709  0  3.645929  0  0  0.097145  0  3.897227  0  0  0.105128  0  3.913372  0  0  0.063902  0.092004  0  3.886312  0
C  C36  1  0.11442568  0.76147935  0.82215137  1  0  -0.096056  0  3.684926  0  0  -0.114026  0  3.947714  0  0  -0.120092  0  3.965448  0  0  -0.072125  -0.110402  0  3.936201  0
C  C37  1  0.88557669  0.23852163  0.17785228  1  0  -0.09614  0  3.685129  0  0  -0.11418  0  3.947976  0  0  -0.120246  0  3.965709  0  0  -0.072186  -0.110555  0  3.936461  0
C  C38  1  0.16143639  0.61384562  0.77041152  1  0  0.059843  0  3.614202  0  0  0.034078  0  3.87484  0  0  0.042098  0  3.886834  0  0  -0.038987  0.028946  0  3.866837  0
C  C39  1  0.83857239  0.38615298  0.22959032  1  0  0.059816  0  3.614076  0  0  0.034103  0  3.874769  0  0  0.042095  0  3.886766  0  0  -0.039037  0.028971  0  3.866761  0
C  C40  1  0.21660536  0.50862294  0.84276122  1  0  -0.134957  0  3.627796  0  0  -0.158006  0  3.883246  0  0  -0.166383  0  3.901744  0  0  -0.068641  -0.152736  0  3.871127  0
C  C41  1  0.78339571  0.49137807  0.15723796  1  0  -0.134967  0  3.627503  0  0  -0.158047  0  3.882998  0  0  -0.166428  0  3.901507  0  0  -0.06864  -0.152769  0  3.870884  0
N  N42  1  0.31952618  0.38272621  0.22559820  1  0  0.114985  0  3.581989  0  0  0.234829  0  3.763377  0  0  0.227031  0  3.787729  0  0  -0.124629  0.239717  0  3.746988  0
N  N43  1  0.68047418  0.61726278  0.77439778  1  0  0.115015  0  3.581531  0  0  0.2347  0  3.763118  0  0  0.226894  0  3.787478  0  0  -0.12456  0.239591  0  3.746734  0
N  N44  1  0.26477734  0.49922360  0.17151771  1  0  -0.270743  0  2.886428  0  0  -0.28001  0  3.156836  0  0  -0.286119  0  3.173143  0  0  -0.215875  -0.2755  0  3.145638  0
N  N45  1  0.73521795  0.50076776  0.82848190  1  0  -0.27087  0  2.886278  0  0  -0.280079  0  3.156733  0  0  -0.286188  0  3.173039  0  0  -0.21595  -0.275566  0  3.145529  0
N  N46  1  0.17511078  0.69306051  0.01420896  1  0  -0.255114  0  3.451837  0  0  -0.184812  0  3.663071  0  0  -0.20052  0  3.677553  0  0  -0.338312  -0.17445  0  3.653443  0
N  N47  1  0.82487872  0.30693683  0.98579292  1  0  -0.255069  0  3.451443  0  0  -0.184663  0  3.662524  0  0  -0.200374  0  3.677015  0  0  -0.338306  -0.174294  0  3.652908  0
O  O48  1  0.35848359  0.91043351  0.43056268  1  0  -1.008817  0  1.905466  0  0  -1.005585  0  2.216688  0  0  -1.051304  0  2.212817  0  0  -0.607168  -0.970723  0  2.218323  0
O  O49  1  0.64151591  0.08956629  0.56943631  1  0  -1.008807  0  1.905316  0  0  -1.005584  0  2.21654  0  0  -1.051301  0  2.212659  0  0  -0.607164  -0.970726  0  2.218159  0
O  O50  1  0.40431868  0.89440342  0.68551093  1  0  -0.67112  0  1.486716  0  0  -0.667175  0  1.736322  0  0  -0.693838  0  1.729741  0  0  -0.503018  -0.64842  0  1.741846  0
O  O51  1  0.59568330  0.10559517  0.31448978  1  0  -0.671087  0  1.486745  0  0  -0.667179  0  1.736391  0  0  -0.693824  0  1.729785  0  0  -0.502999  -0.648417  0  1.74183  0
O  O52  1  0.41847591  0.21220795  0.75725463  1  0  -0.669562  0  1.473523  0  0  -0.670558  0  1.724375  0  0  -0.695813  0  1.714738  0  0  -0.50303  -0.652669  0  1.7322  0
O  O53  1  0.58153524  0.78779665  0.24275066  1  0  -0.669663  0  1.473479  0  0  -0.670619  0  1.724319  0  0  -0.695872  0  1.714681  0  0  -0.503074  -0.652744  0  1.732087  0
O  O54  1  0.03662887  0.70028384  0.43498309  1  0  -0.648367  0  1.374579  0  0  -0.647409  0  1.604528  0  0  -0.67206  0  1.595149  0  0  -0.505328  -0.630705  0  1.611856  0
O  O55  1  0.96337558  0.29971353  0.56502111  1  0  -0.648499  0  1.37458  0  0  -0.647535  0  1.604539  0  0  -0.672205  0  1.595162  0  0  -0.505328  -0.630829  0  1.611753  0
O  O56  1  0.08052634  0.83034248  0.23144429  1  0  -0.709652  0  1.47989  0  0  -0.713436  0  1.742237  0  0  -0.740456  0  1.731933  0  0  -0.515443  -0.694919  0  1.750032  0
O  O57  1  0.91947897  0.16965972  0.76855873  1  0  -0.709723  0  1.479999  0  0  -0.713503  0  1.742372  0  0  -0.740523  0  1.732065  0  0  -0.515426  -0.694998  0  1.750092  0
O  O58  1  0.13022490  0.02864576  0.58504517  1  0  -1.018624  0  1.900273  0  0  -1.015621  0  2.21394  0  0  -1.060835  0  2.2095  0  0  -0.607628  -0.981351  0  2.215926  0
O  O59  1  0.86978468  0.97135763  0.41495992  1  0  -1.018711  0  1.900383  0  0  -1.015693  0  2.214014  0  0  -1.06093  0  2.209621  0  0  -0.6076  -0.981414  0  2.215988  0
O  O60  1  0.37736396  0.26140391  0.51535836  1  0  -0.644692  0  2.058082  0  0  -0.609194  0  2.311091  0  0  -0.638061  0  2.302677  0  0  -0.325955  -0.588301  0  2.316001  0
O  O61  1  0.62263692  0.73860425  0.48464874  1  0  -0.644942  0  2.058239  0  0  -0.609303  0  2.311056  0  0  -0.63821  0  2.302735  0  0  -0.32597  -0.588399  0  2.315953  0
O  O62  1  0.18615350  0.13946209  0.35387569  1  0  -0.649144  0  2.103611  0  0  -0.612528  0  2.360816  0  0  -0.64061  0  2.353175  0  0  -0.317399  -0.592683  0  2.365446  0
O  O63  1  0.81384714  0.86053650  0.64612407  1  0  -0.649182  0  2.103779  0  0  -0.612608  0  2.360977  0  0  -0.640691  0  2.353342  0  0  -0.317388  -0.592755  0  2.365594  0
