# generated using pymatgen
data_CuH3C5IN3
_symmetry_space_group_name_H-M   'P 1'
_cell_length_a   3.99279093
_cell_length_b   7.22266746
_cell_length_c   12.42702326
_cell_angle_alpha   97.30131850
_cell_angle_beta   90.00008152
_cell_angle_gamma   90.00009099
_symmetry_Int_Tables_number   1
_chemical_formula_structural   CuH3C5IN3
_chemical_formula_sum   'Cu2 H6 C10 I2 N6'
_cell_volume   355.47206573
_cell_formula_units_Z   2
loop_
 _symmetry_equiv_pos_site_id
 _symmetry_equiv_pos_as_xyz
  1  'x, y, z'
loop_
 _atom_site_type_symbol
 _atom_site_label
 _atom_site_symmetry_multiplicity
 _atom_site_fract_x
 _atom_site_fract_y
 _atom_site_fract_z
 _atom_site_occupancy
 _atom_site_hle17_bader_spin_density
 _atom_site_hle17_ddec_charge
 _atom_site_hle17_ddec_spin_density
 _atom_site_hle17_ddec_sum_bond_order
 _atom_site_hle17_magmom
 _atom_site_hse06_10hf_bader_spin_density
 _atom_site_hse06_10hf_ddec_charge
 _atom_site_hse06_10hf_ddec_spin_density
 _atom_site_hse06_10hf_ddec_sum_bond_order
 _atom_site_hse06_10hf_magmom
 _atom_site_hse06_bader_spin_density
 _atom_site_hse06_ddec_charge
 _atom_site_hse06_ddec_spin_density
 _atom_site_hse06_ddec_sum_bond_order
 _atom_site_hse06_magmom
 _atom_site_pbe_bader_spin_density
 _atom_site_pbe_cm5_charge
 _atom_site_pbe_ddec_charge
 _atom_site_pbe_ddec_spin_density
 _atom_site_pbe_ddec_sum_bond_order
 _atom_site_pbe_magmom
Cu  Cu0  1  0.75000401  0.98022827  0.42847033  1  0  0.224568  0  2.239934  0  0  0.148078  0  2.724122  0  0  0.160063  0  2.666782  0  0  0.243122  0.142712  0  2.761485  0
Cu  Cu1  1  0.25000203  0.01976700  0.57153222  1  0  0.224544  0  2.23999  0  0  0.148042  0  2.724165  0  0  0.160023  0  2.666834  0  0  0.243076  0.142674  0  2.761536  0
H  H2  1  0.75001095  0.99900646  0.18971545  1  0  0.108837  0  0.948782  0  0  0.110558  0  1.023524  0  0  0.115046  0  1.018746  0  0  0.11689  0.107112  0  1.027361  0
H  H3  1  0.25000260  0.00099441  0.81028829  1  0  0.108853  0  0.948768  0  0  0.110576  0  1.023486  0  0  0.115061  0  1.018708  0  0  0.116895  0.107132  0  1.027321  0
H  H4  1  0.75000585  0.55982388  0.37667798  1  0  0.086261  0  0.9833  0  0  0.089301  0  1.056951  0  0  0.093436  0  1.053443  0  0  0.094429  0.085752  0  1.060251  0
H  H5  1  0.25000519  0.44016575  0.62332097  1  0  0.08627  0  0.983296  0  0  0.089301  0  1.056965  0  0  0.093434  0  1.05347  0  0  0.094418  0.085759  0  1.06025  0
H  H6  1  0.74998510  0.32981459  0.20620699  1  0  0.091369  0  0.951247  0  0  0.096499  0  1.019639  0  0  0.099929  0  1.017108  0  0  0.109218  0.093813  0  1.021924  0
H  H7  1  0.25000340  0.67018617  0.79379031  1  0  0.091344  0  0.951271  0  0  0.096475  0  1.019659  0  0  0.099905  0  1.017126  0  0  0.109203  0.093791  0  1.021944  0
C  C8  1  0.75000035  0.71968919  0.10008306  1  0  0.133172  0  3.83782  0  0  0.142791  0  4.083394  0  0  0.143314  0  4.099956  0  0  0.136171  0.14206  0  4.072733  0
C  C9  1  0.25000818  0.28031998  0.89991722  1  0  0.133245  0  3.837894  0  0  0.142935  0  4.083409  0  0  0.143465  0  4.099964  0  0  0.136226  0.142217  0  4.072754  0
C  C10  1  0.75000075  0.84957515  0.19397960  1  0  0.067865  0  3.599469  0  0  0.031175  0  3.841691  0  0  0.035258  0  3.85688  0  0  0.060732  0.027913  0  3.832966  0
C  C11  1  0.25000528  0.15042569  0.80602252  1  0  0.067769  0  3.599525  0  0  0.031069  0  3.84175  0  0  0.03517  0  3.856912  0  0  0.060692  0.027805  0  3.833033  0
C  C12  1  0.74999820  0.60628500  0.29646899  1  0  0.08677  0  3.617949  0  0  0.059483  0  3.859562  0  0  0.065888  0  3.872072  0  0  0.045844  0.054583  0  3.853056  0
C  C13  1  0.24999030  0.39370462  0.70352915  1  0  0.086806  0  3.618058  0  0  0.059491  0  3.859699  0  0  0.065898  0  3.872209  0  0  0.045836  0.054605  0  3.853189  0
C  C14  1  0.74999767  0.78658049  0.99625998  1  0  0.280298  0  3.686684  0  0  0.257681  0  3.966801  0  0  0.268558  0  3.98323  0  0  0.205213  0.250568  0  3.955887  0
C  C15  1  0.25000335  0.21343278  0.00373496  1  0  0.280249  0  3.685543  0  0  0.257502  0  3.965802  0  0  0.268377  0  3.982235  0  0  0.205167  0.250387  0  3.954894  0
C  C16  1  0.74999530  0.47964791  0.20170886  1  0  0.082097  0  3.691118  0  0  0.059755  0  3.949748  0  0  0.060406  0  3.965004  0  0  0.051885  0.058632  0  3.94056  0
C  C17  1  0.25000322  0.52035144  0.79828753  1  0  0.082112  0  3.691368  0  0  0.059768  0  3.950014  0  0  0.060418  0  3.965271  0  0  0.051955  0.058639  0  3.940837  0
I  I18  1  0.75000167  0.78570133  0.59265165  1  0  -0.32884  0  1.780404  0  0  -0.278057  0  2.247856  0  0  -0.29892  0  2.207552  0  0  -0.16036  -0.261857  0  2.27574  0
I  I19  1  0.25000937  0.21428967  0.40734579  1  0  -0.328825  0  1.780353  0  0  -0.278059  0  2.247838  0  0  -0.298918  0  2.207518  0  0  -0.160353  -0.261854  0  2.27572  0
N  N20  1  0.75000343  0.79190518  0.29285902  1  0  -0.200418  0  3.325964  0  0  -0.128485  0  3.604119  0  0  -0.138066  0  3.612178  0  0  -0.337522  -0.123361  0  3.599168  0
N  N21  1  0.25000511  0.20808728  0.70714253  1  0  -0.2004  0  3.326176  0  0  -0.128425  0  3.604299  0  0  -0.138019  0  3.612374  0  0  -0.337494  -0.123307  0  3.599361  0
N  N22  1  0.74999011  0.53373758  0.10292915  1  0  -0.247711  0  3.027442  0  0  -0.228162  0  3.294238  0  0  -0.232052  0  3.308183  0  0  -0.277432  -0.225225  0  3.285028  0
N  N23  1  0.25000340  0.46626875  0.89706772  1  0  -0.247715  0  3.027623  0  0  -0.228159  0  3.294391  0  0  -0.232049  0  3.308333  0  0  -0.277462  -0.225227  0  3.285189  0
N  N24  1  0.75000006  0.85223184  0.91523044  1  0  -0.384277  0  2.594311  0  0  -0.36063  0  2.834188  0  0  -0.372874  0  2.848516  0  0  -0.288201  -0.352726  0  2.82457  0
N  N25  1  0.24999596  0.14777609  0.08477942  1  0  -0.384244  0  2.593001  0  0  -0.360504  0  2.832895  0  0  -0.372751  0  2.847223  0  0  -0.288149  -0.352598  0  2.823279  0
