# generated using pymatgen
data_CdH14C14(SN3)2
_symmetry_space_group_name_H-M   'P 1'
_cell_length_a   9.91967518
_cell_length_b   10.34315522
_cell_length_c   10.42566703
_cell_angle_alpha   63.91788485
_cell_angle_beta   63.62752742
_cell_angle_gamma   82.04182617
_symmetry_Int_Tables_number   1
_chemical_formula_structural   CdH14C14(SN3)2
_chemical_formula_sum   'Cd2 H28 C28 S4 N12'
_cell_volume   858.60955265
_cell_formula_units_Z   2
loop_
 _symmetry_equiv_pos_site_id
 _symmetry_equiv_pos_as_xyz
  1  'x, y, z'
loop_
 _atom_site_type_symbol
 _atom_site_label
 _atom_site_symmetry_multiplicity
 _atom_site_fract_x
 _atom_site_fract_y
 _atom_site_fract_z
 _atom_site_occupancy
 _atom_site_hle17_bader_spin_density
 _atom_site_hle17_ddec_charge
 _atom_site_hle17_ddec_spin_density
 _atom_site_hle17_ddec_sum_bond_order
 _atom_site_hle17_magmom
 _atom_site_hse06_10hf_bader_spin_density
 _atom_site_hse06_10hf_ddec_charge
 _atom_site_hse06_10hf_ddec_spin_density
 _atom_site_hse06_10hf_ddec_sum_bond_order
 _atom_site_hse06_10hf_magmom
 _atom_site_hse06_bader_spin_density
 _atom_site_hse06_ddec_charge
 _atom_site_hse06_ddec_spin_density
 _atom_site_hse06_ddec_sum_bond_order
 _atom_site_hse06_magmom
 _atom_site_pbe_bader_spin_density
 _atom_site_pbe_cm5_charge
 _atom_site_pbe_ddec_charge
 _atom_site_pbe_ddec_spin_density
 _atom_site_pbe_ddec_sum_bond_order
 _atom_site_pbe_magmom
Cd  Cd0  1  0.11766516  0.28668465  0.40171779  1  0  0.932867  0  2.019814  0  0  0.745714  0  2.497835  0  0  0.790575  0  2.45982  0  0  0.718334  0.715648  0  2.519343  0
Cd  Cd1  1  0.88233494  0.71331530  0.59828170  1  0  0.93286  0  2.019759  0  0  0.745699  0  2.497774  0  0  0.790563  0  2.45976  0  0  0.718337  0.715632  0  2.519283  0
H  H2  1  0.95917452  0.64165337  0.24486271  1  0  0.096977  0  0.975174  0  0  0.101365  0  1.04685  0  0  0.103407  0  1.046833  0  0  0.113339  0.100499  0  1.046205  0
H  H3  1  0.04082444  0.35834658  0.75513535  1  0  0.096992  0  0.975085  0  0  0.101367  0  1.046801  0  0  0.103386  0  1.046806  0  0  0.113335  0.1005  0  1.046156  0
H  H4  1  0.09839764  0.81350455  0.91917968  1  0  0.111892  0  0.978253  0  0  0.118994  0  1.045808  0  0  0.121247  0  1.045441  0  0  0.119049  0.118044  0  1.045067  0
H  H5  1  0.90160133  0.18649540  0.08081934  1  0  0.111908  0  0.978248  0  0  0.119009  0  1.045804  0  0  0.121263  0  1.045437  0  0  0.119057  0.118061  0  1.045057  0
H  H6  1  0.34185836  0.80073647  0.70107998  1  0  0.069611  0  0.929631  0  0  0.085998  0  0.992345  0  0  0.086271  0  0.992963  0  0  0.105357  0.085252  0  0.992125  0
H  H7  1  0.65814175  0.19926349  0.29892046  1  0  0.069613  0  0.929633  0  0  0.085997  0  0.992341  0  0  0.08627  0  0.992959  0  0  0.105358  0.085255  0  0.992125  0
H  H8  1  0.45463793  0.65425062  0.74983163  1  0  0.067332  0  0.959212  0  0  0.075395  0  1.038441  0  0  0.0758  0  1.038194  0  0  0.099043  0.075552  0  1.03735  0
H  H9  1  0.54536337  0.34575042  0.25016783  1  0  0.067327  0  0.959235  0  0  0.075382  0  1.038467  0  0  0.075793  0  1.038214  0  0  0.099029  0.075538  0  1.037392  0
H  H10  1  0.37318349  0.65081003  0.55513082  1  0  0.103427  0  0.955208  0  0  0.126031  0  1.015137  0  0  0.126723  0  1.015885  0  0  0.085926  0.125697  0  1.013993  0
H  H11  1  0.62682014  0.34919210  0.44486717  1  0  0.10345  0  0.95525  0  0  0.126037  0  1.015192  0  0  0.126728  0  1.01594  0  0  0.08592  0.12571  0  1.014039  0
H  H12  1  0.18118525  0.63873018  0.68964191  1  0  0.110496  0  0.96997  0  0  0.129433  0  1.033741  0  0  0.1302  0  1.035319  0  0  0.085251  0.128978  0  1.032503  0
H  H13  1  0.81881821  0.36126980  0.31035517  1  0  0.110499  0  0.969965  0  0  0.129437  0  1.03373  0  0  0.130204  0  1.035308  0  0  0.085254  0.128979  0  1.032498  0
H  H14  1  0.29870013  0.49465039  0.73610287  1  0  0.098984  0  0.965289  0  0  0.114722  0  1.037449  0  0  0.116348  0  1.037142  0  0  0.082994  0.113481  0  1.037549  0
H  H15  1  0.70130117  0.50535065  0.26389564  1  0  0.098991  0  0.965291  0  0  0.114725  0  1.037454  0  0  0.116351  0  1.037146  0  0  0.082989  0.113488  0  1.037549  0
H  H16  1  0.57462689  0.32318561  0.86339348  1  0  0.098237  0  0.979158  0  0  0.09876  0  1.059689  0  0  0.10168  0  1.057867  0  0  0.098003  0.096986  0  1.060212  0
H  H17  1  0.42537322  0.67681433  0.13660888  1  0  0.098222  0  0.979179  0  0  0.098737  0  1.059724  0  0  0.10166  0  1.057899  0  0  0.097996  0.096962  0  1.060247  0
H  H18  1  0.75546610  0.13590796  0.83453943  1  0  0.103331  0  0.959701  0  0  0.111607  0  1.023264  0  0  0.114218  0  1.023  0  0  0.09925  0.109911  0  1.023436  0
H  H19  1  0.24453522  0.86409307  0.16546290  1  0  0.103302  0  0.959716  0  0  0.111582  0  1.023276  0  0  0.114193  0  1.02301  0  0  0.099224  0.109874  0  1.023459  0
H  H20  1  0.52260684  0.86535977  0.33447863  1  0  0.093262  0  0.946344  0  0  0.108847  0  0.998796  0  0  0.111385  0  0.998398  0  0  0.098441  0.106957  0  0.999297  0
H  H21  1  0.47738990  0.13464016  0.66552518  1  0  0.093297  0  0.946292  0  0  0.108876  0  0.998752  0  0  0.111418  0  0.998346  0  0  0.098444  0.106985  0  0.999255  0
H  H22  1  0.34168536  0.05363091  0.36377588  1  0  0.08424  0  1.004151  0  0  0.089859  0  1.077122  0  0  0.092116  0  1.07649  0  0  0.089912  0.08871  0  1.076632  0
H  H23  1  0.65831145  0.94637011  0.63622647  1  0  0.084236  0  1.004174  0  0  0.089863  0  1.077136  0  0  0.09212  0  1.076505  0  0  0.089909  0.088713  0  1.076647  0
H  H24  1  0.84509201  0.90622734  0.94244568  1  0  0.109163  0  0.970607  0  0  0.127912  0  1.035649  0  0  0.128914  0  1.036166  0  0  0.0858  0.12748  0  1.034566  0
H  H25  1  0.15490696  0.09377261  0.05755429  1  0  0.109162  0  0.970635  0  0  0.127905  0  1.035682  0  0  0.128906  0  1.036201  0  0  0.085799  0.127473  0  1.034599  0
H  H26  1  0.70058282  0.77124890  0.10039694  1  0  0.116313  0  0.949651  0  0  0.1369  0  1.011604  0  0  0.137667  0  1.01209  0  0  0.092049  0.136649  0  1.011654  0
H  H27  1  0.29941504  0.22875105  0.89960448  1  0  0.116327  0  0.949633  0  0  0.136906  0  1.011595  0  0  0.137673  0  1.01208  0  0  0.092061  0.136656  0  1.011643  0
H  H28  1  0.81688850  0.84737727  0.14187879  1  0  0.104283  0  0.969649  0  0  0.124596  0  1.036974  0  0  0.125752  0  1.036842  0  0  0.082424  0.123523  0  1.037267  0
H  H29  1  0.18311033  0.15262052  0.85812218  1  0  0.10427  0  0.96965  0  0  0.124586  0  1.036971  0  0  0.125743  0  1.036837  0  0  0.082423  0.123513  0  1.037266  0
C  C30  1  0.18750246  0.55915881  0.44380808  1  0  0.311251  0  3.973442  0  0  0.292134  0  4.26731  0  0  0.313777  0  4.281633  0  0  0.155367  0.27788  0  4.256707  0
C  C31  1  0.81249695  0.44084761  0.55618890  1  0  0.311298  0  3.973209  0  0  0.292186  0  4.267076  0  0  0.313833  0  4.281402  0  0  0.155362  0.27793  0  4.256474  0
C  C32  1  0.06115048  0.93871566  0.64778677  1  0  0.302448  0  3.990049  0  0  0.283962  0  4.287544  0  0  0.304919  0  4.301138  0  0  0.152716  0.26999  0  4.276329  0
C  C33  1  0.93885292  0.06128324  0.35221176  1  0  0.302376  0  3.990097  0  0  0.283891  0  4.287587  0  0  0.304845  0  4.30118  0  0  0.152709  0.269919  0  4.276375  0
C  C34  1  0.05437159  0.62115349  0.15275039  1  0  0.0588  0  3.697613  0  0  0.025712  0  3.963117  0  0  0.025801  0  3.986318  0  0  0.02456  0.024347  0  3.9489  0
C  C35  1  0.94562732  0.37884538  0.84725104  1  0  0.058808  0  3.697534  0  0  0.025719  0  3.963043  0  0  0.025831  0  3.986257  0  0  0.024577  0.024354  0  3.948829  0
C  C36  1  0.12190088  0.70772651  0.99067396  1  0  -0.014712  0  3.610566  0  0  -0.057009  0  3.864638  0  0  -0.056369  0  3.885955  0  0  0.028501  -0.057875  0  3.8512  0
C  C37  1  0.87809704  0.29227451  0.00932504  1  0  -0.014768  0  3.610611  0  0  -0.057062  0  3.864685  0  0  -0.056425  0  3.886001  0  0  0.028443  -0.057927  0  3.851247  0
C  C38  1  0.24140489  0.50905575  0.04728426  1  0  0.370312  0  3.804665  0  0  0.326125  0  4.084533  0  0  0.336034  0  4.102422  0  0  0.310498  0.319846  0  4.072232  0
C  C39  1  0.75859408  0.49094420  0.95271476  1  0  0.370251  0  3.804783  0  0  0.32609  0  4.084613  0  0  0.335994  0  4.102506  0  0  0.310517  0.319813  0  4.07231  0
C  C40  1  0.34151665  0.68268571  0.75740906  1  0  0.055432  0  3.627916  0  0  -0.003723  0  3.890236  0  0  0.001289  0  3.901298  0  0  -0.056506  -0.006938  0  3.882417  0
C  C41  1  0.65848458  0.31731425  0.24259090  1  0  0.055435  0  3.627984  0  0  -0.003705  0  3.890303  0  0  0.001302  0  3.901364  0  0  -0.0565  -0.006941  0  3.882517  0
C  C42  1  0.29481230  0.61223980  0.68093783  1  0  -0.318076  0  3.702478  0  0  -0.395391  0  3.947334  0  0  -0.398725  0  3.958245  0  0  -0.252731  -0.392866  0  3.939386  0
C  C43  1  0.70519124  0.38776126  0.31905971  1  0  -0.3181  0  3.702587  0  0  -0.395396  0  3.947418  0  0  -0.398731  0  3.958335  0  0  -0.252703  -0.392872  0  3.939472  0
C  C44  1  0.44580365  0.19962490  0.11535120  1  0  0.152594  0  3.813919  0  0  0.152403  0  4.066594  0  0  0.149743  0  4.092706  0  0  0.083113  0.153982  0  4.049133  0
C  C45  1  0.55419536  0.80037504  0.88465356  1  0  0.152478  0  3.813906  0  0  0.152272  0  4.066605  0  0  0.14961  0  4.092722  0  0  0.083014  0.153849  0  4.049144  0
C  C46  1  0.56337034  0.22226861  0.96573157  1  0  -0.104207  0  3.699018  0  0  -0.128576  0  3.95499  0  0  -0.128541  0  3.975803  0  0  -0.084393  -0.12872  0  3.940931  0
C  C47  1  0.43663218  0.77773351  0.03426978  1  0  -0.104226  0  3.699069  0  0  -0.128587  0  3.955046  0  0  -0.128553  0  3.97586  0  0  -0.084403  -0.128729  0  3.940981  0
C  C48  1  0.66411908  0.11664332  0.95075126  1  0  -0.119915  0  3.71338  0  0  -0.134388  0  3.954298  0  0  -0.13982  0  3.978162  0  0  -0.087283  -0.130629  0  3.938077  0
C  C49  1  0.33587999  0.88335770  0.04925204  1  0  -0.119846  0  3.713269  0  0  -0.134324  0  3.954191  0  0  -0.139751  0  3.978051  0  0  -0.087203  -0.130552  0  3.937969  0
C  C50  1  0.65114663  0.98634390  0.08245003  1  0  0.167085  0  3.719463  0  0  0.189961  0  3.956441  0  0  0.192108  0  3.981169  0  0  0.003109  0.189085  0  3.938884  0
C  C51  1  0.34885130  0.01365712  0.91755184  1  0  0.167148  0  3.719286  0  0  0.19  0  3.9563  0  0  0.192143  0  3.981031  0  0  0.003094  0.189125  0  3.938738  0
C  C52  1  0.53392495  0.96557899  0.23105410  1  0  -0.121797  0  3.732608  0  0  -0.13895  0  3.974901  0  0  -0.143702  0  3.997391  0  0  -0.092032  -0.136225  0  3.959649  0
C  C53  1  0.46607404  0.03442095  0.76894875  1  0  -0.121832  0  3.73234  0  0  -0.138975  0  3.974629  0  0  -0.143726  0  3.997121  0  0  -0.092002  -0.136251  0  3.959377  0
C  C54  1  0.43230522  0.07017513  0.24812263  1  0  -0.113543  0  3.731641  0  0  -0.132065  0  3.97965  0  0  -0.133475  0  4.00204  0  0  -0.08449  -0.130897  0  3.963869  0
C  C55  1  0.56769375  0.92982481  0.75187830  1  0  -0.113529  0  3.731464  0  0  -0.132048  0  3.979465  0  0  -0.13346  0  4.001858  0  0  -0.084487  -0.13088  0  3.963686  0
C  C56  1  0.75967995  0.87225178  0.06509080  1  0  -0.344861  0  3.717215  0  0  -0.424232  0  3.948717  0  0  -0.42654  0  3.958901  0  0  -0.24346  -0.422494  0  3.940962  0
C  C57  1  0.24031670  0.12774707  0.93491064  1  0  -0.344883  0  3.717206  0  0  -0.424229  0  3.948706  0  0  -0.426539  0  3.958893  0  0  -0.243461  -0.422493  0  3.940951  0
S  S58  1  0.29852575  0.42680330  0.44746756  1  0  -0.329387  0  2.131089  0  0  -0.291549  0  2.452804  0  0  -0.308641  0  2.445696  0  0  -0.129839  -0.281016  0  2.453526  0
S  S59  1  0.70147637  0.57319343  0.55253150  1  0  -0.329347  0  2.131381  0  0  -0.291528  0  2.453127  0  0  -0.308611  0  2.446006  0  0  -0.129812  -0.280996  0  2.453849  0
S  S60  1  0.15308453  0.06241056  0.64198814  1  0  -0.35071  0  2.202645  0  0  -0.311336  0  2.529708  0  0  -0.326816  0  2.521075  0  0  -0.131925  -0.300178  0  2.532459  0
S  S61  1  0.84691556  0.93758940  0.35801039  1  0  -0.350724  0  2.202637  0  0  -0.311349  0  2.5297  0  0  -0.326829  0  2.521066  0  0  -0.131937  -0.300192  0  2.532453  0
N  N62  1  0.10812480  0.65611185  0.43976013  1  0  -0.520944  0  2.847178  0  0  -0.463416  0  3.117109  0  0  -0.483843  0  3.12436  0  0  -0.3887  -0.450365  0  3.111307  0
N  N63  1  0.89188287  0.34388383  0.56023701  1  0  -0.521034  0  2.846702  0  0  -0.46352  0  3.116667  0  0  -0.483952  0  3.123919  0  0  -0.388714  -0.450468  0  3.110868  0
N  N64  1  0.99509817  0.84697622  0.65573008  1  0  -0.498719  0  2.879927  0  0  -0.443897  0  3.152925  0  0  -0.464144  0  3.160609  0  0  -0.380761  -0.430217  0  3.146622  0
N  N65  1  0.00490402  0.15302160  0.34426752  1  0  -0.498634  0  2.879967  0  0  -0.443805  0  3.152939  0  0  -0.464051  0  3.160621  0  0  -0.380737  -0.430126  0  3.146638  0
N  N66  1  0.12909602  0.49899611  0.18565748  1  0  -0.423028  0  3.224346  0  0  -0.352755  0  3.493714  0  0  -0.372272  0  3.515435  0  0  -0.34771  -0.339098  0  3.477601  0
N  N67  1  0.87090400  0.50100277  0.81434155  1  0  -0.422991  0  3.224309  0  0  -0.352725  0  3.493658  0  0  -0.372243  0  3.515372  0  0  -0.347689  -0.339069  0  3.477546  0
N  N68  1  0.23904216  0.63608586  0.92564153  1  0  -0.101519  0  3.499397  0  0  -0.005668  0  3.710811  0  0  -0.019592  0  3.737872  0  0  -0.221735  0.00319  0  3.692134  0
N  N69  1  0.76095801  0.36391517  0.07435745  1  0  -0.101473  0  3.499498  0  0  -0.005643  0  3.710917  0  0  -0.019562  0  3.737979  0  0  -0.221726  0.003221  0  3.692245  0
N  N70  1  0.34715556  0.41325715  0.01899014  1  0  -0.189161  0  3.040801  0  0  -0.166675  0  3.327476  0  0  -0.165267  0  3.333453  0  0  -0.154813  -0.16806  0  3.323172  0
N  N71  1  0.65284334  0.58674172  0.98101034  1  0  -0.189157  0  3.040833  0  0  -0.166664  0  3.32748  0  0  -0.165253  0  3.333457  0  0  -0.15481  -0.168048  0  3.323176  0
N  N72  1  0.33900196  0.29993591  0.14224922  1  0  -0.16776  0  3.13039  0  0  -0.116785  0  3.406661  0  0  -0.118219  0  3.415207  0  0  -0.156668  -0.116089  0  3.400592  0
N  N73  1  0.66099807  0.70006297  0.85775077  1  0  -0.167703  0  3.130313  0  0  -0.116718  0  3.406568  0  0  -0.118153  0  3.41512  0  0  -0.156657  -0.116022  0  3.400501  0
