# generated using pymatgen
data_ZnPH8C7SNO3
_symmetry_space_group_name_H-M   'P 1'
_cell_length_a   5.11114915
_cell_length_b   9.35111369
_cell_length_c   11.68338232
_cell_angle_alpha   66.99084221
_cell_angle_beta   84.02153500
_cell_angle_gamma   90.27503526
_symmetry_Int_Tables_number   1
_chemical_formula_structural   ZnPH8C7SNO3
_chemical_formula_sum   'Zn2 P2 H16 C14 S2 N2 O6'
_cell_volume   510.55340574
_cell_formula_units_Z   2
loop_
 _symmetry_equiv_pos_site_id
 _symmetry_equiv_pos_as_xyz
  1  'x, y, z'
loop_
 _atom_site_type_symbol
 _atom_site_label
 _atom_site_symmetry_multiplicity
 _atom_site_fract_x
 _atom_site_fract_y
 _atom_site_fract_z
 _atom_site_occupancy
 _atom_site_hle17_bader_spin_density
 _atom_site_hle17_ddec_charge
 _atom_site_hle17_ddec_spin_density
 _atom_site_hle17_ddec_sum_bond_order
 _atom_site_hle17_magmom
 _atom_site_hse06_10hf_bader_spin_density
 _atom_site_hse06_10hf_ddec_charge
 _atom_site_hse06_10hf_ddec_spin_density
 _atom_site_hse06_10hf_ddec_sum_bond_order
 _atom_site_hse06_10hf_magmom
 _atom_site_hse06_bader_spin_density
 _atom_site_hse06_ddec_charge
 _atom_site_hse06_ddec_spin_density
 _atom_site_hse06_ddec_sum_bond_order
 _atom_site_hse06_magmom
 _atom_site_pbe_bader_spin_density
 _atom_site_pbe_cm5_charge
 _atom_site_pbe_ddec_charge
 _atom_site_pbe_ddec_spin_density
 _atom_site_pbe_ddec_sum_bond_order
 _atom_site_pbe_magmom
Zn  Zn0  1  0.73262332  0.82612427  0.98966824  1  0  1.147729  0  1.834488  0  0  0.971147  0  2.319498  0  0  1.014455  0  2.259428  0  0  0.709993  0.940724  0  2.360715  0
Zn  Zn1  1  0.26738065  0.17387156  0.01033607  1  0  1.147801  0  1.834469  0  0  0.971191  0  2.319474  0  0  1.014496  0  2.259417  0  0  0.710015  0.940768  0  2.360706  0
P  P2  1  0.20598230  0.79288029  0.14517050  1  0  1.50721  0  4.89702  0  0  1.359708  0  5.382346  0  0  1.40884  0  5.34552  0  0  0.323221  1.325584  0  5.407167  0
P  P3  1  0.79401748  0.20711072  0.85483218  1  0  1.507166  0  4.89698  0  0  1.359621  0  5.382318  0  0  1.408757  0  5.345505  0  0  0.323173  1.32551  0  5.407147  0
H  H4  1  0.23079944  0.55334407  0.32368595  1  0  0.110827  0  0.974707  0  0  0.119505  0  1.044904  0  0  0.121031  0  1.046122  0  0  0.090376  0.11894  0  1.042968  0
H  H5  1  0.76920695  0.44666090  0.67631008  1  0  0.110911  0  0.974692  0  0  0.119582  0  1.044848  0  0  0.121122  0  1.046056  0  0  0.090427  0.119017  0  1.042925  0
H  H6  1  0.49178503  0.69180510  0.29905717  1  0  0.131928  0  0.948057  0  0  0.144419  0  1.008206  0  0  0.146901  0  1.007523  0  0  0.100657  0.14274  0  1.008758  0
H  H7  1  0.50820621  0.30817274  0.70094259  1  0  0.131975  0  0.948089  0  0  0.144459  0  1.008213  0  0  0.146938  0  1.00754  0  0  0.100693  0.142791  0  1.008762  0
H  H8  1  0.92336497  0.68757251  0.41987608  1  0  0.080504  0  0.960092  0  0  0.088705  0  1.036733  0  0  0.089927  0  1.036562  0  0  0.090613  0.087959  0  1.036557  0
H  H9  1  0.07661087  0.31241215  0.58012297  1  0  0.080592  0  0.960166  0  0  0.088827  0  1.036744  0  0  0.090047  0  1.036569  0  0  0.090657  0.088081  0  1.036568  0
H  H10  1  0.15434023  0.85087722  0.37508508  1  0  0.089177  0  0.935228  0  0  0.106344  0  0.992795  0  0  0.106689  0  0.993208  0  0  0.098272  0.106603  0  0.991274  0
H  H11  1  0.84567161  0.14911933  0.62490408  1  0  0.08923  0  0.935216  0  0  0.106377  0  0.992787  0  0  0.106701  0  0.993225  0  0  0.098266  0.106637  0  0.991266  0
H  H12  1  0.37339310  0.53661808  0.79723560  1  0  0.126725  0  0.938119  0  0  0.137981  0  0.994573  0  0  0.141473  0  0.993728  0  0  0.112725  0.135581  0  0.995205  0
H  H13  1  0.62661956  0.46339409  0.20276202  1  0  0.126762  0  0.938109  0  0  0.13805  0  0.994509  0  0  0.141545  0  0.993661  0  0  0.112718  0.135646  0  0.995149  0
H  H14  1  0.16678685  0.61838559  0.96249348  1  0  0.095609  0  0.971672  0  0  0.103105  0  1.034178  0  0  0.105769  0  1.031978  0  0  0.118858  0.101172  0  1.035742  0
H  H15  1  0.83322620  0.38163462  0.03749887  1  0  0.095682  0  0.971577  0  0  0.103132  0  1.034118  0  0  0.105786  0  1.031945  0  0  0.118871  0.101205  0  1.035665  0
H  H16  1  0.62458053  0.87595759  0.73484141  1  0  0.086512  0  0.921669  0  0  0.099762  0  0.974894  0  0  0.102083  0  0.972983  0  0  0.121944  0.098294  0  0.975776  0
H  H17  1  0.37542586  0.12404747  0.26515715  1  0  0.08649  0  0.921546  0  0  0.099747  0  0.974777  0  0  0.102062  0  0.972873  0  0  0.121911  0.09828  0  0.975658  0
H  H18  1  0.81958717  0.81752033  0.55480288  1  0  0.106069  0  0.968814  0  0  0.11369  0  1.033701  0  0  0.117324  0  1.032749  0  0  0.102833  0.111092  0  1.034354  0
H  H19  1  0.18042346  0.18249066  0.44519523  1  0  0.106078  0  0.968784  0  0  0.113719  0  1.033656  0  0  0.117355  0  1.032702  0  0  0.102809  0.11112  0  1.034314  0
C  C20  1  0.27677802  0.67636624  0.30316000  1  0  -0.436131  0  3.691776  0  0  -0.445775  0  3.928312  0  0  -0.455637  0  3.937381  0  0  -0.178838  -0.439611  0  3.922459  0
C  C21  1  0.72321225  0.32363081  0.69685053  1  0  -0.436211  0  3.692046  0  0  -0.445779  0  3.928501  0  0  -0.455661  0  3.937557  0  0  -0.178929  -0.439659  0  3.922715  0
C  C22  1  0.13328685  0.72440497  0.40263991  1  0  -0.089294  0  3.670022  0  0  -0.126992  0  3.927674  0  0  -0.124735  0  3.939424  0  0  -0.143984  -0.128866  0  3.919423  0
C  C23  1  0.86669712  0.27558390  0.59737449  1  0  -0.089505  0  3.670443  0  0  -0.127181  0  3.928023  0  0  -0.124907  0  3.939777  0  0  -0.143995  -0.129044  0  3.919785  0
C  C24  1  0.12019493  0.67473213  0.65917588  1  0  0.086756  0  3.807198  0  0  0.10038  0  4.062856  0  0  0.109524  0  4.082295  0  0  0.008621  0.094138  0  4.04934  0
C  C25  1  0.87984729  0.32528065  0.34082704  1  0  0.086946  0  3.807068  0  0  0.100467  0  4.062896  0  0  0.109613  0  4.082333  0  0  0.008708  0.094223  0  4.049381  0
C  C26  1  0.21036904  0.61407515  0.77811102  1  0  -0.1608  0  3.701162  0  0  -0.179547  0  3.954525  0  0  -0.188274  0  3.974168  0  0  -0.087917  -0.173607  0  3.941035  0
C  C27  1  0.78964380  0.38594064  0.22188881  1  0  -0.160894  0  3.701046  0  0  -0.179614  0  3.954378  0  0  -0.188336  0  3.974009  0  0  -0.08794  -0.173679  0  3.940893  0
C  C28  1  0.09069015  0.65453183  0.87218737  1  0  0.137659  0  3.697611  0  0  0.106989  0  3.949334  0  0  0.115151  0  3.966383  0  0  0.047852  0.101396  0  3.937714  0
C  C29  1  0.90929882  0.34547887  0.12781097  1  0  0.137514  0  3.697633  0  0  0.106885  0  3.949348  0  0  0.115041  0  3.966399  0  0  0.047729  0.101296  0  3.937723  0
C  C30  1  0.79219813  0.80216357  0.74380003  1  0  0.140993  0  3.727798  0  0  0.109502  0  3.981859  0  0  0.118511  0  3.998904  0  0  0.046549  0.10409  0  3.968585  0
C  C31  1  0.20779434  0.19783881  0.25619492  1  0  0.141123  0  3.727553  0  0  0.109623  0  3.98162  0  0  0.118641  0  3.998661  0  0  0.046619  0.104209  0  3.968344  0
C  C32  1  0.90314688  0.77000683  0.64334596  1  0  -0.194703  0  3.755423  0  0  -0.213626  0  4.009681  0  0  -0.222653  0  4.029683  0  0  -0.10025  -0.207652  0  3.994656  0
C  C33  1  0.09684716  0.22998747  0.35665247  1  0  -0.194768  0  3.755536  0  0  -0.213696  0  4.009859  0  0  -0.222726  0  4.029859  0  0  -0.100221  -0.207724  0  3.994836  0
S  S34  1  0.28892758  0.62592384  0.54385295  1  0  0.022089  0  2.466322  0  0  0.031546  0  2.810326  0  0  0.023166  0  2.81361  0  0  0.043194  0.036859  0  2.807889  0
S  S35  1  0.71106831  0.37406747  0.45615923  1  0  0.021978  0  2.466402  0  0  0.03144  0  2.810462  0  0  0.023061  0  2.813734  0  0  0.043132  0.036769  0  2.808003  0
N  N36  1  0.88390256  0.74728630  0.85649568  1  0  -0.353334  0  3.276906  0  0  -0.273001  0  3.559729  0  0  -0.291959  0  3.571451  0  0  -0.336137  -0.259636  0  3.55146  0
N  N37  1  0.11609259  0.25273008  0.14349534  1  0  -0.353356  0  3.276784  0  0  -0.273021  0  3.559591  0  0  -0.291979  0  3.571317  0  0  -0.336091  -0.259657  0  3.551326  0
O  O38  1  0.91059085  0.76645278  0.13977998  1  0  -0.866789  0  1.998749  0  0  -0.772086  0  2.293698  0  0  -0.799999  0  2.268469  0  0  -0.387022  -0.752457  0  2.310211  0
O  O39  1  0.08941661  0.23353455  0.86021587  1  0  -0.866805  0  1.998692  0  0  -0.772098  0  2.293663  0  0  -0.799964  0  2.268335  0  0  -0.387023  -0.752471  0  2.310177  0
O  O40  1  0.28704730  0.95937857  0.12638329  1  0  -0.895103  0  2.055842  0  0  -0.800502  0  2.355582  0  0  -0.828224  0  2.328358  0  0  -0.392435  -0.781337  0  2.373714  0
O  O41  1  0.71293678  0.04061322  0.87361472  1  0  -0.895014  0  2.05563  0  0  -0.800427  0  2.355387  0  0  -0.828153  0  2.328164  0  0  -0.392359  -0.781257  0  2.373506  0
O  O42  1  0.37669716  0.73215469  0.05806295  1  0  -0.873659  0  1.99058  0  0  -0.781299  0  2.279143  0  0  -0.809418  0  2.254494  0  0  -0.389149  -0.762054  0  2.295843  0
O  O43  1  0.62330088  0.26784091  0.94193743  1  0  -0.873668  0  1.990627  0  0  -0.781257  0  2.279152  0  0  -0.809382  0  2.254507  0  0  -0.389148  -0.762014  0  2.29585  0
