# generated using pymatgen
data_CuH14C18S2(NO)4
_symmetry_space_group_name_H-M   'P 1'
_cell_length_a   8.65757440
_cell_length_b   9.29004138
_cell_length_c   12.56357418
_cell_angle_alpha   90.00008623
_cell_angle_beta   90.00000759
_cell_angle_gamma   112.32288027
_symmetry_Int_Tables_number   1
_chemical_formula_structural   CuH14C18S2(NO)4
_chemical_formula_sum   'Cu2 H28 C36 S4 N8 O8'
_cell_volume   934.75136112
_cell_formula_units_Z   2
loop_
 _symmetry_equiv_pos_site_id
 _symmetry_equiv_pos_as_xyz
  1  'x, y, z'
loop_
 _atom_site_type_symbol
 _atom_site_label
 _atom_site_symmetry_multiplicity
 _atom_site_fract_x
 _atom_site_fract_y
 _atom_site_fract_z
 _atom_site_occupancy
 _atom_site_hle17_ddec_charge
 _atom_site_hle17_ddec_spin_density
 _atom_site_hle17_ddec_sum_bond_order
 _atom_site_hle17_magmom
 _atom_site_hse06_10hf_ddec_charge
 _atom_site_hse06_10hf_ddec_spin_density
 _atom_site_hse06_10hf_ddec_sum_bond_order
 _atom_site_hse06_10hf_magmom
 _atom_site_hse06_ddec_charge
 _atom_site_hse06_ddec_spin_density
 _atom_site_hse06_ddec_sum_bond_order
 _atom_site_hse06_magmom
 _atom_site_pbe_cm5_charge
 _atom_site_pbe_ddec_charge
 _atom_site_pbe_ddec_spin_density
 _atom_site_pbe_ddec_sum_bond_order
 _atom_site_pbe_magmom
Cu  Cu0  1  0.49999979  0.50000035  0.49999894  1  0.868127  0.673658  1.781745  0.497  0.850904  0.761189  2.163317  0.606  0.941155  0.824984  2.092229  0.687  0.748505  0.794321  0.71791  2.214041  0.555
Cu  Cu1  1  0.99999872  0.49999978  0.00000113  1  0.868201  0.673658  1.781638  0.497  0.850886  0.761188  2.163332  0.606  0.941235  0.824995  2.092196  0.687  0.748503  0.794325  0.717915  2.214049  0.555
H  H2  1  0.01997508  0.39506383  0.39221982  1  0.321209  0.000218  0.916555  0.0  0.304605  0.00021  0.973318  0.0  0.313711  0.000181  0.966506  0.0  0.309578  0.298185  0.000235  0.978196  0.0
H  H3  1  0.48002678  0.60493485  0.89221939  1  0.321296  0.000219  0.916413  0.001  0.304655  0.00021  0.973217  0.0  0.313761  0.000181  0.966402  0.0  0.309584  0.298185  0.000235  0.978182  0.0
H  H4  1  0.98002354  0.60493455  0.60777966  1  0.321292  0.000218  0.916421  0.0  0.30466  0.00021  0.973221  0.0  0.313766  0.000181  0.966408  0.0  0.309583  0.298195  0.000235  0.978184  0.0
H  H5  1  0.51997693  0.39506467  0.10778009  1  0.321276  0.000219  0.916429  0.001  0.304635  0.00021  0.973244  0.0  0.313741  0.000181  0.966431  0.0  0.30956  0.298163  0.000235  0.978209  0.0
H  H6  1  0.25403972  0.82161089  0.38176285  1  0.134339  -0.00053  0.937196  0.0  0.149078  -6.6e-05  0.991531  0.0  0.15143  -5.5e-05  0.990887  0.0  0.110272  0.147577  -7.5e-05  0.991843  0.0
H  H7  1  0.24595847  0.17839012  0.88176591  1  0.134257  -0.000525  0.937157  0.0  0.148995  -6.6e-05  0.991527  0.0  0.151346  -5.6e-05  0.990883  0.0  0.110261  0.147494  -7.5e-05  0.991836  0.0
H  H8  1  0.74595937  0.17838866  0.61823663  1  0.134323  -0.000524  0.9372  0.0  0.149056  -6.6e-05  0.991551  0.0  0.151409  -5.5e-05  0.990905  0.0  0.110259  0.147554  -7.5e-05  0.991861  0.0
H  H9  1  0.75404274  0.82161175  0.11823675  1  0.134309  -0.000522  0.93722  0.0  0.149037  -6.6e-05  0.991574  0.0  0.15139  -5.6e-05  0.990928  0.0  0.110256  0.147536  -7.5e-05  0.991882  0.0
H  H10  1  0.05425797  0.66617960  0.39985633  1  0.142042  0.001019  0.939566  0.001  0.149799  0.000742  1.003459  0.001  0.152079  0.00045  1.00255  0.001  0.108546  0.148271  0.001022  1.004034  0.001
H  H11  1  0.44574467  0.33382377  0.89985799  1  0.141982  0.001024  0.939548  0.001  0.149758  0.000742  1.003426  0.001  0.152038  0.00045  1.002514  0.001  0.108534  0.148229  0.001022  1.003998  0.001
H  H12  1  0.94574276  0.33382111  0.60014394  1  0.142028  0.001023  0.939563  0.001  0.149785  0.000742  1.003454  0.001  0.152065  0.00045  1.002545  0.001  0.108539  0.148256  0.001022  1.004026  0.001
H  H13  1  0.55425683  0.66618160  0.10014308  1  0.142037  0.001027  0.939536  0.001  0.149794  0.000742  1.003431  0.001  0.152075  0.00045  1.002518  0.001  0.108536  0.148263  0.001022  1.004001  0.001
H  H14  1  0.71217753  0.16845069  0.01819241  1  0.105415  3e-06  0.952529  0.0  0.114459  -8.5e-05  1.018498  0.0  0.117627  -0.000125  1.015796  0.0  0.102382  0.111829  -3.3e-05  1.021183  0.0
H  H15  1  0.78781918  0.83155066  0.51819301  1  0.105404  -7e-06  0.952562  0.0  0.114463  -8.5e-05  1.018493  0.0  0.117633  -0.000125  1.015788  0.0  0.102381  0.111837  -3.3e-05  1.021181  0.0
H  H16  1  0.28781907  0.83155119  0.98180707  1  0.105405  -4e-06  0.952549  0.0  0.114465  -8.5e-05  1.018486  0.0  0.117634  -0.000125  1.015783  0.0  0.10238  0.111834  -3.3e-05  1.02117  0.0
H  H17  1  0.21218366  0.16845237  0.48180647  1  0.105402  -0.0  0.952531  0.0  0.114437  -8.5e-05  1.01851  0.0  0.117604  -0.000125  1.01581  0.0  0.102379  0.111813  -3.3e-05  1.021195  0.0
H  H18  1  0.73285033  0.09061557  0.41490590  1  0.109754  0.000304  0.94065  0.0  0.125313  0.000247  0.990867  0.0  0.127929  0.000163  0.990079  0.0  0.105757  0.123509  0.000301  0.991359  0.0
H  H19  1  0.76714906  0.90938091  0.91490739  1  0.109736  0.000309  0.940642  0.0  0.125275  0.000247  0.990887  0.0  0.127891  0.000163  0.990099  0.0  0.105731  0.123466  0.0003  0.991376  0.0
H  H20  1  0.26714896  0.90938164  0.58509278  1  0.109741  0.000309  0.94065  0.0  0.12528  0.000247  0.990892  0.0  0.127896  0.000163  0.990104  0.0  0.105746  0.123476  0.000301  0.991384  0.0
H  H21  1  0.23285206  0.09061513  0.08509368  1  0.109724  0.000304  0.940688  0.0  0.125279  0.000247  0.990906  0.0  0.127895  0.000163  0.990118  0.0  0.105742  0.12347  0.000301  0.991395  0.0
H  H22  1  0.52685852  0.89012701  0.30222821  1  0.084701  0.000246  0.990361  0.0  0.093102  0.00028  1.05963  0.0  0.096505  0.000178  1.057667  0.0  0.089024  0.090588  0.000373  1.061354  0.0
H  H23  1  0.97314121  0.10987036  0.80222962  1  0.084735  0.000228  0.9903  0.0  0.09313  0.00028  1.05957  0.0  0.096537  0.000178  1.057605  0.0  0.089043  0.090613  0.000373  1.061292  0.0
H  H24  1  0.47314010  0.10987137  0.69777047  1  0.084695  0.000244  0.990315  0.0  0.093105  0.000281  1.059576  0.0  0.09651  0.000178  1.057613  0.0  0.089031  0.090589  0.000373  1.0613  0.0
H  H25  1  0.02685788  0.89012918  0.19777065  1  0.084712  0.000243  0.990347  0.0  0.093112  0.00028  1.059615  0.0  0.096517  0.000178  1.05765  0.0  0.089036  0.090597  0.000373  1.061339  0.0
H  H26  1  0.51044263  0.92918532  0.10769920  1  0.079643  2e-06  0.96752  0.0  0.092122  2e-05  1.028451  0.0  0.094054  1.2e-05  1.028583  0.0  0.0936  0.090852  3.7e-05  1.028306  0.0
H  H27  1  0.98955505  0.07081275  0.60770056  1  0.079668  1.1e-05  0.9675  0.0  0.092134  2e-05  1.028449  0.0  0.094064  1.1e-05  1.028584  0.0  0.093605  0.090868  3.7e-05  1.028292  0.0
H  H28  1  0.48955368  0.07081307  0.89229949  1  0.079687  1e-06  0.967522  0.0  0.092173  2e-05  1.028452  0.0  0.094103  1.2e-05  1.028589  0.0  0.093611  0.090907  3.7e-05  1.028285  0.0
H  H29  1  0.01044433  0.92919029  0.39229971  1  0.079678  3e-06  0.96751  0.0  0.092146  2e-05  1.028456  0.0  0.094076  1.2e-05  1.02859  0.0  0.09362  0.090885  3.7e-05  1.028295  0.0
C  C30  1  0.26807072  0.60854764  0.44499315  1  0.676345  -0.009508  3.875495  -0.009  0.635334  -0.003163  4.183389  -0.004  0.671093  -0.003812  4.1782  -0.004  0.190955  0.611156  -0.002249  4.186124  -0.004
C  C31  1  0.23192822  0.39145235  0.94499485  1  0.676271  -0.009505  3.875753  -0.009  0.635277  -0.003164  4.183596  -0.004  0.671038  -0.003812  4.178414  -0.004  0.190933  0.611101  -0.002249  4.186321  -0.004
C  C32  1  0.73192790  0.39145074  0.55500474  1  0.676188  -0.009491  3.875787  -0.009  0.635182  -0.003165  4.183664  -0.004  0.670941  -0.003812  4.178477  -0.004  0.190875  0.611008  -0.002249  4.186394  -0.004
C  C33  1  0.76807231  0.60855069  0.05500543  1  0.676271  -0.00949  3.87568  -0.009  0.63524  -0.003165  4.183588  -0.004  0.671001  -0.003812  4.178405  -0.004  0.190865  0.611061  -0.002249  4.186318  -0.004
C  C34  1  0.03235222  0.46828818  0.23213086  1  0.318362  -0.006388  3.789885  -0.004  0.286363  -0.001689  4.097579  0.0  0.30818  -0.002925  4.108525  -0.001  0.223889  0.272126  -0.00073  4.089703  0.0
C  C35  1  0.46764715  0.53171012  0.73212956  1  0.318357  -0.006398  3.789913  -0.004  0.286368  -0.001687  4.09757  0.0  0.308184  -0.002925  4.108512  -0.001  0.22388  0.272134  -0.00073  4.089693  0.0
C  C36  1  0.96764457  0.53171137  0.76786941  1  0.31844  -0.006388  3.789864  -0.004  0.286488  -0.001687  4.097492  0.0  0.308307  -0.002925  4.108436  -0.001  0.223909  0.272252  -0.00073  4.089618  0.0
C  C37  1  0.53235444  0.46828708  0.26786833  1  0.318344  -0.006409  3.789903  -0.004  0.286358  -0.001686  4.097565  0.0  0.308173  -0.002927  4.108508  -0.001  0.223839  0.272124  -0.00073  4.089681  0.0
C  C38  1  0.18524023  0.69541326  0.37756891  1  -0.310624  0.009174  3.602717  0.01  -0.34039  0.006033  3.846772  0.007  -0.344796  0.00403  3.850358  0.005  -0.148704  -0.337317  0.007645  3.844257  0.009
C  C39  1  0.31476123  0.30459006  0.87757132  1  -0.310392  0.009159  3.602569  0.01  -0.34018  0.006033  3.846619  0.007  -0.344582  0.004032  3.8502  0.005  -0.148698  -0.337116  0.007645  3.844109  0.009
C  C40  1  0.81475935  0.30458745  0.62243057  1  -0.31055  0.009141  3.602714  0.01  -0.340298  0.006034  3.846716  0.007  -0.344703  0.004031  3.850303  0.005  -0.148693  -0.337225  0.007646  3.844195  0.009
C  C41  1  0.68524209  0.69541413  0.12243135  1  -0.310567  0.009144  3.602739  0.01  -0.340304  0.006033  3.846759  0.007  -0.344708  0.004032  3.850342  0.005  -0.148682  -0.337222  0.007645  3.844228  0.009
C  C42  1  0.83873149  0.24113232  0.27881176  1  0.169508  0.00371  3.772618  0.004  0.16244  0.002144  4.01255  0.003  0.166653  0.00168  4.034041  0.002  0.095419  0.159723  0.002482  3.997541  0.003
C  C43  1  0.66126870  0.75886616  0.77881227  1  0.169455  0.003811  3.772699  0.004  0.162402  0.00214  4.012579  0.003  0.166615  0.001684  4.034072  0.002  0.095417  0.159689  0.002482  3.997575  0.003
C  C44  1  0.16126482  0.75886607  0.72118772  1  0.169342  0.003755  3.772763  0.004  0.162357  0.002141  4.012594  0.003  0.16657  0.001682  4.034087  0.002  0.095393  0.159641  0.002482  3.997588  0.003
C  C45  1  0.33873819  0.24112986  0.22118800  1  0.169381  0.003763  3.772875  0.004  0.16235  0.002141  4.012698  0.003  0.166563  0.001682  4.034192  0.002  0.095328  0.159633  0.002482  3.997677  0.003
C  C46  1  0.83326494  0.26265510  0.16736737  1  0.161408  0.000217  3.797935  0.001  0.161674  0.000596  4.044203  0.001  0.166565  -0.000156  4.067738  0.0  0.086082  0.158726  0.001085  4.028083  0.001
C  C47  1  0.66673213  0.73734428  0.66736865  1  0.16151  7.3e-05  3.797813  0.0  0.16178  0.000602  4.044051  0.001  0.166669  -0.000159  4.067583  0.0  0.086128  0.158826  0.001085  4.027959  0.001
C  C48  1  0.16672954  0.73734446  0.83263211  1  0.161521  0.000158  3.797793  0.001  0.161739  0.000599  4.04408  0.001  0.166631  -0.000157  4.067613  0.0  0.086091  0.158789  0.001085  4.027969  0.001
C  C49  1  0.33327340  0.26265407  0.33263162  1  0.161373  0.00013  3.798017  0.001  0.161702  0.000599  4.044144  0.001  0.166593  -0.000159  4.067674  0.0  0.086111  0.158754  0.001085  4.028031  0.001
C  C50  1  0.71562774  0.15088608  0.10372538  1  -0.139346  0.000535  3.74342  0.001  -0.163213  0.000238  3.999201  0.001  -0.165052  0.00024  4.01785  0.001  -0.096995  -0.162479  0.000283  3.987409  0.001
C  C51  1  0.78436974  0.84911431  0.60372521  1  -0.139402  0.000696  3.743426  0.001  -0.16327  0.000236  3.999189  0.001  -0.165106  0.000244  4.017836  0.001  -0.097039  -0.162534  0.000283  3.987411  0.001
C  C52  1  0.28436838  0.84911464  0.89627490  1  -0.139402  0.000607  3.743405  0.001  -0.163262  0.000237  3.999194  0.001  -0.165101  0.000241  4.017843  0.001  -0.09705  -0.162526  0.000283  3.987404  0.001
C  C53  1  0.21563329  0.15088638  0.39627427  1  -0.139415  0.000597  3.743406  0.001  -0.163315  0.000239  3.999191  0.001  -0.165153  0.000242  4.017837  0.001  -0.097083  -0.162584  0.000283  3.98741  0.001
C  C54  1  0.72857861  0.10808702  0.32940079  1  -0.144073  -0.00032  3.742295  0.0  -0.160446  0.000172  3.987975  0.0  -0.162761  -1.9e-05  4.007144  0.0  -0.096107  -0.158444  0.000292  3.975085  0.0
C  C55  1  0.77142115  0.89191042  0.82940146  1  -0.144041  -0.000523  3.742302  0.0  -0.160407  0.000175  3.987978  0.0  -0.162721  -2.8e-05  4.007147  0.0  -0.096075  -0.158397  0.000292  3.975081  0.0
C  C56  1  0.27141953  0.89191020  0.67059869  1  -0.143997  -0.000407  3.7423  0.0  -0.160369  0.000175  3.987953  0.0  -0.162683  -2.4e-05  4.007123  0.0  -0.096084  -0.158366  0.000292  3.975066  0.0
C  C57  1  0.22858112  0.10808561  0.17059882  1  -0.14399  -0.00038  3.742271  0.0  -0.160375  0.000177  3.987921  0.0  -0.162689  -2.4e-05  4.007089  0.0  -0.096073  -0.158367  0.000292  3.975018  0.0
C  C58  1  0.61159211  0.99711076  0.26530328  1  -0.079711  0.000814  3.798555  0.001  -0.098291  0.000311  4.055957  0.0  -0.10033  0.000297  4.078489  0.0  -0.104032  -0.097662  0.000345  4.04209  0.0
C  C59  1  0.88840576  0.00288770  0.76530376  1  -0.079631  0.000959  3.798626  0.001  -0.098202  0.000311  4.056001  0.0  -0.100244  0.000302  4.078534  0.0  -0.10399  -0.097567  0.000345  4.042122  0.0
C  C60  1  0.38840420  0.00288764  0.73469620  1  -0.079594  0.000859  3.798526  0.001  -0.098187  0.000311  4.055914  0.0  -0.100228  0.0003  4.078449  0.0  -0.103966  -0.097555  0.000345  4.04204  0.0
C  C61  1  0.11159401  0.99711068  0.23469731  1  -0.079685  0.000853  3.798529  0.001  -0.098268  0.00031  4.055926  0.0  -0.100309  0.0003  4.078457  0.0  -0.104021  -0.097636  0.000345  4.042052  0.0
C  C62  1  0.60475306  0.01863194  0.15456513  1  -0.09358  -0.000927  3.821959  -0.001  -0.108581  -0.000498  4.080369  0.0  -0.111409  -0.000588  4.104524  0.0  -0.106676  -0.106527  -0.000426  4.06447  0.0
C  C63  1  0.89524467  0.98136624  0.65456671  1  -0.093677  -0.001149  3.822131  -0.001  -0.108681  -0.000499  4.080554  0.0  -0.111511  -0.000596  4.10471  0.0  -0.106722  -0.106621  -0.000426  4.064667  0.0
C  C64  1  0.39524373  0.98136762  0.84543355  1  -0.093693  -0.001001  3.822063  -0.001  -0.108712  -0.0005  4.080491  0.0  -0.11154  -0.000592  4.104641  0.0  -0.10672  -0.106651  -0.000426  4.064591  0.0
C  C65  1  0.10475558  0.01863330  0.34543356  1  -0.093585  -0.000994  3.82201  -0.001  -0.10858  -0.000502  4.080424  0.0  -0.111408  -0.000592  4.104581  0.0  -0.106681  -0.106525  -0.000426  4.064542  0.0
S  S66  1  0.19512296  0.64830586  0.23763975  1  0.074754  0.001825  2.354954  0.003  0.063568  4.8e-05  2.703659  0.001  0.060089  -0.000867  2.699348  0.0  0.06977  0.066077  0.001188  2.707418  0.002
S  S67  1  0.30487825  0.35169129  0.73764062  1  0.074727  0.001823  2.354906  0.003  0.063548  4.9e-05  2.703592  0.001  0.06007  -0.000867  2.699278  0.0  0.069786  0.06605  0.001188  2.707362  0.002
S  S68  1  0.80487499  0.35169369  0.76236052  1  0.074739  0.001836  2.354942  0.003  0.063538  4.8e-05  2.703619  0.001  0.060056  -0.000867  2.699313  0.0  0.06978  0.066052  0.001189  2.707363  0.002
S  S69  1  0.69512200  0.64830825  0.26236045  1  0.074752  0.001826  2.354969  0.003  0.063554  4.9e-05  2.703639  0.001  0.060074  -0.000868  2.699331  0.0  0.069777  0.066059  0.001188  2.707396  0.002
N  N70  1  0.95499410  0.40632432  0.14128809  1  -0.456119  0.063462  3.289437  0.082  -0.41931  0.045007  3.597296  0.061  -0.451394  0.03756  3.611333  0.054  -0.385206  -0.399327  0.048889  3.589129  0.063
N  N71  1  0.54500410  0.59367499  0.64128761  1  -0.456152  0.063471  3.289447  0.082  -0.41936  0.045004  3.597282  0.061  -0.451417  0.037559  3.611298  0.054  -0.38519  -0.399372  0.048886  3.58912  0.063
N  N72  1  0.04500202  0.59367640  0.85871218  1  -0.456142  0.063464  3.289242  0.082  -0.419332  0.045006  3.597086  0.061  -0.451416  0.037559  3.611122  0.054  -0.38513  -0.399348  0.048887  3.588924  0.063
N  N73  1  0.45499913  0.40632337  0.35871187  1  -0.456016  0.063483  3.289299  0.082  -0.419228  0.045005  3.597083  0.061  -0.451285  0.037561  3.611101  0.054  -0.385093  -0.399243  0.048888  3.588914  0.063
N  N74  1  0.96670912  0.37264289  0.31658453  1  -0.372621  0.000327  3.360636  0.001  -0.311942  0.000709  3.583059  0.001  -0.330657  0.000301  3.594929  0.001  -0.37569  -0.29924  0.001033  3.574474  0.001
N  N75  1  0.53329063  0.62735451  0.81658488  1  -0.372661  0.000315  3.360537  0.001  -0.311983  0.000708  3.582968  0.001  -0.330698  0.000301  3.594842  0.001  -0.375704  -0.299234  0.001033  3.5744  0.001
N  N76  1  0.03328787  0.62735433  0.68341575  1  -0.372686  0.000325  3.360679  0.001  -0.312048  0.000708  3.583087  0.001  -0.330764  0.000301  3.59496  0.001  -0.375729  -0.299313  0.001033  3.574552  0.001
N  N77  1  0.46671212  0.37264269  0.18341539  1  -0.372584  0.000318  3.360638  0.001  -0.311915  0.000708  3.583013  0.001  -0.33063  0.000301  3.594887  0.001  -0.375633  -0.299179  0.001032  3.574466  0.001
O  O78  1  0.17991105  0.47822162  0.48483126  1  -0.627602  0.000209  1.949153  0.003  -0.595929  -0.000382  2.192631  0.002  -0.621733  -0.001698  2.183492  0.0  -0.324319  -0.578223  0.000869  2.198757  0.003
O  O79  1  0.32009053  0.52178196  0.98483232  1  -0.627674  0.000208  1.949249  0.003  -0.595981  -0.000381  2.192713  0.002  -0.621795  -0.001699  2.183583  0.0  -0.324324  -0.57826  0.00087  2.198836  0.003
O  O80  1  0.82008872  0.52177676  0.51516663  1  -0.627574  0.000208  1.949211  0.003  -0.595887  -0.000381  2.192679  0.002  -0.62169  -0.001698  2.183538  0.0  -0.324284  -0.578163  0.00087  2.19881  0.003
O  O81  1  0.67991212  0.47822340  0.01516796  1  -0.627576  0.000212  1.949173  0.003  -0.595865  -0.000381  2.192639  0.002  -0.621678  -0.001699  2.183507  0.0  -0.324256  -0.578147  0.00087  2.198769  0.003
O  O82  1  0.42748327  0.67224733  0.45115227  1  -0.587898  0.098862  2.025645  0.135  -0.565226  0.068532  2.297856  0.102  -0.608404  0.052665  2.293793  0.085  -0.321819  -0.536604  0.078482  2.300698  0.11
O  O83  1  0.07251894  0.32775499  0.95115388  1  -0.587875  0.098854  2.025762  0.135  -0.565187  0.068528  2.297966  0.102  -0.608387  0.05266  2.293914  0.085  -0.321793  -0.536567  0.078477  2.30079  0.11
O  O84  1  0.57251698  0.32775221  0.54884642  1  -0.58783  0.098861  2.02579  0.135  -0.565165  0.068531  2.297996  0.102  -0.608342  0.052664  2.293936  0.085  -0.321768  -0.536536  0.078479  2.300821  0.11
O  O85  1  0.92748390  0.67224804  0.04884799  1  -0.587903  0.098856  2.025755  0.135  -0.565213  0.068533  2.297984  0.102  -0.608414  0.052663  2.293931  0.085  -0.321784  -0.536595  0.078481  2.300822  0.11
