# generated using pymatgen
data_Tb2Cu3H38C42(N3O17)2
_symmetry_space_group_name_H-M   'P 1'
_cell_length_a   11.41467732
_cell_length_b   13.11737399
_cell_length_c   18.95635342
_cell_angle_alpha   90.00065351
_cell_angle_beta   91.85365436
_cell_angle_gamma   89.99981640
_symmetry_Int_Tables_number   1
_chemical_formula_structural   Tb2Cu3H38C42(N3O17)2
_chemical_formula_sum   'Tb4 Cu6 H76 C84 N12 O68'
_cell_volume   2836.86072501
_cell_formula_units_Z   2
loop_
 _symmetry_equiv_pos_site_id
 _symmetry_equiv_pos_as_xyz
  1  'x, y, z'
loop_
 _atom_site_type_symbol
 _atom_site_label
 _atom_site_symmetry_multiplicity
 _atom_site_fract_x
 _atom_site_fract_y
 _atom_site_fract_z
 _atom_site_occupancy
 _atom_site_pbe_bader_charge
 _atom_site_pbe_bader_spin_density
 _atom_site_pbe_cm5_charge
 _atom_site_pbe_ddec_charge
 _atom_site_pbe_ddec_spin_density
 _atom_site_pbe_ddec_sum_bond_order
 _atom_site_pbe_magmom
Tb  Tb0  1  0.86341351  0.93588085  0.14484673  1  2.207303  0.000181  1.503963  2.160154  0.000116  2.100459  0.0
Tb  Tb1  1  0.63659337  0.43589109  0.35515636  1  2.207318  0.00018  1.50391  2.160054  0.000116  2.100623  0.0
Tb  Tb2  1  0.13658986  0.06411045  0.85515190  1  2.207369  0.000181  1.50391  2.160122  0.000116  2.100503  0.0
Tb  Tb3  1  0.36341318  0.56411927  0.64484768  1  2.207331  0.000181  1.50394  2.160085  0.000116  2.100477  0.0
Cu  Cu4  1  0.15596593  0.59391938  0.32642815  1  1.095991  0.5865  0.759071  0.80228  0.742795  2.236994  0.585
Cu  Cu5  1  0.34404143  0.09391913  0.17356765  1  1.096064  0.5865  0.759123  0.80235  0.742806  2.23697  0.585
Cu  Cu6  1  0.84403549  0.40608259  0.67355931  1  1.096041  0.586504  0.759134  0.80238  0.742809  2.236947  0.585
Cu  Cu7  1  0.65596359  0.90607980  0.82643263  1  1.096015  0.586503  0.75912  0.802398  0.742803  2.236939  0.585
Cu  Cu8  1  0.99999342  0.99999705  0.50000166  1  1.077616  0.578819  0.75912  0.764901  0.73962  2.318343  0.577
Cu  Cu9  1  0.49999253  0.50000401  0.99999998  1  1.077614  0.578812  0.759128  0.764971  0.739613  2.318257  0.577
H  H10  1  0.80473656  0.79030702  0.25996041  1  0.635352  -5.7e-05  0.30114  0.403349  -9.2e-05  0.931508  0.0
H  H11  1  0.69526905  0.29030984  0.24004095  1  0.63538  -5.7e-05  0.301134  0.403348  -9.1e-05  0.93152  0.0
H  H12  1  0.19525967  0.20969037  0.74004003  1  0.635344  -5.7e-05  0.301204  0.403564  -9.1e-05  0.931253  0.0
H  H13  1  0.30473844  0.70969442  0.75996208  1  0.63531  -5.7e-05  0.301205  0.403545  -9.1e-05  0.931276  0.0
H  H14  1  0.81011025  0.74474923  0.18227767  1  0.621954  -4e-06  0.31253  0.398223  -1.2e-05  0.913186  0.0
H  H15  1  0.68988583  0.24475870  0.31772346  1  0.621969  -4e-06  0.312499  0.398209  -1.2e-05  0.913221  0.0
H  H16  1  0.18988420  0.25524283  0.81772323  1  0.621932  -4e-06  0.312503  0.398225  -1.2e-05  0.913189  0.0
H  H17  1  0.31011196  0.75524861  0.68228021  1  0.621999  -4e-06  0.312486  0.398184  -1.2e-05  0.913243  0.0
H  H18  1  0.98862449  0.74564780  0.09338794  1  0.646573  1.9e-05  0.291786  0.411956  3.2e-05  0.922403  0.0
H  H19  1  0.51138048  0.24565088  0.40661145  1  0.646622  1.9e-05  0.291743  0.41198  3.2e-05  0.922415  0.0
H  H20  1  0.01137892  0.25434731  0.90661016  1  0.646515  1.9e-05  0.291709  0.411939  3.2e-05  0.922476  0.0
H  H21  1  0.48862276  0.75435109  0.59338928  1  0.646508  1.9e-05  0.291748  0.411985  3.2e-05  0.922379  0.0
H  H22  1  0.85459626  0.73957105  0.06056565  1  0.670836  1e-05  0.298561  0.414095  -1.3e-05  0.919771  0.0
H  H23  1  0.64540964  0.23957733  0.43943320  1  0.667912  1e-05  0.298517  0.413977  -1.3e-05  0.919929  0.0
H  H24  1  0.14540617  0.26042177  0.93943399  1  0.667919  1e-05  0.298545  0.414025  -1.3e-05  0.91986  0.0
H  H25  1  0.35459360  0.76042692  0.56056753  1  0.667928  1e-05  0.298525  0.414025  -1.3e-05  0.919898  0.0
H  H26  1  0.80831187  0.97366005  0.99457007  1  0.661344  1.6e-05  0.291724  0.396802  5.3e-05  0.94625  0.0
H  H27  1  0.69170783  0.47371004  0.50542643  1  0.661958  1.6e-05  0.291806  0.396742  5.3e-05  0.946237  0.0
H  H28  1  0.19170668  0.02629847  0.00542444  1  0.661874  1.6e-05  0.29183  0.396868  5.3e-05  0.946129  0.0
H  H29  1  0.30830881  0.52634453  0.49457064  1  0.661399  1.6e-05  0.291783  0.39685  5.3e-05  0.946177  0.0
H  H30  1  0.92598716  0.04526905  0.99824086  1  0.600586  1.3e-05  0.324235  0.419711  3e-06  0.880823  0.0
H  H31  1  0.57389581  0.54516733  0.50176927  1  0.600764  1.3e-05  0.324027  0.419559  3e-06  0.881149  0.0
H  H32  1  0.07391386  0.95482059  0.00176565  1  0.600821  1.3e-05  0.324074  0.41968  3e-06  0.88099  0.0
H  H33  1  0.42596641  0.45471420  0.49823984  1  0.600341  1.3e-05  0.324243  0.419697  4e-06  0.880859  0.0
H  H34  1  0.64637685  0.08157480  0.17995603  1  0.661316  0.000547  0.302623  0.411755  0.000668  0.917568  0.0
H  H35  1  0.85362528  0.58157513  0.32003931  1  0.661325  0.000547  0.302646  0.411844  0.000668  0.917452  0.0
H  H36  1  0.35362477  0.91842184  0.82004253  1  0.66126  0.000547  0.302629  0.411819  0.000668  0.917476  0.0
H  H37  1  0.14637572  0.41842151  0.67995500  1  0.661166  0.000547  0.302639  0.411773  0.000668  0.917522  0.0
H  H38  1  0.75545756  0.07458666  0.23536988  1  0.628594  -1.6e-05  0.333352  0.424556  -1.3e-05  0.865251  0.0
H  H39  1  0.74454358  0.57458867  0.26462748  1  0.628354  -1.6e-05  0.333291  0.424498  -1.3e-05  0.865324  0.0
H  H40  1  0.24454500  0.92540388  0.76462766  1  0.628374  -1.6e-05  0.333306  0.42453  -1.3e-05  0.865283  0.0
H  H41  1  0.25545467  0.42541254  0.73536882  1  0.628732  -1.6e-05  0.333332  0.424502  -1.3e-05  0.865298  0.0
H  H42  1  0.03790824  0.09979026  0.15498146  1  0.629844  0.000435  0.296364  0.38761  0.000556  0.954589  0.0
H  H43  1  0.46210634  0.59978992  0.34501100  1  0.630279  0.000435  0.296405  0.387631  0.000555  0.954552  0.0
H  H44  1  0.96209604  0.90021095  0.84501668  1  0.63016  0.000435  0.296393  0.387631  0.000556  0.954543  0.0
H  H45  1  0.53790913  0.40021281  0.65497652  1  0.629842  0.000435  0.296364  0.387586  0.000556  0.954627  0.0
H  H46  1  0.93464570  0.16116370  0.11503124  1  0.60861  2e-05  0.336124  0.423527  1.8e-05  0.855225  0.0
H  H47  1  0.56535671  0.66112174  0.38499905  1  0.60889  2e-05  0.3362  0.423447  1.8e-05  0.85535  0.0
H  H48  1  0.06535437  0.83887639  0.88499259  1  0.608526  2e-05  0.336224  0.423532  1.8e-05  0.855251  0.0
H  H49  1  0.43464625  0.33882763  0.61503493  1  0.609014  2e-05  0.336184  0.423517  1.8e-05  0.855229  0.0
H  H50  1  0.39263218  0.65308898  0.18263014  1  0.099665  4.7e-05  0.111442  0.115545  4e-06  1.018753  0.0
H  H51  1  0.10737592  0.15309029  0.31737989  1  0.099695  4.7e-05  0.111415  0.115471  4e-06  1.018896  0.0
H  H52  1  0.60736451  0.34690995  0.81737719  1  0.099684  4.7e-05  0.111468  0.115564  4e-06  1.018804  0.0
H  H53  1  0.89263686  0.84691244  0.68262283  1  0.099658  4.7e-05  0.111449  0.115563  4e-06  1.018854  0.0
H  H54  1  0.57038606  0.76060583  0.20323026  1  0.151456  0.000947  0.116503  0.134841  0.000507  1.003223  0.001
H  H55  1  0.92961851  0.26060280  0.29677504  1  0.15156  0.000947  0.116449  0.134767  0.000508  1.003211  0.001
H  H56  1  0.42961715  0.23939309  0.79677101  1  0.151509  0.000947  0.116489  0.134814  0.000508  1.003201  0.001
H  H57  1  0.07039268  0.73939155  0.70322497  1  0.152071  0.000947  0.11649  0.134822  0.000508  1.003086  0.001
H  H58  1  0.54910187  0.94955907  0.20213911  1  0.162232  0.002224  0.128595  0.105461  0.001016  1.019158  0.002
H  H59  1  0.95090361  0.44955447  0.29785769  1  0.162377  0.002223  0.12864  0.105538  0.001016  1.019167  0.002
H  H60  1  0.45090157  0.05044214  0.79785847  1  0.162303  0.002223  0.128603  0.105459  0.001016  1.019208  0.002
H  H61  1  0.04909720  0.55043912  0.70213978  1  0.162241  0.002225  0.1286  0.105473  0.001016  1.019165  0.002
H  H62  1  0.20240693  0.03259209  0.33458369  1  0.078231  1.4e-05  0.112451  0.114494  -3.6e-05  1.027105  0.0
H  H63  1  0.29759267  0.53259229  0.16541237  1  0.078019  1.4e-05  0.112443  0.114494  -3.6e-05  1.027086  0.0
H  H64  1  0.79758855  0.96740378  0.66541461  1  0.077965  1.4e-05  0.11241  0.114433  -3.6e-05  1.027125  0.0
H  H65  1  0.70240739  0.46740510  0.83458296  1  0.078195  1.4e-05  0.112432  0.11444  -3.6e-05  1.02715  0.0
H  H66  1  0.38131083  0.92997128  0.35183896  1  0.117453  0.001188  0.123993  0.134983  0.000624  0.957231  0.001
H  H67  1  0.11869356  0.42996745  0.14816254  1  0.117556  0.001188  0.124021  0.135027  0.000624  0.957215  0.001
H  H68  1  0.61868722  0.07002993  0.64816051  1  0.117473  0.001188  0.12404  0.135059  0.000624  0.957232  0.001
H  H69  1  0.88131312  0.57002842  0.85183940  1  0.117437  0.001188  0.124015  0.135023  0.000624  0.957237  0.001
H  H70  1  0.36326713  0.73759210  0.35155653  1  0.08939  0.002485  0.121346  0.08653  0.001115  1.009368  0.002
H  H71  1  0.13674003  0.23759356  0.14845096  1  0.089548  0.002485  0.121289  0.086512  0.001115  1.009337  0.002
H  H72  1  0.63673495  0.26240302  0.64844891  1  0.089445  0.002484  0.121338  0.086577  0.001115  1.00941  0.002
H  H73  1  0.86326817  0.76240384  0.85155474  1  0.089397  0.002486  0.121371  0.086592  0.001115  1.009366  0.002
H  H74  1  0.07646199  0.43561934  0.48751524  1  0.078991  -5.2e-05  0.107962  0.114072  -5.4e-05  1.022712  0.0
H  H75  1  0.42354080  0.93562196  0.01248359  1  0.079058  -5.2e-05  0.107938  0.114011  -5.4e-05  1.022748  0.0
H  H76  1  0.92354424  0.56437654  0.51247981  1  0.079064  -5.2e-05  0.107927  0.113971  -5.5e-05  1.022753  0.0
H  H77  1  0.57646701  0.06438001  0.98751417  1  0.079001  -5.2e-05  0.107964  0.114079  -5.4e-05  1.022679  0.0
H  H78  1  0.25103977  0.32141338  0.49799820  1  0.098174  0.000947  0.109376  0.111587  0.00049  1.016565  0.0
H  H79  1  0.24895802  0.82142702  0.00200111  1  0.098218  0.000946  0.109419  0.111624  0.00049  1.016588  0.0
H  H80  1  0.74895624  0.67856648  0.50199168  1  0.098122  0.000946  0.109391  0.11162  0.00049  1.016534  0.0
H  H81  1  0.75104153  0.17858715  0.99800264  1  0.098224  0.000946  0.109378  0.111561  0.00049  1.016581  0.0
H  H82  1  0.22038589  0.13205165  0.50478017  1  0.151762  0.00208  0.131925  0.118392  0.000938  0.964742  0.002
H  H83  1  0.27959829  0.63206045  0.99522339  1  0.151678  0.00208  0.131944  0.118434  0.000938  0.964678  0.002
H  H84  1  0.77959474  0.86793736  0.49521698  1  0.15135  0.002081  0.131903  0.118362  0.000938  0.964683  0.002
H  H85  1  0.72038958  0.36795220  0.00478463  1  0.151482  0.002081  0.131887  0.118328  0.000938  0.964706  0.002
C  C86  1  0.16373193  0.95215735  0.15800168  1  1.557809  -0.00081  0.228805  0.581352  -0.000799  4.159459  -0.001
C  C87  1  0.33627506  0.45215840  0.34199957  1  1.557672  -0.00081  0.228715  0.581152  -0.000799  4.159066  -0.001
C  C88  1  0.83626791  0.04784386  0.84199733  1  1.557755  -0.00081  0.228834  0.581436  -0.000799  4.159401  -0.001
C  C89  1  0.66373065  0.54785043  0.65800391  1  1.557772  -0.000809  0.228812  0.581407  -0.000799  4.159198  -0.001
C  C90  1  0.27175283  0.88854698  0.16809116  1  0.49866  2.6e-05  0.104662  0.047162  -0.000587  3.940397  0.0
C  C91  1  0.22825175  0.38854513  0.33190897  1  0.500118  2.1e-05  0.10459  0.047089  -0.000586  3.940379  0.0
C  C92  1  0.72824781  0.11145270  0.83190894  1  0.498691  2.6e-05  0.104674  0.047146  -0.000587  3.940206  0.0
C  C93  1  0.77175467  0.61145836  0.66809718  1  0.499221  2.7e-05  0.104749  0.047185  -0.000586  3.939965  0.0
C  C94  1  0.27521166  0.78157587  0.16751116  1  -0.04456  0.003233  0.009694  -0.043429  0.002242  3.863822  0.002
C  C95  1  0.22479634  0.28157709  0.33249513  1  -0.04414  0.003232  0.00966  -0.043565  0.002241  3.863992  0.002
C  C96  1  0.72478792  0.21842763  0.83249207  1  -0.044591  0.003234  0.009737  -0.043359  0.002242  3.863721  0.002
C  C97  1  0.77521437  0.71842870  0.66751278  1  -0.044803  0.003233  0.009606  -0.043419  0.002242  3.863647  0.002
C  C98  1  0.17074348  0.71182641  0.15090414  1  1.671459  0.001067  0.201902  0.590319  0.000804  4.253829  0.001
C  C99  1  0.32925675  0.21182836  0.34910286  1  1.671526  0.001066  0.202018  0.590485  0.000804  4.253579  0.001
C  C100  1  0.82925882  0.28817176  0.84909762  1  1.671663  0.001067  0.201998  0.590533  0.000804  4.253785  0.001
C  C101  1  0.67074611  0.78817743  0.65090420  1  1.671545  0.001067  0.201886  0.590279  0.000804  4.253571  0.001
C  C102  1  0.38471150  0.73568021  0.18196356  1  -0.023666  -0.003585  -0.058317  -0.053307  -0.004135  3.91  -0.002
C  C103  1  0.11529839  0.23567617  0.31804244  1  -0.024207  -0.003586  -0.058303  -0.053237  -0.004135  3.910006  -0.002
C  C104  1  0.61529077  0.26432481  0.81803872  1  -0.023726  -0.003586  -0.058365  -0.053356  -0.004135  3.909898  -0.002
C  C105  1  0.88471267  0.76432580  0.68195967  1  -0.023559  -0.003585  -0.058364  -0.053407  -0.004135  3.909987  -0.002
C  C106  1  0.48421890  0.79445564  0.19386250  1  0.023722  0.005866  -0.064673  -0.088019  0.003977  3.914676  0.005
C  C107  1  0.01578928  0.29445323  0.30614020  1  0.023746  0.005867  -0.064539  -0.087853  0.003978  3.914258  0.005
C  C108  1  0.51578349  0.20554252  0.80613768  1  0.023774  0.005866  -0.064679  -0.08806  0.003977  3.914379  0.005
C  C109  1  0.98421847  0.70554188  0.69385861  1  0.023172  0.005868  -0.064655  -0.088017  0.003978  3.914288  0.005
C  C110  1  0.47347928  0.90046544  0.19302415  1  0.442151  -0.001508  0.060289  0.105883  -0.002071  3.903687  -0.001
C  C111  1  0.02652644  0.40046606  0.30697136  1  0.442065  -0.001509  0.060268  0.105803  -0.002071  3.903626  -0.001
C  C112  1  0.52652075  0.09953349  0.80697170  1  0.442181  -0.001507  0.060246  0.105907  -0.00207  3.903718  -0.001
C  C113  1  0.97347697  0.59952982  0.69302674  1  0.44223  -0.001507  0.060309  0.105878  -0.00207  3.90367  -0.001
C  C114  1  0.97346781  0.73327920  0.33271909  1  1.604276  -0.001206  0.218889  0.540457  -0.001278  4.203057  -0.001
C  C115  1  0.52653989  0.23328206  0.16727926  1  1.603565  -0.001207  0.218794  0.540262  -0.001277  4.202996  -0.001
C  C116  1  0.02653040  0.26671896  0.66727774  1  1.60407  -0.001206  0.218944  0.54057  -0.001276  4.203004  -0.001
C  C117  1  0.47346948  0.76671915  0.83272173  1  1.604276  -0.001206  0.218969  0.540541  -0.001277  4.202994  -0.001
C  C118  1  0.08324077  0.79605070  0.33238627  1  0.477684  -7.9e-05  0.109628  0.06107  -0.000842  3.951117  0.0
C  C119  1  0.41676216  0.29605013  0.16761622  1  0.477514  -8e-05  0.10961  0.061258  -0.000843  3.950891  0.0
C  C120  1  0.91675381  0.20394670  0.66761253  1  0.477686  -8.1e-05  0.1095  0.06089  -0.000844  3.95122  0.0
C  C121  1  0.58324540  0.70394803  0.83238575  1  0.477529  -8e-05  0.109553  0.061018  -0.000843  3.951192  0.0
C  C122  1  0.08534356  0.90242866  0.32838373  1  -0.022009  0.003193  0.008747  -0.06537  0.002131  3.888735  0.002
C  C123  1  0.41466196  0.40242664  0.17161495  1  -0.02195  0.003192  0.008729  -0.065514  0.00213  3.888831  0.002
C  C124  1  0.91465277  0.09756798  0.67161513  1  -0.022025  0.003193  0.008785  -0.065289  0.002131  3.888857  0.002
C  C125  1  0.58534501  0.59757076  0.82838224  1  -0.021975  0.003192  0.008755  -0.065364  0.00213  3.888808  0.002
C  C126  1  0.97771471  0.96919519  0.31738561  1  1.65861  0.00117  0.219872  0.642307  0.000773  4.210271  0.001
C  C127  1  0.52228069  0.46919603  0.18261726  1  1.65851  0.00117  0.219917  0.642472  0.000773  4.210389  0.001
C  C128  1  0.02227984  0.03080602  0.68261371  1  1.658457  0.00117  0.219851  0.64214  0.000773  4.210276  0.001
C  C129  1  0.47771802  0.53080518  0.81738593  1  1.658587  0.00117  0.219888  0.642301  0.000773  4.210395  0.001
C  C130  1  0.19510416  0.95010426  0.33598009  1  0.021411  -0.003353  -0.05606  -0.039613  -0.003923  3.902955  -0.002
C  C131  1  0.30490037  0.45010625  0.16401840  1  0.021713  -0.003353  -0.056087  -0.039649  -0.003924  3.903057  -0.002
C  C132  1  0.80489558  0.04989161  0.66402050  1  0.021714  -0.003354  -0.056018  -0.039526  -0.003924  3.903111  -0.002
C  C133  1  0.69510475  0.54989191  0.83598030  1  0.021359  -0.003353  -0.056074  -0.039606  -0.003923  3.903086  -0.002
C  C134  1  0.29647202  0.89269483  0.34513984  1  -0.023151  0.006081  -0.063415  -0.085608  0.004049  3.919785  0.005
C  C135  1  0.20353586  0.39269468  0.15486362  1  -0.023439  0.006082  -0.063457  -0.085695  0.00405  3.919942  0.005
C  C136  1  0.70352820  0.10730638  0.65486710  1  -0.02332  0.006081  -0.063449  -0.085771  0.004049  3.919973  0.005
C  C137  1  0.79646920  0.60730196  0.84513614  1  -0.02312  0.006083  -0.063412  -0.085676  0.00405  3.919906  0.005
C  C138  1  0.28711438  0.78683372  0.34562677  1  0.557875  -0.00094  0.057619  0.110598  -0.00124  3.93985  0.0
C  C139  1  0.21289282  0.28683048  0.15437794  1  0.558092  -0.000942  0.057705  0.110653  -0.001241  3.939829  0.0
C  C140  1  0.71288345  0.21316673  0.65437638  1  0.557891  -0.000942  0.057592  0.110505  -0.001241  3.939864  0.0
C  C141  1  0.78711460  0.71316615  0.84562614  1  0.557925  -0.000941  0.057601  0.110564  -0.001241  3.939722  0.0
C  C142  1  0.82896420  0.14767272  0.49758372  1  1.6078  -0.001255  0.210286  0.548856  -0.000918  4.216296  -0.001
C  C143  1  0.67102261  0.64766677  0.00241520  1  1.608085  -0.001258  0.210431  0.549211  -0.000919  4.216571  -0.001
C  C144  1  0.17102500  0.85233154  0.50241696  1  1.607929  -0.001257  0.210402  0.5491  -0.000918  4.216632  -0.001
C  C145  1  0.32896675  0.35232910  0.99758285  1  1.607732  -0.001255  0.210367  0.549032  -0.000918  4.216231  -0.001
C  C146  1  0.94344463  0.20477161  0.49522452  1  0.527911  -0.000167  0.109396  0.060158  -0.001081  3.944374  0.0
C  C147  1  0.55654995  0.70476985  0.00477412  1  0.52755  -0.000167  0.10943  0.060033  -0.00108  3.94438  0.0
C  C148  1  0.05655008  0.79522807  0.50477217  1  0.527484  -0.000168  0.109376  0.060029  -0.001081  3.9444  0.0
C  C149  1  0.44344388  0.29522983  0.99522253  1  0.527857  -0.000166  0.109418  0.060158  -0.00108  3.944459  0.0
C  C150  1  0.95234768  0.31059609  0.49022475  1  -0.067984  0.002473  0.005059  -0.057382  0.001733  3.909893  0.001
C  C151  1  0.54764671  0.81059216  0.00977260  1  -0.067924  0.002473  0.005007  -0.057305  0.001733  3.909567  0.001
C  C152  1  0.04764794  0.68940588  0.50977145  1  -0.068543  0.002473  0.004995  -0.057393  0.001733  3.909656  0.001
C  C153  1  0.45234816  0.18940829  0.99022145  1  -0.067861  0.002473  0.004991  -0.057576  0.001733  3.909933  0.001
C  C154  1  0.84661079  0.37861131  0.48070928  1  1.622493  0.001547  0.229738  0.633752  0.001111  4.182211  0.001
C  C155  1  0.65339189  0.87860493  0.01929318  1  1.622654  0.001548  0.229723  0.633587  0.001112  4.182352  0.001
C  C156  1  0.15339401  0.62139676  0.51929469  1  1.622655  0.001548  0.229829  0.63373  0.001111  4.182241  0.001
C  C157  1  0.34660801  0.12139476  0.98070478  1  1.622801  0.001547  0.229803  0.633922  0.001111  4.182124  0.001
C  C158  1  0.06483542  0.35354656  0.49217619  1  0.07759  -0.003125  -0.066053  -0.057429  -0.003647  3.905496  -0.002
C  C159  1  0.43516051  0.85354907  0.00782330  1  0.077929  -0.003125  -0.066008  -0.057318  -0.003648  3.905122  -0.002
C  C160  1  0.93516299  0.64645007  0.50781748  1  0.078441  -0.003125  -0.066013  -0.057264  -0.003648  3.905105  -0.002
C  C161  1  0.56483854  0.14645671  0.99217410  1  0.077549  -0.003125  -0.066068  -0.057356  -0.003647  3.905485  -0.002
C  C162  1  0.16260166  0.29067947  0.49816313  1  -0.059329  0.005835  -0.072111  -0.095285  0.003842  3.951061  0.005
C  C163  1  0.33739008  0.79068750  0.00183569  1  -0.060026  0.005836  -0.072104  -0.095251  0.003842  3.950918  0.005
C  C164  1  0.83739077  0.70931031  0.50182766  1  -0.059818  0.005836  -0.07206  -0.09526  0.003842  3.950914  0.005
C  C165  1  0.66260534  0.20931828  0.99816367  1  -0.059453  0.005836  -0.072118  -0.095236  0.003843  3.951067  0.005
C  C166  1  0.14723143  0.18534060  0.50169453  1  0.533124  -0.001461  0.064869  0.11813  -0.00182  3.882777  -0.001
C  C167  1  0.35275793  0.68534618  0.99830808  1  0.533299  -0.001463  0.064862  0.118104  -0.00182  3.882598  -0.001
C  C168  1  0.85275899  0.81465070  0.49830039  1  0.533666  -0.001463  0.064921  0.118191  -0.001819  3.882751  -0.001
C  C169  1  0.64722932  0.31466036  0.00169569  1  0.533466  -0.001462  0.064993  0.118225  -0.00182  3.882613  -0.001
N  N170  1  0.36970334  0.94544477  0.18087592  1  -1.228133  0.08052  -0.348487  -0.260899  0.052735  3.666128  0.069
N  N171  1  0.13029884  0.44544604  0.31911821  1  -1.229554  0.080522  -0.348478  -0.260831  0.052732  3.666052  0.069
N  N172  1  0.63029660  0.05455568  0.81912151  1  -1.228206  0.080523  -0.348474  -0.260929  0.052738  3.666127  0.069
N  N173  1  0.86970457  0.55455745  0.68087989  1  -1.228787  0.080526  -0.348485  -0.260843  0.05274  3.666053  0.069
N  N174  1  0.18302612  0.74081775  0.33914259  1  -1.207745  0.085523  -0.350807  -0.249151  0.056042  3.676265  0.073
N  N175  1  0.31697506  0.24081584  0.16086204  1  -1.207884  0.085517  -0.350814  -0.24921  0.056037  3.676255  0.073
N  N176  1  0.81697002  0.25918041  0.66085944  1  -1.207824  0.085523  -0.35077  -0.249015  0.056041  3.676104  0.073
N  N177  1  0.68303246  0.75918156  0.83914046  1  -1.207714  0.085522  -0.350789  -0.249135  0.056041  3.676168  0.073
N  N178  1  0.03967646  0.14502170  0.50035742  1  -1.225058  0.078803  -0.349048  -0.237233  0.051939  3.661718  0.068
N  N179  1  0.46031413  0.64502470  0.99964123  1  -1.22465  0.078808  -0.349122  -0.237305  0.05194  3.661608  0.068
N  N180  1  0.96031481  0.85497570  0.49963806  1  -1.22465  0.078808  -0.349087  -0.237246  0.051939  3.661665  0.068
N  N181  1  0.53967701  0.35497879  0.00035636  1  -1.2251  0.078807  -0.349079  -0.237281  0.051941  3.661731  0.068
O  O182  1  0.06675858  0.91173693  0.14230102  1  -1.185189  0.014361  -0.374931  -0.623362  0.008982  2.381842  0.012
O  O183  1  0.43324775  0.41173719  0.35771256  1  -1.185302  0.014363  -0.374864  -0.623311  0.008983  2.381481  0.012
O  O184  1  0.93324125  0.08826428  0.85769799  1  -1.185212  0.014364  -0.374936  -0.623432  0.008983  2.381837  0.012
O  O185  1  0.56675712  0.58827241  0.64230461  1  -1.18526  0.014362  -0.374901  -0.62336  0.008982  2.381712  0.012
O  O186  1  0.17616681  0.04947292  0.16669282  1  -1.105949  0.082707  -0.305609  -0.528406  0.052626  2.35806  0.076
O  O187  1  0.32384358  0.54946974  0.33329854  1  -1.105584  0.082696  -0.305541  -0.528207  0.052619  2.357822  0.076
O  O188  1  0.82383731  0.95053210  0.83330796  1  -1.105784  0.0827  -0.305616  -0.528434  0.052623  2.358047  0.076
O  O189  1  0.67616469  0.45053451  0.66669185  1  -1.105642  0.0827  -0.305629  -0.528442  0.052623  2.358102  0.076
O  O190  1  0.12468894  0.71949137  0.08932142  1  -1.176152  0.002314  -0.332468  -0.56662  0.001444  2.148096  0.002
O  O191  1  0.37530474  0.21950335  0.41069169  1  -1.176405  0.002314  -0.332674  -0.566889  0.001444  2.147851  0.002
O  O192  1  0.87530499  0.28050222  0.91068790  1  -1.176241  0.002315  -0.332666  -0.566894  0.001445  2.147944  0.002
O  O193  1  0.62469448  0.78050548  0.58931732  1  -1.176026  0.002314  -0.332551  -0.566705  0.001444  2.147847  0.002
O  O194  1  0.14382663  0.64985483  0.19860627  1  -1.179429  0.003835  -0.33692  -0.597983  0.001916  2.181146  0.004
O  O195  1  0.35618060  0.14985896  0.30140369  1  -1.179362  0.003834  -0.336915  -0.597936  0.001915  2.180997  0.004
O  O196  1  0.85618423  0.35013875  0.80139900  1  -1.179524  0.003834  -0.336885  -0.597999  0.001915  2.181099  0.004
O  O197  1  0.64382203  0.85014530  0.69860705  1  -1.179558  0.003834  -0.336859  -0.597919  0.001916  2.181015  0.004
O  O198  1  0.98832227  0.63494164  0.33075644  1  -1.120901  0.095054  -0.31257  -0.53515  0.059953  2.364594  0.087
O  O199  1  0.51168994  0.13493925  0.16924397  1  -1.12072  0.095053  -0.312552  -0.535145  0.059952  2.364545  0.087
O  O200  1  0.01167766  0.36505652  0.66924099  1  -1.120947  0.095038  -0.312616  -0.535187  0.059945  2.364549  0.087
O  O201  1  0.48832190  0.86505815  0.83075977  1  -1.120864  0.095045  -0.312658  -0.535222  0.059948  2.364571  0.087
O  O202  1  0.87504907  0.77392394  0.33632138  1  -1.161449  0.023909  -0.290318  -0.497923  0.014945  2.18906  0.02
O  O203  1  0.62495575  0.27392874  0.16367929  1  -1.160868  0.023903  -0.290237  -0.497789  0.014941  2.189037  0.02
O  O204  1  0.12494886  0.22607269  0.66368019  1  -1.161084  0.023907  -0.29032  -0.497992  0.014943  2.189135  0.02
O  O205  1  0.37505109  0.72607399  0.83632001  1  -1.161407  0.023904  -0.290318  -0.497959  0.014942  2.18913  0.02
O  O206  1  0.92217123  0.96075025  0.25772636  1  -1.209102  0.001793  -0.44686  -0.71378  0.001159  2.347045  0.001
O  O207  1  0.57782072  0.46075116  0.24227576  1  -1.209085  0.001793  -0.446822  -0.713771  0.001159  2.347071  0.001
O  O208  1  0.07782523  0.03924868  0.74227039  1  -1.208994  0.001793  -0.446733  -0.713588  0.001159  2.347007  0.001
O  O209  1  0.42217448  0.53925005  0.75772728  1  -1.209062  0.001793  -0.446826  -0.713713  0.001159  2.346997  0.001
O  O210  1  0.95605760  0.03187614  0.36458453  1  -1.147466  0.001475  -0.309259  -0.549101  0.000455  2.144321  0.002
O  O211  1  0.54394153  0.53187660  0.13541874  1  -1.147376  0.001475  -0.309309  -0.549199  0.000455  2.144266  0.002
O  O212  1  0.04393899  0.96812659  0.63541012  1  -1.147439  0.001476  -0.309349  -0.549114  0.000456  2.144184  0.002
O  O213  1  0.45606243  0.46812690  0.86458467  1  -1.147455  0.001474  -0.309299  -0.549134  0.000455  2.144401  0.002
O  O214  1  0.83683540  0.05033009  0.50244857  1  -1.087228  0.106494  -0.314902  -0.508922  0.067233  2.323079  0.096
O  O215  1  0.66315036  0.55032327  0.99754634  1  -1.087378  0.106511  -0.314992  -0.5091  0.067242  2.323452  0.096
O  O216  1  0.16314889  0.94967569  0.49754609  1  -1.087357  0.106517  -0.314962  -0.509063  0.067245  2.323487  0.096
O  O217  1  0.33683909  0.44967489  0.00245012  1  -1.087286  0.106503  -0.314997  -0.509027  0.067238  2.323058  0.096
O  O218  1  0.73506386  0.19718887  0.49809090  1  -1.176372  0.017205  -0.301237  -0.517795  0.010585  2.208616  0.015
O  O219  1  0.76493208  0.69717654  0.00191460  1  -1.176435  0.017206  -0.301279  -0.517976  0.010585  2.208627  0.015
O  O220  1  0.26493115  0.80281996  0.50191530  1  -1.176236  0.017205  -0.301278  -0.517912  0.010584  2.208719  0.015
O  O221  1  0.23506305  0.30281552  0.99808950  1  -1.176273  0.017203  -0.301244  -0.517874  0.010584  2.208691  0.015
O  O222  1  0.80848129  0.39148994  0.41755913  1  -1.189517  0.001406  -0.401404  -0.649418  0.000864  2.265369  0.001
O  O223  1  0.69151337  0.89148526  0.08244467  1  -1.189694  0.001407  -0.40144  -0.649413  0.000865  2.265314  0.001
O  O224  1  0.19151287  0.60851813  0.58244650  1  -1.189734  0.001407  -0.401431  -0.649456  0.000865  2.265334  0.001
O  O225  1  0.30848387  0.10851595  0.91755370  1  -1.189724  0.001407  -0.401491  -0.649569  0.000865  2.265317  0.001
O  O226  1  0.80811063  0.42426881  0.53428114  1  -1.175345  0.001078  -0.304795  -0.573153  0.000203  2.247765  0.002
O  O227  1  0.69189979  0.92426671  0.96572567  1  -1.175271  0.001078  -0.304677  -0.572958  0.000203  2.247768  0.002
O  O228  1  0.19190806  0.57573849  0.46572552  1  -1.175327  0.001079  -0.304799  -0.57302  0.000204  2.247726  0.002
O  O229  1  0.30811468  0.07573831  0.03427817  1  -1.17536  0.001079  -0.304765  -0.573129  0.000204  2.247609  0.002
O  O230  1  0.77243428  0.79742623  0.21059709  1  -1.234572  -5.5e-05  -0.622988  -0.820844  -8.3e-05  2.029498  0.0
O  O231  1  0.72756787  0.29742977  0.28940313  1  -1.23466  -5.5e-05  -0.622968  -0.820855  -8.3e-05  2.029439  0.0
O  O232  1  0.22756472  0.20257193  0.78940136  1  -1.234594  -5.5e-05  -0.623038  -0.821084  -8.3e-05  2.02907  0.0
O  O233  1  0.27243524  0.70257525  0.71059972  1  -1.234591  -5.5e-05  -0.62303  -0.821016  -8.3e-05  2.029217  0.0
O  O234  1  0.90575711  0.77242542  0.09799411  1  -1.301172  0.00049  -0.654032  -0.901211  0.000308  2.055093  0.0
O  O235  1  0.59424894  0.27242666  0.40200079  1  -1.29838  0.000489  -0.653906  -0.901102  0.000307  2.055167  0.0
O  O236  1  0.09424463  0.22757121  0.90200234  1  -1.298334  0.000489  -0.653924  -0.901146  0.000307  2.055326  0.0
O  O237  1  0.40575184  0.72757836  0.59799720  1  -1.298305  0.000489  -0.65393  -0.901149  0.000307  2.055143  0.0
O  O238  1  0.87919486  0.99788843  0.02505053  1  -1.274428  0.00015  -0.640278  -0.901489  7.6e-05  2.071996  0.0
O  O239  1  0.62086020  0.49796094  0.47492338  1  -1.275358  0.00015  -0.640258  -0.901234  7.6e-05  2.072177  0.0
O  O240  1  0.12085905  0.00204798  0.97492592  1  -1.275343  0.00015  -0.640298  -0.901474  7.6e-05  2.071954  0.0
O  O241  1  0.37919757  0.50211422  0.52504743  1  -1.274156  0.00015  -0.640333  -0.901516  7.6e-05  2.071955  0.0
O  O242  1  0.71940692  0.04294665  0.19352617  1  -1.264649  0.00175  -0.640219  -0.859985  0.001034  2.077429  0.002
O  O243  1  0.78060259  0.54293858  0.30646495  1  -1.264341  0.00175  -0.640112  -0.85996  0.001033  2.077275  0.002
O  O244  1  0.28059950  0.95705685  0.80646572  1  -1.264309  0.00175  -0.640119  -0.859964  0.001033  2.077269  0.002
O  O245  1  0.21940575  0.45705272  0.69352439  1  -1.264675  0.001749  -0.640174  -0.859885  0.001033  2.077409  0.002
O  O246  1  0.95128364  0.11078880  0.15156584  1  -1.226593  0.001239  -0.616293  -0.834566  0.000732  2.041558  0.001
O  O247  1  0.54872644  0.61080117  0.34842742  1  -1.227346  0.001239  -0.616416  -0.834466  0.000732  2.041542  0.001
O  O248  1  0.04871759  0.88919945  0.84842478  1  -1.226817  0.001238  -0.61644  -0.834576  0.000732  2.041489  0.001
O  O249  1  0.45128436  0.38920995  0.65156466  1  -1.22699  0.001238  -0.616352  -0.834536  0.000732  2.041587  0.001
