# generated using pymatgen
data_ZnH4C4N2O3
_symmetry_space_group_name_H-M   'P 1'
_cell_length_a   5.92063228
_cell_length_b   8.90070523
_cell_length_c   12.53128483
_cell_angle_alpha   110.79092081
_cell_angle_beta   103.65003305
_cell_angle_gamma   90.01073739
_symmetry_Int_Tables_number   1
_chemical_formula_structural   ZnH4C4N2O3
_chemical_formula_sum   'Zn4 H16 C16 N8 O12'
_cell_volume   597.36446280
_cell_formula_units_Z   4
loop_
 _symmetry_equiv_pos_site_id
 _symmetry_equiv_pos_as_xyz
  1  'x, y, z'
loop_
 _atom_site_type_symbol
 _atom_site_label
 _atom_site_symmetry_multiplicity
 _atom_site_fract_x
 _atom_site_fract_y
 _atom_site_fract_z
 _atom_site_occupancy
 _atom_site_hle17_bader_spin_density
 _atom_site_hle17_ddec_charge
 _atom_site_hle17_ddec_spin_density
 _atom_site_hle17_ddec_sum_bond_order
 _atom_site_hle17_magmom
 _atom_site_hse06_10hf_bader_spin_density
 _atom_site_hse06_10hf_ddec_charge
 _atom_site_hse06_10hf_ddec_spin_density
 _atom_site_hse06_10hf_ddec_sum_bond_order
 _atom_site_hse06_10hf_magmom
 _atom_site_hse06_bader_spin_density
 _atom_site_hse06_ddec_charge
 _atom_site_hse06_ddec_spin_density
 _atom_site_hse06_ddec_sum_bond_order
 _atom_site_hse06_magmom
 _atom_site_pbe_bader_spin_density
 _atom_site_pbe_cm5_charge
 _atom_site_pbe_ddec_charge
 _atom_site_pbe_ddec_spin_density
 _atom_site_pbe_ddec_sum_bond_order
 _atom_site_pbe_magmom
Zn  Zn0  1  0.64689879  0.78569230  0.76866582  1  0  1.060938  0  1.847304  0  0  0.872086  0  2.323125  0  0  0.917425  0  2.267729  0  0  0.708603  0.840428  0  2.361256  0
Zn  Zn1  1  0.35301962  0.01693396  0.23129583  1  0  1.061047  0  1.846731  0  0  0.872104  0  2.322686  0  0  0.917385  0  2.267324  0  0  0.708792  0.840475  0  2.360794  0
Zn  Zn2  1  0.62204695  0.28583111  0.76875021  1  0  1.059999  0  1.84757  0  0  0.871195  0  2.32301  0  0  0.916532  0  2.267659  0  0  0.708479  0.839563  0  2.361075  0
Zn  Zn3  1  0.37800188  0.51707034  0.23130833  1  0  1.060781  0  1.847416  0  0  0.871846  0  2.323313  0  0  0.917115  0  2.267917  0  0  0.708902  0.840238  0  2.361442  0
H  H4  1  0.49995631  0.01663666  0.99996176  1  0  0.072513  0  0.901943  0  0  0.086347  0  0.958305  0  0  0.087713  0  0.955691  0  0  0.137156  0.085223  0  0.960254  0
H  H5  1  0.99990362  0.51664296  0.00002309  1  0  0.073093  0  0.902008  0  0  0.086847  0  0.958368  0  0  0.088218  0  0.955744  0  0  0.137247  0.08572  0  0.960333  0
H  H6  1  0.49992021  0.46598966  0.00002988  1  0  0.151906  0  0.963915  0  0  0.159674  0  1.02645  0  0  0.164166  0  1.025445  0  0  0.106464  0.156513  0  1.027374  0
H  H7  1  0.00032390  0.96590160  0.99992514  1  0  0.151946  0  0.963944  0  0  0.159707  0  1.026485  0  0  0.164174  0  1.025524  0  0  0.106533  0.156542  0  1.027402  0
H  H8  1  0.63566705  0.57343651  0.49988304  1  0  0.058589  0  0.927827  0  0  0.068137  0  0.995139  0  0  0.069762  0  0.992305  0  0  0.126728  0.066745  0  0.997311  0
H  H9  1  0.36410890  0.07347194  0.50005874  1  0  0.058142  0  0.927968  0  0  0.067889  0  0.995158  0  0  0.06959  0  0.992245  0  0  0.126679  0.066495  0  0.997329  0
H  H10  1  0.93773350  0.86796750  0.50006223  1  0  0.152963  0  0.938427  0  0  0.16377  0  0.994009  0  0  0.168255  0  0.993537  0  0  0.106488  0.160591  0  0.994558  0
H  H11  1  0.06218667  0.36786357  0.49988210  1  0  0.152584  0  0.939419  0  0  0.163732  0  0.994607  0  0  0.168224  0  0.994123  0  0  0.1065  0.160558  0  0.995156  0
H  H12  1  0.07625487  0.77286923  0.75690606  1  0  0.429569  0  0.873411  0  0  0.397299  0  0.938774  0  0  0.407164  0  0.924709  0  0  0.29186  0.390377  0  0.948627  0
H  H13  1  0.92362824  0.01598668  0.24303133  1  0  0.429186  0  0.873964  0  0  0.396558  0  0.93961  0  0  0.406439  0  0.925552  0  0  0.291857  0.389647  0  0.949427  0
H  H14  1  0.18091385  0.27297488  0.75685378  1  0  0.42935  0  0.873472  0  0  0.3969  0  0.939164  0  0  0.406798  0  0.925068  0  0  0.291844  0.389971  0  0.949022  0
H  H15  1  0.81913176  0.51607297  0.24318238  1  0  0.429525  0  0.873495  0  0  0.396842  0  0.93929  0  0  0.406703  0  0.925256  0  0  0.29178  0.389932  0  0.949109  0
H  H16  1  0.99444339  0.59313714  0.75388910  1  0  0.437674  0  0.860065  0  0  0.404303  0  0.926416  0  0  0.414752  0  0.911473  0  0  0.291904  0.396984  0  0.936862  0
H  H17  1  0.00528899  0.83927622  0.24607189  1  0  0.436503  0  0.861538  0  0  0.40357  0  0.927161  0  0  0.413972  0  0.912296  0  0  0.291803  0.39627  0  0.937572  0
H  H18  1  0.25958254  0.09329154  0.75396175  1  0  0.437287  0  0.86034  0  0  0.404157  0  0.926418  0  0  0.414599  0  0.911475  0  0  0.291906  0.396828  0  0.936883  0
H  H19  1  0.74043503  0.33925189  0.24608441  1  0  0.437251  0  0.860436  0  0  0.403886  0  0.926718  0  0  0.414306  0  0.911823  0  0  0.291875  0.39657  0  0.93716  0
C  C20  1  0.50002276  0.89409713  0.00001717  1  0  0.386451  0  3.740285  0  0  0.322389  0  4.013784  0  0  0.346547  0  4.020698  0  0  0.192703  0.306488  0  4.008645  0
C  C21  1  0.99998954  0.39407795  0.99999497  1  0  0.384854  0  3.740027  0  0  0.320597  0  4.013309  0  0  0.344742  0  4.020212  0  0  0.192291  0.304704  0  4.008181  0
C  C22  1  0.53874306  0.62063944  0.90381541  1  0  0.583164  0  3.89338  0  0  0.545851  0  4.159372  0  0  0.575058  0  4.165057  0  0  0.200298  0.526335  0  4.154879  0
C  C23  1  0.46150444  0.71684550  0.09628188  1  0  0.581976  0  3.892099  0  0  0.5444  0  4.15841  0  0  0.573561  0  4.164183  0  0  0.199823  0.524905  0  4.153866  0
C  C24  1  0.86514871  0.12060976  0.90383451  1  0  0.582417  0  3.89481  0  0  0.544664  0  4.161171  0  0  0.573864  0  4.16693  0  0  0.199852  0.525144  0  4.156628  0
C  C25  1  0.13510698  0.21678311  0.09617023  1  0  0.581374  0  3.894394  0  0  0.544427  0  4.159569  0  0  0.573605  0  4.165302  0  0  0.199716  0.524921  0  4.155041  0
C  C26  1  0.49992874  0.58809024  0.99999323  1  0  -0.463975  0  3.665604  0  0  -0.4827  0  3.924587  0  0  -0.505362  0  3.941676  0  0  -0.141195  -0.468044  0  3.913241  0
C  C27  1  0.00020865  0.08803982  0.99997681  1  0  -0.461909  0  3.666674  0  0  -0.481181  0  3.925695  0  0  -0.503852  0  3.942816  0  0  -0.140803  -0.466511  0  3.914326  0
C  C28  1  0.47842772  0.63787681  0.49992592  1  0  0.363554  0  3.766327  0  0  0.306263  0  4.02962  0  0  0.329261  0  4.03845  0  0  0.18139  0.291247  0  4.023029  0
C  C29  1  0.52135411  0.13791111  0.50000950  1  0  0.363794  0  3.764857  0  0  0.306524  0  4.028223  0  0  0.329454  0  4.037042  0  0  0.181483  0.291522  0  4.021624  0
C  C30  1  0.24445678  0.81195832  0.60735915  1  0  0.56431  0  3.925379  0  0  0.525405  0  4.199959  0  0  0.553374  0  4.206155  0  0  0.194301  0.506823  0  4.195063  0
C  C31  1  0.75549278  0.20459740  0.39263361  1  0  0.563224  0  3.924574  0  0  0.52432  0  4.199366  0  0  0.55226  0  4.205627  0  0  0.193786  0.505761  0  4.194437  0
C  C32  1  0.86274327  0.31198084  0.60725362  1  0  0.565629  0  3.925393  0  0  0.527063  0  4.199492  0  0  0.555085  0  4.205617  0  0  0.194857  0.508456  0  4.194633  0
C  C33  1  0.13702977  0.70470881  0.39273191  1  0  0.564447  0  3.924786  0  0  0.525762  0  4.199055  0  0  0.553673  0  4.205275  0  0  0.194588  0.5072  0  4.194163  0
C  C34  1  0.09346374  0.80300065  0.50009480  1  0  -0.46088  0  3.689859  0  0  -0.479787  0  3.952179  0  0  -0.502771  0  3.969881  0  0  -0.14239  -0.464832  0  3.940263  0
C  C35  1  0.90641492  0.30290713  0.49990050  1  0  -0.46086  0  3.691146  0  0  -0.48005  0  3.953296  0  0  -0.503027  0  3.970919  0  0  -0.142233  -0.465112  0  3.941418  0
N  N36  1  0.54601137  0.77837516  0.90847683  1  0  -0.535916  0  3.256109  0  0  -0.449695  0  3.546813  0  0  -0.478075  0  3.551658  0  0  -0.371076  -0.430781  0  3.543196  0
N  N37  1  0.45412755  0.86988522  0.09154333  1  0  -0.536122  0  3.255242  0  0  -0.449735  0  3.546192  0  0  -0.478008  0  3.550898  0  0  -0.3712  -0.430848  0  3.542597  0
N  N38  1  0.86260745  0.27833903  0.90849304  1  0  -0.535526  0  3.257494  0  0  -0.448641  0  3.547499  0  0  -0.47702  0  3.552354  0  0  -0.371242  -0.429703  0  3.543832  0
N  N39  1  0.13750293  0.36987640  0.09154279  1  0  -0.535197  0  3.254099  0  0  -0.448755  0  3.544393  0  0  -0.477  0  3.549081  0  0  -0.370633  -0.429875  0  3.540801  0
N  N40  1  0.44236839  0.72629492  0.60419307  1  0  -0.528648  0  3.209731  0  0  -0.443959  0  3.501949  0  0  -0.471815  0  3.506321  0  0  -0.364613  -0.425313  0  3.498428  0
N  N41  1  0.55757707  0.12199028  0.39576088  1  0  -0.527444  0  3.209283  0  0  -0.443288  0  3.50195  0  0  -0.471142  0  3.506408  0  0  -0.364263  -0.424642  0  3.498386  0
N  N42  1  0.66173398  0.22633669  0.60419289  1  0  -0.529499  0  3.211049  0  0  -0.444947  0  3.503179  0  0  -0.472786  0  3.507536  0  0  -0.365247  -0.426323  0  3.499705  0
N  N43  1  0.33793018  0.62204262  0.39576136  1  0  -0.529062  0  3.212199  0  0  -0.444567  0  3.504381  0  0  -0.472423  0  3.508827  0  0  -0.364975  -0.425929  0  3.500847  0
O  O44  1  0.57277501  0.51874198  0.80724680  1  0  -0.64764  0  2.083048  0  0  -0.570647  0  2.360782  0  0  -0.597837  0  2.345322  0  0  -0.332124  -0.551501  0  2.370613  0
O  O45  1  0.42792332  0.71148143  0.19292808  1  0  -0.647268  0  2.083314  0  0  -0.569957  0  2.361072  0  0  -0.59701  0  2.345394  0  0  -0.332136  -0.5509  0  2.371082  0
O  O46  1  0.73450295  0.01866187  0.80732056  1  0  -0.647938  0  2.082837  0  0  -0.570257  0  2.359916  0  0  -0.597339  0  2.344254  0  0  -0.331908  -0.551189  0  2.369912  0
O  O47  1  0.26575185  0.21132701  0.19266954  1  0  -0.6483  0  2.08491  0  0  -0.570792  0  2.361738  0  0  -0.597888  0  2.346052  0  0  -0.332105  -0.55171  0  2.371752  0
O  O48  1  0.21463440  0.89269970  0.71002817  1  0  -0.656535  0  2.014187  0  0  -0.590097  0  2.231685  0  0  -0.61324  0  2.221481  0  0  -0.327225  -0.573847  0  2.238057  0
O  O49  1  0.78544855  0.18267226  0.28997392  1  0  -0.655653  0  2.013665  0  0  -0.588791  0  2.230783  0  0  -0.611915  0  2.220613  0  0  -0.326657  -0.572586  0  2.237176  0
O  O50  1  0.99540629  0.39269050  0.70986734  1  0  -0.657274  0  2.015637  0  0  -0.590796  0  2.23291  0  0  -0.614041  0  2.22275  0  0  -0.327614  -0.57454  0  2.239311  0
O  O51  1  0.00439840  0.68293971  0.29015834  1  0  -0.656643  0  2.01624  0  0  -0.589794  0  2.233021  0  0  -0.61291  0  2.222945  0  0  -0.32724  -0.573587  0  2.2394  0
O  O52  1  0.97095117  0.71112894  0.78178513  1  0  -0.836699  0  1.918979  0  0  -0.762298  0  2.135388  0  0  -0.785377  0  2.101396  0  0  -0.575432  -0.746095  0  2.158767  0
O  O53  1  0.02885547  0.92934537  0.21813949  1  0  -0.835097  0  1.919916  0  0  -0.760701  0  2.137102  0  0  -0.783725  0  2.102981  0  0  -0.575386  -0.744538  0  2.160548  0
O  O54  1  0.31098758  0.21126238  0.78182798  1  0  -0.83574  0  1.919003  0  0  -0.761544  0  2.135029  0  0  -0.784603  0  2.10097  0  0  -0.575282  -0.7454  0  2.158507  0
O  O55  1  0.68902506  0.42940721  0.21826577  1  0  -0.836214  0  1.918891  0  0  -0.761535  0  2.136351  0  0  -0.784609  0  2.102327  0  0  -0.57551  -0.745371  0  2.159822  0
