# generated using pymatgen
data_CdH8C10Br2(NCl)2
_symmetry_space_group_name_H-M   'P 1'
_cell_length_a   3.95087759
_cell_length_b   11.82934750
_cell_length_c   14.46349889
_cell_angle_alpha   90.00043015
_cell_angle_beta   89.99886920
_cell_angle_gamma   88.47027297
_symmetry_Int_Tables_number   1
_chemical_formula_structural   CdH8C10Br2(NCl)2
_chemical_formula_sum   'Cd2 H16 C20 Br4 N4 Cl4'
_cell_volume   675.72957008
_cell_formula_units_Z   2
loop_
 _symmetry_equiv_pos_site_id
 _symmetry_equiv_pos_as_xyz
  1  'x, y, z'
loop_
 _atom_site_type_symbol
 _atom_site_label
 _atom_site_symmetry_multiplicity
 _atom_site_fract_x
 _atom_site_fract_y
 _atom_site_fract_z
 _atom_site_occupancy
 _atom_site_hle17_bader_spin_density
 _atom_site_hle17_ddec_charge
 _atom_site_hle17_ddec_spin_density
 _atom_site_hle17_ddec_sum_bond_order
 _atom_site_hle17_magmom
 _atom_site_hse06_10hf_bader_spin_density
 _atom_site_hse06_10hf_ddec_charge
 _atom_site_hse06_10hf_ddec_spin_density
 _atom_site_hse06_10hf_ddec_sum_bond_order
 _atom_site_hse06_10hf_magmom
 _atom_site_hse06_bader_spin_density
 _atom_site_hse06_ddec_charge
 _atom_site_hse06_ddec_spin_density
 _atom_site_hse06_ddec_sum_bond_order
 _atom_site_hse06_magmom
 _atom_site_pbe_bader_spin_density
 _atom_site_pbe_cm5_charge
 _atom_site_pbe_ddec_charge
 _atom_site_pbe_ddec_spin_density
 _atom_site_pbe_ddec_sum_bond_order
 _atom_site_pbe_magmom
Cd  Cd0  1  0.00006573  0.00000796  0.00000415  1  0  0.843346  0  1.988523  0  0  0.676834  0  2.434831  0  0  0.726498  0  2.398115  0  0  0.533994  0.64191  0  2.460335  0
Cd  Cd1  1  0.99996806  0.49998208  0.50000231  1  0  0.843346  0  1.988481  0  0  0.676807  0  2.434799  0  0  0.726471  0  2.398083  0  0  0.534015  0.641884  0  2.4603  0
H  H2  1  0.74892233  0.89677390  0.80357321  1  0  0.085199  0  0.977111  0  0  0.089497  0  1.051583  0  0  0.092672  0  1.048655  0  0  0.098761  0.087156  0  1.053746  0
H  H3  1  0.74886790  0.39678499  0.69642610  1  0  0.08504  0  0.977299  0  0  0.089464  0  1.05165  0  0  0.092633  0  1.048733  0  0  0.098768  0.087126  0  1.053813  0
H  H4  1  0.25105776  0.10322123  0.19642928  1  0  0.085079  0  0.977239  0  0  0.089327  0  1.051772  0  0  0.092502  0  1.048845  0  0  0.098696  0.086989  0  1.053933  0
H  H5  1  0.25106632  0.60323416  0.30357086  1  0  0.085208  0  0.977044  0  0  0.089482  0  1.051541  0  0  0.092658  0  1.048612  0  0  0.098727  0.087144  0  1.0537  0
H  H6  1  0.98278935  0.11714638  0.57469128  1  0  0.110962  0  0.953522  0  0  0.114993  0  1.026148  0  0  0.118815  0  1.022405  0  0  0.096767  0.11217  0  1.028944  0
H  H7  1  0.98280714  0.61713248  0.92531336  1  0  0.11089  0  0.953417  0  0  0.114951  0  1.026047  0  0  0.118774  0  1.022304  0  0  0.096749  0.112129  0  1.028839  0
H  H8  1  0.01723625  0.88285432  0.42531398  1  0  0.110884  0  0.953558  0  0  0.115001  0  1.026073  0  0  0.118822  0  1.022333  0  0  0.096782  0.11218  0  1.028865  0
H  H9  1  0.01723619  0.38286725  0.07468153  1  0  0.110922  0  0.95356  0  0  0.114999  0  1.026157  0  0  0.118822  0  1.022411  0  0  0.096817  0.112177  0  1.028952  0
H  H10  1  0.22587456  0.24989571  0.68942807  1  0  0.103301  0  0.970817  0  0  0.111631  0  1.034693  0  0  0.114887  0  1.033562  0  0  0.093914  0.109261  0  1.035715  0
H  H11  1  0.22587275  0.74988680  0.81057456  1  0  0.103255  0  0.970831  0  0  0.111594  0  1.034721  0  0  0.114848  0  1.033591  0  0  0.093901  0.10925  0  1.035715  0
H  H12  1  0.77414089  0.75010676  0.31057511  1  0  0.103347  0  0.970847  0  0  0.111686  0  1.034717  0  0  0.11494  0  1.033586  0  0  0.093937  0.109341  0  1.035717  0
H  H13  1  0.77414775  0.25011648  0.18941272  1  0  0.10326  0  0.970709  0  0  0.111636  0  1.034579  0  0  0.114891  0  1.033446  0  0  0.093871  0.109287  0  1.035585  0
H  H14  1  0.21997062  0.19814556  0.85868020  1  0  0.070325  0  0.988939  0  0  0.070869  0  1.07001  0  0  0.074324  0  1.066132  0  0  0.091676  0.068364  0  1.072784  0
H  H15  1  0.21996072  0.69814527  0.64132007  1  0  0.070345  0  0.989045  0  0  0.070912  0  1.070093  0  0  0.074366  0  1.066214  0  0  0.091676  0.068408  0  1.072866  0
H  H16  1  0.78000188  0.80184963  0.14132022  1  0  0.070346  0  0.988915  0  0  0.070849  0  1.070045  0  0  0.074305  0  1.066166  0  0  0.091649  0.068344  0  1.072819  0
H  H17  1  0.78000915  0.30185754  0.35866997  1  0  0.070316  0  0.989081  0  0  0.070903  0  1.070077  0  0  0.074356  0  1.066199  0  0  0.091705  0.068398  0  1.072852  0
C  C18  1  0.85527385  0.97373437  0.77555573  1  0  0.054852  0  3.704714  0  0  0.015165  0  3.957165  0  0  0.021302  0  3.975109  0  0  0.029795  0.011354  0  3.944891  0
C  C19  1  0.85524530  0.47374045  0.72444278  1  0  0.055095  0  3.704655  0  0  0.015242  0  3.957178  0  0  0.021386  0  3.975127  0  0  0.029867  0.011421  0  3.944909  0
C  C20  1  0.14472394  0.02626316  0.22444607  1  0  0.055206  0  3.704498  0  0  0.015609  0  3.956915  0  0  0.021749  0  3.974858  0  0  0.029977  0.011786  0  3.944641  0
C  C21  1  0.14471181  0.52627091  0.27555349  1  0  0.054926  0  3.704621  0  0  0.015231  0  3.957113  0  0  0.021373  0  3.97506  0  0  0.029823  0.011415  0  3.94483  0
C  C22  1  0.85084587  0.99669854  0.68092311  1  0  0.077707  0  3.806641  0  0  0.095549  0  4.068794  0  0  0.093878  0  4.091381  0  0  0.010249  0.096193  0  4.053646  0
C  C23  1  0.85082819  0.49670374  0.81908386  1  0  0.077653  0  3.806447  0  0  0.09552  0  4.068629  0  0  0.093839  0  4.091229  0  0  0.010219  0.09617  0  4.053476  0
C  C24  1  0.14918239  0.00329200  0.31908491  1  0  0.077469  0  3.806712  0  0  0.095286  0  4.068921  0  0  0.093605  0  4.091524  0  0  0.010153  0.095957  0  4.053731  0
C  C25  1  0.14916941  0.50330901  0.18092347  1  0  0.077668  0  3.80667  0  0  0.095498  0  4.068857  0  0  0.093814  0  4.091461  0  0  0.010288  0.096164  0  4.053674  0
C  C26  1  0.98304287  0.09725344  0.64822944  1  0  -0.063569  0  3.709086  0  0  -0.092976  0  3.961033  0  0  -0.090155  0  3.978366  0  0  -0.076098  -0.094485  0  3.949297  0
C  C27  1  0.98305573  0.59725072  0.85176608  1  0  -0.063538  0  3.709453  0  0  -0.093008  0  3.961443  0  0  -0.090188  0  3.978783  0  0  -0.076111  -0.094518  0  3.949707  0
C  C28  1  0.01695484  0.90275001  0.35177236  1  0  -0.06346  0  3.709576  0  0  -0.092906  0  3.961452  0  0  -0.090086  0  3.978794  0  0  -0.07609  -0.094422  0  3.949708  0
C  C29  1  0.01698755  0.40275323  0.14821981  1  0  -0.063491  0  3.709185  0  0  -0.092916  0  3.961071  0  0  -0.090092  0  3.97841  0  0  -0.07615  -0.094432  0  3.949334  0
C  C30  1  0.11693436  0.17122677  0.71273577  1  0  -0.098201  0  3.721906  0  0  -0.106289  0  3.970057  0  0  -0.113651  0  3.992287  0  0  -0.08638  -0.101649  0  3.955264  0
C  C31  1  0.11693417  0.67122355  0.78727043  1  0  -0.098102  0  3.721715  0  0  -0.106203  0  3.969868  0  0  -0.113563  0  3.992096  0  0  -0.086388  -0.101583  0  3.955066  0
C  C32  1  0.88307103  0.82877070  0.28727364  1  0  -0.098213  0  3.721733  0  0  -0.106344  0  3.969897  0  0  -0.113703  0  3.992127  0  0  -0.086383  -0.101726  0  3.955088  0
C  C33  1  0.88306091  0.32878753  0.21272583  1  0  -0.098163  0  3.721743  0  0  -0.106331  0  3.969984  0  0  -0.113695  0  3.992214  0  0  -0.086398  -0.101713  0  3.95518  0
C  C34  1  0.11461959  0.14305939  0.80617435  1  0  0.117865  0  3.704469  0  0  0.082741  0  3.960186  0  0  0.089878  0  3.978895  0  0  0.032888  0.078161  0  3.947419  0
C  C35  1  0.11460837  0.64306383  0.69381924  1  0  0.117924  0  3.703997  0  0  0.08277  0  3.959708  0  0  0.089911  0  3.978409  0  0  0.032966  0.078187  0  3.946953  0
C  C36  1  0.88538084  0.85692882  0.19382053  1  0  0.117827  0  3.703912  0  0  0.082763  0  3.95958  0  0  0.089895  0  3.97829  0  0  0.032904  0.078182  0  3.946822  0
C  C37  1  0.88539442  0.35693873  0.30616873  1  0  0.117847  0  3.704359  0  0  0.082707  0  3.960086  0  0  0.089846  0  3.978791  0  0  0.032869  0.078125  0  3.947329  0
Br  Br38  1  0.48839453  0.16305262  0.02934339  1  0  -0.498334  0  1.090712  0  0  -0.4356  0  1.40652  0  0  -0.455916  0  1.385183  0  0  -0.24608  -0.420851  0  1.421998  0
Br  Br39  1  0.48830787  0.66302978  0.47067796  1  0  -0.498441  0  1.090734  0  0  -0.435694  0  1.406482  0  0  -0.456005  0  1.385141  0  0  -0.246146  -0.420968  0  1.422008  0
Br  Br40  1  0.51174489  0.83695653  0.97067708  1  0  -0.498464  0  1.090771  0  0  -0.435712  0  1.406549  0  0  -0.456024  0  1.385206  0  0  -0.246156  -0.420975  0  1.422052  0
Br  Br41  1  0.51156395  0.33691797  0.52931900  1  0  -0.498336  0  1.09061  0  0  -0.435606  0  1.406366  0  0  -0.455922  0  1.38503  0  0  -0.246111  -0.420849  0  1.421822  0
N  N42  1  0.98577961  0.04586105  0.83676941  1  0  -0.302119  0  3.281377  0  0  -0.222149  0  3.539493  0  0  -0.242866  0  3.562603  0  0  -0.326253  -0.20809  0  3.523394  0
N  N43  1  0.98575804  0.54585767  0.66322579  1  0  -0.302272  0  3.2815  0  0  -0.222241  0  3.539623  0  0  -0.24296  0  3.562731  0  0  -0.326331  -0.208172  0  3.523508  0
N  N44  1  0.01423345  0.95413045  0.16323377  1  0  -0.302231  0  3.28145  0  0  -0.22232  0  3.539552  0  0  -0.243033  0  3.562659  0  0  -0.326341  -0.208255  0  3.523442  0
N  N45  1  0.01421693  0.45414256  0.33677117  1  0  -0.302153  0  3.281235  0  0  -0.222163  0  3.539353  0  0  -0.242879  0  3.56246  0  0  -0.326247  -0.208103  0  3.523255  0
Cl  Cl46  1  0.68390279  0.89894945  0.60593172  1  0  -0.079584  0  1.411752  0  0  -0.061781  0  1.654996  0  0  -0.066352  0  1.652127  0  0  0.013812  -0.058471  0  1.657194  0
Cl  Cl47  1  0.68387979  0.39894524  0.89407486  1  0  -0.079563  0  1.411576  0  0  -0.061737  0  1.654811  0  0  -0.066303  0  1.651943  0  0  0.013837  -0.058432  0  1.657005  0
Cl  Cl48  1  0.31612526  0.10105715  0.39407215  1  0  -0.079558  0  1.411693  0  0  -0.061765  0  1.654967  0  0  -0.06633  0  1.6521  0  0  0.013802  -0.058468  0  1.657152  0
Cl  Cl49  1  0.31610011  0.60106510  0.10592763  1  0  -0.079614  0  1.411749  0  0  -0.061773  0  1.654982  0  0  -0.06634  0  1.652117  0  0  0.01381  -0.058472  0  1.657168  0
