# generated using pymatgen
data_CdH20C16N2O5
_symmetry_space_group_name_H-M   'P 1'
_cell_length_a   8.59926933
_cell_length_b   10.92709813
_cell_length_c   10.92708240
_cell_angle_alpha   116.12484956
_cell_angle_beta   92.03091694
_cell_angle_gamma   92.03092871
_symmetry_Int_Tables_number   1
_chemical_formula_structural   CdH20C16N2O5
_chemical_formula_sum   'Cd2 H40 C32 N4 O10'
_cell_volume   919.79533256
_cell_formula_units_Z   2
loop_
 _symmetry_equiv_pos_site_id
 _symmetry_equiv_pos_as_xyz
  1  'x, y, z'
loop_
 _atom_site_type_symbol
 _atom_site_label
 _atom_site_symmetry_multiplicity
 _atom_site_fract_x
 _atom_site_fract_y
 _atom_site_fract_z
 _atom_site_occupancy
 _atom_site_hle17_bader_spin_density
 _atom_site_hle17_ddec_charge
 _atom_site_hle17_ddec_spin_density
 _atom_site_hle17_ddec_sum_bond_order
 _atom_site_hle17_magmom
 _atom_site_hse06_10hf_bader_spin_density
 _atom_site_hse06_10hf_ddec_charge
 _atom_site_hse06_10hf_ddec_spin_density
 _atom_site_hse06_10hf_ddec_sum_bond_order
 _atom_site_hse06_10hf_magmom
 _atom_site_hse06_bader_spin_density
 _atom_site_hse06_ddec_charge
 _atom_site_hse06_ddec_spin_density
 _atom_site_hse06_ddec_sum_bond_order
 _atom_site_hse06_magmom
 _atom_site_pbe_bader_spin_density
 _atom_site_pbe_cm5_charge
 _atom_site_pbe_ddec_charge
 _atom_site_pbe_ddec_spin_density
 _atom_site_pbe_ddec_sum_bond_order
 _atom_site_pbe_magmom
Cd  Cd0  1  0.25000017  0.39207812  0.60792224  1  0  1.118513  0  1.674386  0  0  0.917661  0  2.121102  0  0  0.975913  0  2.069159  0  0  0.758399  0.875963  0  2.156735  0
Cd  Cd1  1  0.74999937  0.60792311  0.39207845  1  0  1.118497  0  1.674408  0  0  0.917653  0  2.121129  0  0  0.975906  0  2.069185  0  0  0.758397  0.875959  0  2.156755  0
H  H2  1  0.79998135  0.36787447  0.85595420  1  0  0.126215  0  0.955715  0  0  0.145221  0  1.016468  0  0  0.147333  0  1.016216  0  0  0.094387  0.143662  0  1.016739  0
H  H3  1  0.70001987  0.14404765  0.63212713  1  0  0.126206  0  0.955677  0  0  0.145225  0  1.016427  0  0  0.147338  0  1.016173  0  0  0.094402  0.143669  0  1.016697  0
H  H4  1  0.20001951  0.63212880  0.14404651  1  0  0.126208  0  0.955679  0  0  0.145218  0  1.016435  0  0  0.147331  0  1.01618  0  0  0.094405  0.143663  0  1.016702  0
H  H5  1  0.29998085  0.85595357  0.36787268  1  0  0.126203  0  0.955719  0  0  0.145221  0  1.01646  0  0  0.147333  0  1.016207  0  0  0.094397  0.143665  0  1.01673  0
H  H6  1  0.74220592  0.48834533  0.79409054  1  0  0.134246  0  0.949696  0  0  0.151766  0  1.010121  0  0  0.15401  0  1.010342  0  0  0.093615  0.150068  0  1.010125  0
H  H7  1  0.75779428  0.20591031  0.51165455  1  0  0.134245  0  0.949671  0  0  0.151776  0  1.010092  0  0  0.154021  0  1.010313  0  0  0.093636  0.150082  0  1.010095  0
H  H8  1  0.25779363  0.51165590  0.20590923  1  0  0.134281  0  0.949704  0  0  0.151791  0  1.010142  0  0  0.154035  0  1.010363  0  0  0.093628  0.150092  0  1.01015  0
H  H9  1  0.24220527  0.79409092  0.48834523  1  0  0.134256  0  0.949702  0  0  0.151777  0  1.010129  0  0  0.154021  0  1.010352  0  0  0.093627  0.150082  0  1.010135  0
H  H10  1  0.86561920  0.54118294  0.94573056  1  0  0.143977  0  0.947157  0  0  0.161799  0  1.009765  0  0  0.164851  0  1.008257  0  0  0.100588  0.159609  0  1.010837  0
H  H11  1  0.63438112  0.05426978  0.45881771  1  0  0.143982  0  0.947094  0  0  0.161812  0  1.0097  0  0  0.164863  0  1.008192  0  0  0.100587  0.159621  0  1.010775  0
H  H12  1  0.13438036  0.45881829  0.05426738  1  0  0.143997  0  0.947045  0  0  0.161819  0  1.009657  0  0  0.164866  0  1.008152  0  0  0.100595  0.159631  0  1.010729  0
H  H13  1  0.36561960  0.94573145  0.54118301  1  0  0.143962  0  0.947123  0  0  0.161787  0  1.009734  0  0  0.16484  0  1.008225  0  0  0.100583  0.159598  0  1.010807  0
H  H14  1  0.31775057  0.50876469  0.92859452  1  0  0.078157  0  0.968182  0  0  0.08549  0  1.036394  0  0  0.087562  0  1.034972  0  0  0.113945  0.083907  0  1.037605  0
H  H15  1  0.18224966  0.07140411  0.49123385  1  0  0.078136  0  0.968165  0  0  0.085472  0  1.036376  0  0  0.087543  0  1.034953  0  0  0.113947  0.083893  0  1.037584  0
H  H16  1  0.68224876  0.49123348  0.07140481  1  0  0.078118  0  0.968189  0  0  0.08545  0  1.036408  0  0  0.087522  0  1.034984  0  0  0.113937  0.083872  0  1.037614  0
H  H17  1  0.81775447  0.92859608  0.50876651  1  0  0.07814  0  0.968156  0  0  0.085451  0  1.036399  0  0  0.087522  0  1.034975  0  0  0.113932  0.08387  0  1.037607  0
H  H18  1  0.47517135  0.69350192  0.12810021  1  0  0.114856  0  0.96582  0  0  0.12336  0  1.028886  0  0  0.126357  0  1.028889  0  0  0.106699  0.121049  0  1.029381  0
H  H19  1  0.02483019  0.87189896  0.30649562  1  0  0.114834  0  0.965813  0  0  0.123352  0  1.02887  0  0  0.126349  0  1.028873  0  0  0.106694  0.121044  0  1.029364  0
H  H20  1  0.52482798  0.30649625  0.87190003  1  0  0.114837  0  0.965784  0  0  0.123351  0  1.028851  0  0  0.126348  0  1.028855  0  0  0.106689  0.12104  0  1.029344  0
H  H21  1  0.97517278  0.12810123  0.69350380  1  0  0.114835  0  0.965777  0  0  0.123342  0  1.028859  0  0  0.126339  0  1.028863  0  0  0.106692  0.121035  0  1.029354  0
H  H22  1  0.63343334  0.84680106  0.84863546  1  0  0.106974  0  0.935301  0  0  0.120784  0  0.987375  0  0  0.123974  0  0.987137  0  0  0.108145  0.118533  0  0.987728  0
H  H23  1  0.86656696  0.15136215  0.15319812  1  0  0.106952  0  0.935353  0  0  0.120768  0  0.987419  0  0  0.123958  0  0.987181  0  0  0.108158  0.118516  0  0.98777  0
H  H24  1  0.36656730  0.15319914  0.15136481  1  0  0.106959  0  0.935319  0  0  0.120771  0  0.987394  0  0  0.123961  0  0.987155  0  0  0.108138  0.118521  0  0.987743  0
H  H25  1  0.13343353  0.84863601  0.84680124  1  0  0.106985  0  0.935322  0  0  0.120798  0  0.987393  0  0  0.123988  0  0.987154  0  0  0.108162  0.118547  0  0.987743  0
H  H26  1  0.47643217  0.65805910  0.66394522  1  0  0.091725  0  0.981865  0  0  0.100036  0  1.044816  0  0  0.10305  0  1.041851  0  0  0.116775  0.097906  0  1.046837  0
H  H27  1  0.02356870  0.33605359  0.34193919  1  0  0.091728  0  0.981821  0  0  0.100045  0  1.044764  0  0  0.103058  0  1.041803  0  0  0.116779  0.097915  0  1.046785  0
H  H28  1  0.52356839  0.34194008  0.33605551  1  0  0.091745  0  0.98184  0  0  0.100057  0  1.044779  0  0  0.103072  0  1.041814  0  0  0.116776  0.097931  0  1.046794  0
H  H29  1  0.97643173  0.66394355  0.65805881  1  0  0.09164  0  0.981855  0  0  0.100006  0  1.044755  0  0  0.102984  0  1.041834  0  0  0.116751  0.097878  0  1.04677  0
H  H30  1  0.63432497  0.99811476  0.12581653  1  0  0.073354  0  0.940437  0  0  0.088471  0  1.005046  0  0  0.089315  0  1.005602  0  0  0.091801  0.087681  0  1.004966  0
H  H31  1  0.86567322  0.87418215  0.00188505  1  0  0.073368  0  0.940481  0  0  0.088507  0  1.00508  0  0  0.089352  0  1.005634  0  0  0.09181  0.087715  0  1.005  0
H  H32  1  0.36567560  0.00188442  0.87418329  1  0  0.073363  0  0.940471  0  0  0.088478  0  1.005079  0  0  0.089323  0  1.005634  0  0  0.091803  0.087689  0  1.004999  0
H  H33  1  0.13432501  0.12581704  0.99811653  1  0  0.073395  0  0.940425  0  0  0.088503  0  1.005033  0  0  0.08935  0  1.005586  0  0  0.091808  0.087714  0  1.00495  0
H  H34  1  0.63331948  0.89817564  0.21792399  1  0  0.09884  0  0.942002  0  0  0.115342  0  1.000115  0  0  0.117555  0  0.998647  0  0  0.098772  0.113826  0  1.001064  0
H  H35  1  0.86668074  0.78207494  0.10182244  1  0  0.098876  0  0.941977  0  0  0.115382  0  1.000106  0  0  0.117595  0  0.998639  0  0  0.098779  0.113866  0  1.001056  0
H  H36  1  0.36667993  0.10182355  0.78207580  1  0  0.098892  0  0.941939  0  0  0.115381  0  1.000075  0  0  0.117597  0  0.998604  0  0  0.09877  0.113868  0  1.001023  0
H  H37  1  0.13331989  0.21792526  0.89817782  1  0  0.098899  0  0.941938  0  0  0.115389  0  1.000066  0  0  0.117603  0  0.998597  0  0  0.098785  0.113875  0  1.001014  0
H  H38  1  0.16115742  0.52200420  0.42317389  1  0  0.420829  0  0.889549  0  0  0.387798  0  0.957172  0  0  0.399253  0  0.940548  0  0  0.281669  0.379674  0  0.968927  0
H  H39  1  0.33884176  0.57682428  0.47799517  1  0  0.420833  0  0.889546  0  0  0.387797  0  0.957179  0  0  0.399252  0  0.940555  0  0  0.281664  0.379677  0  0.968927  0
H  H40  1  0.83884198  0.47799499  0.57682498  1  0  0.420841  0  0.889534  0  0  0.3878  0  0.957175  0  0  0.399256  0  0.940548  0  0  0.281662  0.379679  0  0.968924  0
H  H41  1  0.66115764  0.42317490  0.52200461  1  0  0.420836  0  0.889541  0  0  0.387801  0  0.957173  0  0  0.399255  0  0.940549  0  0  0.28166  0.379677  0  0.968926  0
C  C42  1  0.98218900  0.43080992  0.76315042  1  0  0.730085  0  3.866796  0  0  0.689393  0  4.157987  0  0  0.722652  0  4.152241  0  0  0.196291  0.666685  0  4.161049  0
C  C43  1  0.51781220  0.23685012  0.56919094  1  0  0.730082  0  3.866849  0  0  0.68939  0  4.158042  0  0  0.722648  0  4.152296  0  0  0.196287  0.666689  0  4.161096  0
C  C44  1  0.01781186  0.56919335  0.23685120  1  0  0.730018  0  3.866931  0  0  0.689351  0  4.158079  0  0  0.722609  0  4.152334  0  0  0.196248  0.666659  0  4.161122  0
C  C45  1  0.48218843  0.76315009  0.43080933  1  0  0.730031  0  3.866745  0  0  0.689356  0  4.157919  0  0  0.722613  0  4.152177  0  0  0.196287  0.666652  0  4.160976  0
C  C46  1  0.83700654  0.45822896  0.84296864  1  0  -0.454908  0  3.653498  0  0  -0.527032  0  3.883121  0  0  -0.53469  0  3.886058  0  0  -0.248789  -0.52149  0  3.881068  0
C  C47  1  0.66299305  0.15703336  0.54177136  1  0  -0.45491  0  3.653465  0  0  -0.52706  0  3.883098  0  0  -0.534717  0  3.886032  0  0  -0.248817  -0.521523  0  3.881048  0
C  C48  1  0.16299184  0.54177227  0.15703384  1  0  -0.454949  0  3.653537  0  0  -0.527078  0  3.883162  0  0  -0.534733  0  3.886102  0  0  -0.248812  -0.521548  0  3.88111  0
C  C49  1  0.33700650  0.84296787  0.45822841  1  0  -0.454873  0  3.653489  0  0  -0.527011  0  3.883118  0  0  -0.534671  0  3.886056  0  0  -0.248779  -0.521475  0  3.88107  0
C  C50  1  0.38984581  0.58642333  0.91665988  1  0  0.119864  0  3.743529  0  0  0.090011  0  3.993691  0  0  0.097385  0  4.013435  0  0  0.040953  0.085368  0  3.980268  0
C  C51  1  0.11015515  0.08333801  0.41357392  1  0  0.120058  0  3.743671  0  0  0.090211  0  3.993816  0  0  0.097586  0  4.013557  0  0  0.041059  0.085561  0  3.980401  0
C  C52  1  0.61015352  0.41357483  0.08333945  1  0  0.120001  0  3.743549  0  0  0.090165  0  3.9937  0  0  0.09754  0  4.013442  0  0  0.041018  0.085516  0  3.980281  0
C  C53  1  0.88984782  0.91666218  0.58642458  1  0  0.119975  0  3.743578  0  0  0.090151  0  3.993721  0  0  0.097526  0  4.013464  0  0  0.041014  0.085507  0  3.980302  0
C  C54  1  0.47581258  0.68917715  0.02646158  1  0  -0.185896  0  3.713724  0  0  -0.201298  0  3.955065  0  0  -0.210701  0  3.977616  0  0  -0.088793  -0.195063  0  3.94011  0
C  C55  1  0.02418958  0.97353771  0.31082271  1  0  -0.185919  0  3.713838  0  0  -0.20135  0  3.95515  0  0  -0.210743  0  3.977711  0  0  -0.088831  -0.195122  0  3.940201  0
C  C56  1  0.52418806  0.31082305  0.97353961  1  0  -0.185989  0  3.713805  0  0  -0.201417  0  3.955125  0  0  -0.21081  0  3.977685  0  0  -0.088874  -0.195183  0  3.940175  0
C  C57  1  0.97581208  0.02646044  0.68917577  1  0  -0.185955  0  3.713827  0  0  -0.201383  0  3.955141  0  0  -0.210777  0  3.977703  0  0  -0.088859  -0.195155  0  3.940195  0
C  C58  1  0.56547335  0.78715751  0.00569285  1  0  0.157164  0  3.72996  0  0  0.174539  0  3.964823  0  0  0.179885  0  3.987801  0  0  0.012553  0.171023  0  3.94886  0
C  C59  1  0.93452869  0.99430708  0.21284140  1  0  0.157037  0  3.729878  0  0  0.174483  0  3.964693  0  0  0.179794  0  3.987716  0  0  0.012521  0.170972  0  3.948726  0
C  C60  1  0.43452837  0.21284167  0.99430883  1  0  0.157144  0  3.729988  0  0  0.174579  0  3.964776  0  0  0.179891  0  3.987799  0  0  0.012577  0.171062  0  3.94882  0
C  C61  1  0.06547297  0.00569108  0.78715800  1  0  0.157099  0  3.729999  0  0  0.174537  0  3.964777  0  0  0.179848  0  3.987803  0  0  0.012551  0.171023  0  3.948817  0
C  C62  1  0.56466906  0.77490016  0.87245662  1  0  -0.18386  0  3.720741  0  0  -0.200553  0  3.967963  0  0  -0.209336  0  3.989071  0  0  -0.087848  -0.195006  0  3.954089  0
C  C63  1  0.93532965  0.12754218  0.22509903  1  0  -0.183781  0  3.720751  0  0  -0.2005  0  3.967959  0  0  -0.209272  0  3.989076  0  0  -0.087848  -0.194954  0  3.954083  0
C  C64  1  0.43533034  0.22509903  0.12754408  1  0  -0.183812  0  3.720795  0  0  -0.200528  0  3.967999  0  0  -0.2093  0  3.989116  0  0  -0.087835  -0.194983  0  3.954126  0
C  C65  1  0.06467222  0.87245904  0.77490264  1  0  -0.183855  0  3.720765  0  0  -0.200586  0  3.968008  0  0  -0.209356  0  3.989113  0  0  -0.087862  -0.19504  0  3.954132  0
C  C66  1  0.47672168  0.66884714  0.76785716  1  0  0.130271  0  3.715543  0  0  0.098216  0  3.968906  0  0  0.106249  0  3.986258  0  0  0.042915  0.093032  0  3.957281  0
C  C67  1  0.02327849  0.23214061  0.33115076  1  0  0.130295  0  3.715328  0  0  0.098238  0  3.968709  0  0  0.106274  0  3.98606  0  0  0.04293  0.093057  0  3.957082  0
C  C68  1  0.52327773  0.33115204  0.23214171  1  0  0.13027  0  3.715476  0  0  0.09823  0  3.968854  0  0  0.106263  0  3.986205  0  0  0.042947  0.093046  0  3.957226  0
C  C69  1  0.97672340  0.76786061  0.66884724  1  0  0.130421  0  3.715411  0  0  0.098328  0  3.96879  0  0  0.106389  0  3.986153  0  0  0.042993  0.093147  0  3.957159  0
C  C70  1  0.66194970  0.89836746  0.12079654  1  0  -0.153806  0  3.673873  0  0  -0.195458  0  3.920934  0  0  -0.197286  0  3.931916  0  0  -0.155034  -0.19383  0  3.912885  0
C  C71  1  0.83804914  0.87920119  0.10162910  1  0  -0.153731  0  3.673792  0  0  -0.195485  0  3.920911  0  0  -0.197304  0  3.931902  0  0  -0.154996  -0.193848  0  3.912855  0
C  C72  1  0.33804724  0.10162969  0.87920227  1  0  -0.153786  0  3.673915  0  0  -0.195473  0  3.92095  0  0  -0.197293  0  3.93194  0  0  -0.154985  -0.193843  0  3.9129  0
C  C73  1  0.16195353  0.12079492  0.89836851  1  0  -0.153838  0  3.673918  0  0  -0.195495  0  3.920922  0  0  -0.197315  0  3.931913  0  0  -0.155019  -0.193865  0  3.912869  0
N  N74  1  0.38946429  0.57604846  0.78940191  1  0  -0.340327  0  3.258721  0  0  -0.264073  0  3.523821  0  0  -0.284941  0  3.542835  0  0  -0.331555  -0.249821  0  3.510473  0
N  N75  1  0.11053577  0.21059649  0.42395144  1  0  -0.34047  0  3.258665  0  0  -0.264239  0  3.523799  0  0  -0.285106  0  3.542809  0  0  -0.331635  -0.249981  0  3.510447  0
N  N76  1  0.61053395  0.42395074  0.21059784  1  0  -0.340384  0  3.258606  0  0  -0.264173  0  3.523749  0  0  -0.285043  0  3.542763  0  0  -0.331612  -0.249918  0  3.510397  0
N  N77  1  0.88946589  0.78940166  0.57604705  1  0  -0.340407  0  3.258691  0  0  -0.264176  0  3.523827  0  0  -0.285044  0  3.542829  0  0  -0.331604  -0.249923  0  3.510478  0
O  O78  1  0.08974539  0.36769088  0.78876807  1  0  -0.654318  0  1.905828  0  0  -0.596989  0  2.13455  0  0  -0.623455  0  2.124934  0  0  -0.331164  -0.578303  0  2.140399  0
O  O79  1  0.41025545  0.21123203  0.63230932  1  0  -0.654291  0  1.905779  0  0  -0.596963  0  2.134504  0  0  -0.623433  0  2.12489  0  0  -0.331154  -0.578279  0  2.140342  0
O  O80  1  0.91025540  0.63231137  0.21123310  1  0  -0.654298  0  1.905798  0  0  -0.596981  0  2.134508  0  0  -0.623445  0  2.124889  0  0  -0.331162  -0.578303  0  2.140355  0
O  O81  1  0.58974519  0.78876817  0.36769004  1  0  -0.654278  0  1.905718  0  0  -0.596959  0  2.134436  0  0  -0.623424  0  2.12482  0  0  -0.331178  -0.578278  0  2.140291  0
O  O82  1  0.99393996  0.47484123  0.67212338  1  0  -0.67714  0  2.016841  0  0  -0.599856  0  2.243088  0  0  -0.630202  0  2.233388  0  0  -0.328924  -0.578693  0  2.24916  0
O  O83  1  0.50605974  0.32787704  0.52515977  1  0  -0.677156  0  2.016828  0  0  -0.599875  0  2.243075  0  0  -0.630225  0  2.23338  0  0  -0.328926  -0.578713  0  2.249143  0
O  O84  1  0.00605952  0.52515897  0.32787594  1  0  -0.677085  0  2.016819  0  0  -0.599813  0  2.243052  0  0  -0.630163  0  2.233358  0  0  -0.328893  -0.578656  0  2.249121  0
O  O85  1  0.49393981  0.67212419  0.47484183  1  0  -0.67714  0  2.016825  0  0  -0.599864  0  2.243056  0  0  -0.630213  0  2.233363  0  0  -0.328931  -0.578703  0  2.249128  0
O  O86  1  0.24999912  0.51792088  0.48207679  1  0  -0.871184  0  1.862314  0  0  -0.811599  0  2.073203  0  0  -0.833545  0  2.037279  0  0  -0.612441  -0.79562  0  2.098144  0
O  O87  1  0.75000022  0.48207729  0.51792071  1  0  -0.871204  0  1.862321  0  0  -0.811618  0  2.073218  0  0  -0.833565  0  2.037293  0  0  -0.612434  -0.79564  0  2.098158  0
