# generated using pymatgen
data_AgH5C5(NO2)2
_symmetry_space_group_name_H-M   'P 1'
_cell_length_a   5.10169265
_cell_length_b   7.82007966
_cell_length_c   18.06034624
_cell_angle_alpha   89.99956098
_cell_angle_beta   90.00125722
_cell_angle_gamma   94.15151289
_symmetry_Int_Tables_number   1
_chemical_formula_structural   AgH5C5(NO2)2
_chemical_formula_sum   'Ag4 H20 C20 N8 O16'
_cell_volume   718.63852761
_cell_formula_units_Z   4
loop_
 _symmetry_equiv_pos_site_id
 _symmetry_equiv_pos_as_xyz
  1  'x, y, z'
loop_
 _atom_site_type_symbol
 _atom_site_label
 _atom_site_symmetry_multiplicity
 _atom_site_fract_x
 _atom_site_fract_y
 _atom_site_fract_z
 _atom_site_occupancy
 _atom_site_hle17_bader_spin_density
 _atom_site_hle17_ddec_charge
 _atom_site_hle17_ddec_spin_density
 _atom_site_hle17_ddec_sum_bond_order
 _atom_site_hle17_magmom
 _atom_site_hse06_10hf_bader_charge
 _atom_site_hse06_10hf_bader_spin_density
 _atom_site_hse06_10hf_ddec_charge
 _atom_site_hse06_10hf_ddec_spin_density
 _atom_site_hse06_10hf_ddec_sum_bond_order
 _atom_site_hse06_10hf_magmom
 _atom_site_hse06_bader_spin_density
 _atom_site_hse06_ddec_charge
 _atom_site_hse06_ddec_spin_density
 _atom_site_hse06_ddec_sum_bond_order
 _atom_site_hse06_magmom
 _atom_site_pbe_bader_spin_density
 _atom_site_pbe_cm5_charge
 _atom_site_pbe_ddec_charge
 _atom_site_pbe_ddec_spin_density
 _atom_site_pbe_ddec_sum_bond_order
 _atom_site_pbe_magmom
Ag  Ag0  1  0.26952585  0.70593351  0.16536783  1  0  0.668725  0  1.110067  0  0.715123  0  0.545855  0  1.513448  0  0  0.581939  0  1.461145  0  0  0.43731  0.519664  0  1.550178  0
Ag  Ag1  1  0.23045892  0.79406248  0.66537677  1  0  0.668652  0  1.110082  0  0.715202  0  0.545832  0  1.513529  0  0  0.581925  0  1.461164  0  0  0.437304  0.519655  0  1.550194  0
Ag  Ag2  1  0.73046830  0.29406733  0.83462085  1  0  0.668679  0  1.110106  0  0.715225  0  0.545844  0  1.51354  0  0  0.581936  0  1.461166  0  0  0.437293  0.519666  0  1.550208  0
Ag  Ag3  1  0.76953682  0.20592292  0.33462796  1  0  0.668717  0  1.110058  0  0.715181  0  0.545873  0  1.513372  0  0  0.581954  0  1.46111  0  0  0.437309  0.519681  0  1.550139  0
H  H4  1  0.41082635  0.00982386  0.94059178  1  0  0.308561  0  0.92827  0  0.542704  0  0.286097  0  0.993091  0  0  0.296091  0  0.985412  0  0  0.3066  0.279078  0  0.99848  0
H  H5  1  0.08918337  0.49018115  0.44060272  1  0  0.308659  0  0.928017  0  0.542671  0  0.286128  0  0.992922  0  0  0.296122  0  0.985242  0  0  0.306584  0.279111  0  0.998316  0
H  H6  1  0.58918402  0.99018056  0.05939855  1  0  0.308484  0  0.928101  0  0.542671  0  0.285905  0  0.993059  0  0  0.295899  0  0.985389  0  0  0.306492  0.278889  0  0.998441  0
H  H7  1  0.91080064  0.50980444  0.55940423  1  0  0.308396  0  0.928089  0  0.542893  0  0.285861  0  0.992981  0  0  0.29585  0  0.985316  0  0  0.306496  0.278845  0  0.998367  0
H  H8  1  0.89817945  0.63134734  0.04051246  1  0  0.122797  0  0.983232  0  0.114771  0  0.130526  0  1.048639  0  0  0.134148  0  1.047554  0  0  0.101804  0.127942  0  1.049587  0
H  H9  1  0.60185442  0.86866142  0.54051530  1  0  0.122985  0  0.98322  0  0.114497  0  0.130703  0  1.048607  0  0  0.134326  0  1.047518  0  0  0.101901  0.128105  0  1.049584  0
H  H10  1  0.10184363  0.36866329  0.95948452  1  0  0.122992  0  0.983078  0  0.114543  0  0.130693  0  1.048498  0  0  0.134316  0  1.04741  0  0  0.101904  0.128093  0  1.049472  0
H  H11  1  0.39812587  0.13132552  0.45949330  1  0  0.122988  0  0.983245  0  0.114425  0  0.130703  0  1.0486  0  0  0.134331  0  1.047535  0  0  0.101877  0.128096  0  1.049626  0
H  H12  1  0.62659889  0.61848639  0.92501847  1  0  0.093839  0  0.93082  0  0.118195  0  0.106477  0  0.989978  0  0  0.109462  0  0.986319  0  0  0.105745  0.104104  0  0.992827  0
H  H13  1  0.87338791  0.88152337  0.42502057  1  0  0.093954  0  0.930948  0  0.118167  0  0.106611  0  0.990023  0  0  0.109619  0  0.986357  0  0  0.105792  0.104198  0  0.992934  0
H  H14  1  0.37339680  0.38152471  0.07497685  1  0  0.093964  0  0.930954  0  0.1181  0  0.106638  0  0.990022  0  0  0.109647  0  0.986336  0  0  0.105797  0.104228  0  0.992912  0
H  H15  1  0.12659373  0.11847254  0.57498693  1  0  0.09396  0  0.930887  0  0.117949  0  0.106605  0  0.990001  0  0  0.109615  0  0.98631  0  0  0.105775  0.104196  0  0.992884  0
H  H16  1  0.75748510  0.80641836  0.81795191  1  0  0.119731  0  0.973348  0  0.143081  0  0.125857  0  1.038852  0  0  0.128807  0  1.038629  0  0  0.105612  0.123704  0  1.039233  0
H  H17  1  0.74248825  0.69359521  0.31795337  1  0  0.119773  0  0.973051  0  0.14222  0  0.125892  0  1.038555  0  0  0.128842  0  1.038377  0  0  0.105642  0.123742  0  1.038982  0
H  H18  1  0.24252349  0.19360022  0.18204562  1  0  0.119738  0  0.973183  0  0.143018  0  0.125878  0  1.038664  0  0  0.128832  0  1.03841  0  0  0.105622  0.123731  0  1.039018  0
H  H19  1  0.25748968  0.30640205  0.68205303  1  0  0.119647  0  0.973208  0  0.142977  0  0.125763  0  1.038768  0  0  0.128712  0  1.038547  0  0  0.105575  0.123613  0  1.039144  0
H  H20  1  0.17060232  0.00729925  0.83018284  1  0  0.098287  0  0.957274  0  0.153065  0  0.10604  0  1.026233  0  0  0.109558  0  1.021567  0  0  0.122963  0.103387  0  1.029712  0
H  H21  1  0.32938022  0.49269828  0.33019086  1  0  0.098304  0  0.956973  0  0.154574  0  0.10598  0  1.026013  0  0  0.1095  0  1.021354  0  0  0.122948  0.103329  0  1.029499  0
H  H22  1  0.82940415  0.99270523  0.16981303  1  0  0.098354  0  0.956948  0  0.153328  0  0.106046  0  1.025912  0  0  0.109565  0  1.021305  0  0  0.122939  0.103392  0  1.02945  0
H  H23  1  0.67060808  0.50728981  0.66981442  1  0  0.098371  0  0.957213  0  0.153202  0  0.106065  0  1.026223  0  0  0.10958  0  1.021561  0  0  0.122987  0.103415  0  1.029696  0
C  C24  1  0.18655058  0.82000690  0.99710776  1  0  0.535426  0  3.850365  0  1.247597  0  0.494833  0  4.120244  0  0  0.520829  0  4.128504  0  0  0.211976  0.477444  0  4.113905  0
C  C25  1  0.31346433  0.68000855  0.49711581  1  0  0.535334  0  3.850363  0  1.247584  0  0.494762  0  4.12016  0  0  0.520755  0  4.128427  0  0  0.211904  0.477369  0  4.113827  0
C  C26  1  0.81346134  0.18000777  0.00288368  1  0  0.535353  0  3.850256  0  1.247077  0  0.494759  0  4.120046  0  0  0.520756  0  4.128304  0  0  0.211901  0.477372  0  4.113707  0
C  C27  1  0.68652045  0.31998217  0.50288892  1  0  0.53532  0  3.850456  0  1.247296  0  0.4947  0  4.12025  0  0  0.520703  0  4.128515  0  0  0.211946  0.477305  0  4.113912  0
C  C28  1  0.95394023  0.70923100  0.99228549  1  0  -0.257961  0  3.699763  0  -0.015579  0  -0.271053  0  3.95196  0  0  -0.284446  0  3.971245  0  0  -0.105693  -0.262482  0  3.93903  0
C  C29  1  0.54607133  0.79077898  0.49229638  1  0  -0.25804  0  3.699775  0  -0.015644  0  -0.271157  0  3.951998  0  0  -0.284545  0  3.971273  0  0  -0.10581  -0.262576  0  3.93906  0
C  C30  1  0.04606563  0.29078249  0.00770596  1  0  -0.258155  0  3.699574  0  -0.015551  0  -0.271277  0  3.951834  0  0  -0.28467  0  3.971114  0  0  -0.105861  -0.262689  0  3.938895  0
C  C31  1  0.45390251  0.20920422  0.50771223  1  0  -0.258125  0  3.69973  0  -0.015047  0  -0.271246  0  3.951968  0  0  -0.284635  0  3.971258  0  0  -0.105821  -0.262664  0  3.939054  0
C  C32  1  0.80409599  0.70496980  0.92859189  1  0  0.036482  0  3.722741  0  -0.139551  0  0.012195  0  3.984106  0  0  0.021828  0  3.997664  0  0  -0.069871  0.006304  0  3.974706  0
C  C33  1  0.69590007  0.79504747  0.42860095  1  0  0.036176  0  3.723111  0  -0.139616  0  0.011891  0  3.984429  0  0  0.0215  0  3.998033  0  0  -0.069879  0.006027  0  3.975082  0
C  C34  1  0.19591379  0.29504362  0.07140066  1  0  0.036244  0  3.723068  0  -0.139687  0  0.011956  0  3.984369  0  0  0.021571  0  3.997929  0  0  -0.069852  0.006095  0  3.974984  0
C  C35  1  0.30407728  0.20494595  0.57140766  1  0  0.036285  0  3.722858  0  -0.139963  0  0.011989  0  3.984218  0  0  0.021599  0  3.997785  0  0  -0.069871  0.006127  0  3.974815  0
C  C36  1  0.87595840  0.81133235  0.86781898  1  0  -0.159422  0  3.758044  0  0.063014  0  -0.180441  0  4.031792  0  0  -0.19043  0  4.053596  0  0  -0.109631  -0.174194  0  4.017204  0
C  C37  1  0.62402453  0.68868059  0.36782801  1  0  -0.159332  0  3.757704  0  0.064536  0  -0.180436  0  4.031472  0  0  -0.19044  0  4.05336  0  0  -0.109715  -0.174196  0  4.016943  0
C  C38  1  0.12405410  0.18868617  0.13217246  1  0  -0.159208  0  3.757971  0  0.063511  0  -0.180346  0  4.03185  0  0  -0.190336  0  4.05371  0  0  -0.109608  -0.174101  0  4.0173  0
C  C39  1  0.37596689  0.31131516  0.63217838  1  0  -0.15932  0  3.757925  0  0.0632  0  -0.180324  0  4.031616  0  0  -0.190321  0  4.053436  0  0  -0.109651  -0.174071  0  4.017008  0
C  C40  1  0.09942832  0.91952604  0.87367942  1  0  0.144116  0  3.663806  0  0.384938  0  0.102513  0  3.924599  0  0  0.112539  0  3.93948  0  0  0.045197  0.096035  0  3.914608  0
C  C41  1  0.40055649  0.58048210  0.37369064  1  0  0.144181  0  3.663845  0  0.382712  0  0.102716  0  3.924489  0  0  0.112734  0  3.939412  0  0  0.045304  0.096237  0  3.914534  0
C  C42  1  0.90058361  0.08048863  0.12631147  1  0  0.144005  0  3.663813  0  0.384162  0  0.102429  0  3.924512  0  0  0.112444  0  3.939453  0  0  0.045189  0.095953  0  3.914556  0
C  C43  1  0.59943259  0.41951111  0.62631742  1  0  0.144097  0  3.664055  0  0.384405  0  0.102497  0  3.924765  0  0  0.112528  0  3.939648  0  0  0.045247  0.096021  0  3.914768  0
N  N44  1  0.24662972  0.92139732  0.93628001  1  0  -0.349843  0  3.382936  0  -1.33175  0  -0.275379  0  3.603453  0  0  -0.296154  0  3.616297  0  0  -0.368585  -0.261556  0  3.594578  0
N  N45  1  0.25338732  0.57861096  0.43628919  1  0  -0.349994  0  3.383269  0  -1.331094  0  -0.275482  0  3.603725  0  0  -0.296246  0  3.616552  0  0  -0.368515  -0.261658  0  3.594863  0
N  N46  1  0.75339628  0.07861968  0.06371309  1  0  -0.349726  0  3.382986  0  -1.331127  0  -0.275087  0  3.603349  0  0  -0.295846  0  3.616167  0  0  -0.368384  -0.261263  0  3.594473  0
N  N47  1  0.74660275  0.42137582  0.56371720  1  0  -0.349787  0  3.382999  0  -1.330877  0  -0.275133  0  3.603351  0  0  -0.295885  0  3.616135  0  0  -0.368544  -0.26131  0  3.594481  0
N  N48  1  0.27814057  0.98544193  0.29221149  1  0  0.687935  0  4.137408  0  0.839486  0  0.729112  0  4.4018  0  0  0.744598  0  4.432022  0  0  0.092494  0.709213  0  4.394265  0
N  N49  1  0.22186519  0.51455121  0.79221540  1  0  0.687835  0  4.1374  0  0.842098  0  0.715433  0  4.421337  0  0  0.744663  0  4.431845  0  0  0.092637  0.709267  0  4.394122  0
N  N50  1  0.72186239  0.01455234  0.70778549  1  0  0.687818  0  4.137451  0  0.842387  0  0.715524  0  4.42127  0  0  0.744755  0  4.431777  0  0  0.092672  0.709356  0  4.394035  0
N  N51  1  0.77813620  0.48544565  0.20778601  1  0  0.688015  0  4.137395  0  0.841931  0  0.715431  0  4.421521  0  0  0.744661  0  4.432033  0  0  0.092631  0.709216  0  4.394355  0
O  O52  1  0.34263848  0.83295044  0.05303608  1  0  -0.632378  0  2.109055  0  -1.193507  0  -0.558417  0  2.368935  0  0  -0.58915  0  2.36171  0  0  -0.32798  -0.536541  0  2.372993  0
O  O53  1  0.15738289  0.66705885  0.55304007  1  0  -0.632287  0  2.109048  0  -1.193688  0  -0.558377  0  2.368923  0  0  -0.589121  0  2.361719  0  0  -0.32802  -0.536493  0  2.372976  0
O  O54  1  0.65737325  0.16706295  0.94695758  1  0  -0.632348  0  2.108944  0  -1.193206  0  -0.558478  0  2.368835  0  0  -0.589206  0  2.361592  0  0  -0.328028  -0.536597  0  2.372889  0
O  O55  1  0.84259817  0.33293322  0.44696577  1  0  -0.632164  0  2.108958  0  -1.193565  0  -0.55831  0  2.368891  0  0  -0.589064  0  2.361702  0  0  -0.32788  -0.53643  0  2.372958  0
O  O56  1  0.51300428  0.98578044  0.26841646  1  0  -0.474632  0  1.879761  0  -0.536768  0  -0.455043  0  2.137212  0  0  -0.471456  0  2.134546  0  0  -0.180965  -0.440019  0  2.142445  0
O  O57  1  0.98700218  0.51421762  0.76841984  1  0  -0.47455  0  1.879833  0  -0.536664  0  -0.450367  0  2.14278  0  0  -0.471404  0  2.134592  0  0  -0.180923  -0.439961  0  2.142478  0
O  O58  1  0.48700494  0.01421629  0.73158218  1  0  -0.474443  0  1.879728  0  -0.536669  0  -0.450401  0  2.142725  0  0  -0.471438  0  2.134536  0  0  -0.180968  -0.439997  0  2.142431  0
O  O59  1  0.01301172  0.48578417  0.23157991  1  0  -0.474638  0  1.879644  0  -0.536652  0  -0.450442  0  2.142623  0  0  -0.471478  0  2.134449  0  0  -0.181027  -0.440032  0  2.142392  0
O  O60  1  0.10369404  0.87754741  0.26716180  1  0  -0.455486  0  1.853726  0  -0.535069  0  -0.43165  0  2.092071  0  0  -0.446443  0  2.090193  0  0  -0.174467  -0.417873  0  2.097017  0
O  O61  1  0.39631514  0.62244205  0.76716417  1  0  -0.455418  0  1.853406  0  -0.537797  0  -0.427122  0  2.097468  0  0  -0.44652  0  2.089983  0  0  -0.174583  -0.417939  0  2.096798  0
O  O62  1  0.89631341  0.12245063  0.73283407  1  0  -0.455487  0  1.853445  0  -0.537871  0  -0.427186  0  2.09744  0  0  -0.446585  0  2.089954  0  0  -0.1746  -0.417999  0  2.096773  0
O  O63  1  0.60369819  0.37755589  0.23284112  1  0  -0.455605  0  1.853618  0  -0.537785  0  -0.427157  0  2.097599  0  0  -0.446555  0  2.09013  0  0  -0.174561  -0.417956  0  2.096959  0
O  O64  1  0.22020527  0.09403029  0.34106097  1  0  -0.486256  0  1.824753  0  -0.569742  0  -0.467514  0  2.073694  0  0  -0.481665  0  2.067566  0  0  -0.192507  -0.454144  0  2.081518  0
O  O65  1  0.27981251  0.40596139  0.84106591  1  0  -0.486199  0  1.824827  0  -0.569734  0  -0.462961  0  2.079331  0  0  -0.481689  0  2.067621  0  0  -0.192551  -0.454192  0  2.081634  0
O  O66  1  0.77979945  0.90596265  0.65893711  1  0  -0.486188  0  1.824918  0  -0.569948  0  -0.462964  0  2.079374  0  0  -0.481694  0  2.06767  0  0  -0.192529  -0.454197  0  2.081672  0
O  O67  1  0.72019183  0.59402900  0.15893550  1  0  -0.486186  0  1.824959  0  -0.569559  0  -0.462865  0  2.079452  0  0  -0.481614  0  2.067806  0  0  -0.19249  -0.454075  0  2.081771  0
