# generated using pymatgen
data_LaH30C24N3O13
_symmetry_space_group_name_H-M   'P 1'
_cell_length_a   9.32255994
_cell_length_b   11.83495407
_cell_length_c   15.25709520
_cell_angle_alpha   112.81658536
_cell_angle_beta   104.83112564
_cell_angle_gamma   89.99465281
_symmetry_Int_Tables_number   1
_chemical_formula_structural   LaH30C24N3O13
_chemical_formula_sum   'La2 H60 C48 N6 O26'
_cell_volume   1490.61500659
_cell_formula_units_Z   2
loop_
 _symmetry_equiv_pos_site_id
 _symmetry_equiv_pos_as_xyz
  1  'x, y, z'
loop_
 _atom_site_type_symbol
 _atom_site_label
 _atom_site_symmetry_multiplicity
 _atom_site_fract_x
 _atom_site_fract_y
 _atom_site_fract_z
 _atom_site_occupancy
 _atom_site_hle17_bader_spin_density
 _atom_site_hle17_ddec_charge
 _atom_site_hle17_ddec_spin_density
 _atom_site_hle17_ddec_sum_bond_order
 _atom_site_hle17_magmom
 _atom_site_hse06_10hf_bader_spin_density
 _atom_site_hse06_10hf_ddec_charge
 _atom_site_hse06_10hf_ddec_spin_density
 _atom_site_hse06_10hf_ddec_sum_bond_order
 _atom_site_hse06_10hf_magmom
 _atom_site_hse06_bader_spin_density
 _atom_site_hse06_ddec_charge
 _atom_site_hse06_ddec_spin_density
 _atom_site_hse06_ddec_sum_bond_order
 _atom_site_hse06_magmom
 _atom_site_pbe_bader_spin_density
 _atom_site_pbe_cm5_charge
 _atom_site_pbe_ddec_charge
 _atom_site_pbe_ddec_spin_density
 _atom_site_pbe_ddec_sum_bond_order
 _atom_site_pbe_magmom
La  La0  1  0.92129605  0.68731120  0.21363203  1  0  2.104206  0  1.822189  0  0  1.98079  0  2.36476  0  0  2.088438  0  2.255302  0  0  1.42854  1.898104  0  2.443882  0
La  La1  1  0.42097956  0.52634557  0.21372507  1  0  2.103942  0  1.821997  0  0  1.98074  0  2.364138  0  0  2.088436  0  2.25462  0  0  1.428317  1.898097  0  2.443169  0
H  H2  1  0.54722792  0.78255856  0.53221390  1  0  0.120649  0  0.970772  0  0  0.127584  0  1.039046  0  0  0.131176  0  1.037331  0  0  0.105015  0.12498  0  1.040433  0
H  H3  1  0.04726407  0.74996924  0.53201200  1  0  0.1204  0  0.970705  0  0  0.128031  0  1.038272  0  0  0.131619  0  1.036541  0  0  0.105151  0.125432  0  1.039679  0
H  H4  1  0.13142391  0.92480856  0.45700529  1  0  0.124971  0  0.988938  0  0  0.128367  0  1.063184  0  0  0.132558  0  1.06039  0  0  0.110049  0.125386  0  1.065256  0
H  H5  1  0.63176399  0.53218428  0.45681272  1  0  0.125039  0  0.989371  0  0  0.128736  0  1.063295  0  0  0.132859  0  1.060538  0  0  0.110196  0.125796  0  1.065321  0
H  H6  1  0.74903712  0.41014766  0.88262399  1  0  0.119643  0  0.977347  0  0  0.125551  0  1.047613  0  0  0.129404  0  1.045466  0  0  0.103922  0.122845  0  1.04915  0
H  H7  1  0.24941892  0.47202923  0.88219831  1  0  0.119363  0  0.977592  0  0  0.125462  0  1.047793  0  0  0.129308  0  1.045634  0  0  0.103695  0.122759  0  1.049335  0
H  H8  1  0.41313279  0.30166215  0.98947657  1  0  0.117012  0  0.977518  0  0  0.123489  0  1.047918  0  0  0.126837  0  1.046232  0  0  0.112788  0.121033  0  1.049505  0
H  H9  1  0.91339615  0.68712940  0.98916542  1  0  0.116408  0  0.977545  0  0  0.122608  0  1.04832  0  0  0.125936  0  1.046633  0  0  0.112248  0.120166  0  1.049898  0
H  H10  1  0.49281847  0.67913204  0.05744754  1  0  0.053448  0  0.932475  0  0  0.060458  0  1.004324  0  0  0.062234  0  0.999227  0  0  0.133577  0.059095  0  1.007917  0
H  H11  1  0.99278414  0.37841582  0.05761985  1  0  0.053685  0  0.932149  0  0  0.060404  0  1.004346  0  0  0.062188  0  0.999243  0  0  0.133647  0.059062  0  1.007882  0
H  H12  1  0.82346841  0.25301077  0.64620997  1  0  0.089934  0  0.938866  0  0  0.110381  0  0.997185  0  0  0.11086  0  0.997033  0  0  0.105347  0.109932  0  0.997325  0
H  H13  1  0.32366051  0.39271051  0.64591735  1  0  0.089627  0  0.939355  0  0  0.110118  0  0.997538  0  0  0.110629  0  0.997344  0  0  0.104891  0.109642  0  0.997712  0
H  H14  1  0.88258199  0.26539237  0.77159937  1  0  0.080028  0  0.923044  0  0  0.098477  0  0.984636  0  0  0.098826  0  0.984463  0  0  0.096428  0.098296  0  0.984468  0
H  H15  1  0.38307447  0.50550901  0.77136421  1  0  0.079947  0  0.922514  0  0  0.098373  0  0.984095  0  0  0.098644  0  0.984016  0  0  0.09608  0.098203  0  0.983915  0
H  H16  1  0.79471133  0.38735825  0.74321538  1  0  0.08656  0  0.97175  0  0  0.096866  0  1.046356  0  0  0.097258  0  1.047216  0  0  0.096463  0.096468  0  1.045935  0
H  H17  1  0.29426514  0.35546059  0.74282515  1  0  0.08563  0  0.972781  0  0  0.096356  0  1.047012  0  0  0.096731  0  1.047883  0  0  0.09615  0.095972  0  1.046576  0
H  H18  1  0.86464278  0.93592840  0.74816231  1  0  0.087814  0  0.927839  0  0  0.105173  0  0.990912  0  0  0.106277  0  0.989573  0  0  0.100824  0.104292  0  0.991899  0
H  H19  1  0.36470067  0.81270255  0.74798762  1  0  0.087835  0  0.928139  0  0  0.10576  0  0.99058  0  0  0.106847  0  0.989273  0  0  0.10065  0.104858  0  0.991574  0
H  H20  1  0.79242590  0.90971078  0.62009306  1  0  0.079925  0  0.93184  0  0  0.097651  0  0.995372  0  0  0.097672  0  0.995703  0  0  0.095615  0.097759  0  0.994779  0
H  H21  1  0.29242660  0.71073032  0.61993789  1  0  0.081217  0  0.93198  0  0  0.098999  0  0.995333  0  0  0.099035  0  0.99566  0  0  0.096114  0.099092  0  0.994751  0
H  H22  1  0.73411292  0.80438737  0.66642762  1  0  0.082032  0  0.971701  0  0  0.094591  0  1.044037  0  0  0.094534  0  1.045475  0  0  0.094141  0.094495  0  1.043178  0
H  H23  1  0.23401475  0.86237468  0.66618624  1  0  0.083152  0  0.971786  0  0  0.095198  0  1.044452  0  0  0.095164  0  1.045881  0  0  0.094464  0.095084  0  1.0436  0
H  H24  1  0.02144528  0.22014572  0.58796251  1  0  0.09356  0  0.940121  0  0  0.111392  0  1.000123  0  0  0.112439  0  0.999554  0  0  0.105216  0.110602  0  1.000485  0
H  H25  1  0.52199893  0.36804494  0.58812099  1  0  0.093345  0  0.940744  0  0  0.11097  0  1.001145  0  0  0.112039  0  1.000533  0  0  0.104606  0.11017  0  1.001516  0
H  H26  1  0.98409808  0.05479380  0.54099626  1  0  0.082488  0  0.93292  0  0  0.101407  0  0.994355  0  0  0.102192  0  0.993346  0  0  0.098822  0.100832  0  0.995013  0
H  H27  1  0.48461877  0.48642186  0.54115826  1  0  0.083063  0  0.933663  0  0  0.101909  0  0.994982  0  0  0.102629  0  0.994048  0  0  0.099191  0.101364  0  0.995604  0
H  H28  1  0.08274485  0.12246838  0.48409239  1  0  0.084689  0  0.956121  0  0  0.097274  0  1.028258  0  0  0.098587  0  1.026796  0  0  0.096029  0.096296  0  1.029375  0
H  H29  1  0.58274191  0.36157957  0.48399980  1  0  0.08521  0  0.956339  0  0  0.09757  0  1.028532  0  0  0.098916  0  1.027046  0  0  0.096138  0.096582  0  1.029655  0
H  H30  1  0.13278957  0.04043416  0.86279579  1  0  0.090773  0  0.928599  0  0  0.109571  0  0.989502  0  0  0.110675  0  0.988482  0  0  0.104796  0.108631  0  0.99035  0
H  H31  1  0.63274746  0.82165396  0.86264384  1  0  0.091236  0  0.929249  0  0  0.109847  0  0.990166  0  0  0.11097  0  0.989128  0  0  0.104908  0.108912  0  0.991003  0
H  H32  1  0.16338100  0.20529540  0.90466717  1  0  0.081491  0  0.933791  0  0  0.099374  0  0.998203  0  0  0.099784  0  0.997765  0  0  0.099668  0.099198  0  0.998195  0
H  H33  1  0.66372709  0.69845489  0.90425509  1  0  0.081722  0  0.933055  0  0  0.099419  0  0.997709  0  0  0.099832  0  0.997278  0  0  0.099915  0.099244  0  0.997696  0
H  H34  1  0.29249031  0.12660951  0.96328668  1  0  0.081545  0  0.938316  0  0  0.09893  0  1.004309  0  0  0.099647  0  1.003849  0  0  0.10011  0.098345  0  1.00476  0
H  H35  1  0.79231146  0.83605817  0.96322578  1  0  0.081801  0  0.937974  0  0  0.09927  0  1.003745  0  0  0.100031  0  1.003226  0  0  0.100097  0.098647  0  1.004248  0
H  H36  1  0.70556323  0.97235304  0.13277171  1  0  0.116316  0  0.945779  0  0  0.133602  0  1.008578  0  0  0.135481  0  1.007335  0  0  0.112553  0.1321  0  1.009648  0
H  H37  1  0.20517582  0.16042873  0.13298811  1  0  0.116224  0  0.944617  0  0  0.133649  0  1.007187  0  0  0.135523  0  1.005956  0  0  0.112126  0.132128  0  1.008294  0
H  H38  1  0.54247769  0.04739712  0.15037903  1  0  0.112003  0  0.960569  0  0  0.126694  0  1.03041  0  0  0.128715  0  1.028367  0  0  0.103092  0.125107  0  1.032023  0
H  H39  1  0.04202155  0.10309889  0.15055462  1  0  0.113372  0  0.960507  0  0  0.127561  0  1.030691  0  0  0.129605  0  1.028624  0  0  0.103028  0.12598  0  1.032287  0
H  H40  1  0.58193155  0.00039490  0.03356980  1  0  0.086296  0  0.93758  0  0  0.106668  0  1.001736  0  0  0.107034  0  1.00189  0  0  0.101204  0.10631  0  1.001751  0
H  H41  1  0.08157127  0.03319658  0.03378707  1  0  0.08598  0  0.938062  0  0  0.106477  0  1.002095  0  0  0.106818  0  1.002281  0  0  0.10111  0.106136  0  1.002087  0
H  H42  1  0.30276449  0.74369775  0.98309597  1  0  0.107215  0  0.971048  0  0  0.124702  0  1.039478  0  0  0.124756  0  1.040989  0  0  0.107816  0.124639  0  1.038278  0
H  H43  1  0.80260737  0.23949100  0.98306123  1  0  0.107495  0  0.97157  0  0  0.125168  0  1.039627  0  0  0.125193  0  1.041174  0  0  0.10799  0.125121  0  1.038411  0
H  H44  1  0.33828718  0.86097615  0.94284059  1  0  0.097974  0  0.925796  0  0  0.117762  0  0.987663  0  0  0.118929  0  0.987097  0  0  0.104421  0.116828  0  0.988128  0
H  H45  1  0.83810574  0.08194742  0.94288803  1  0  0.098288  0  0.926149  0  0  0.118187  0  0.987812  0  0  0.119435  0  0.987144  0  0  0.104557  0.117233  0  0.988319  0
H  H46  1  0.28615582  0.90059157  0.05532919  1  0  0.101259  0  0.926116  0  0  0.125109  0  0.981988  0  0  0.12557  0  0.982386  0  0  0.10744  0.12461  0  0.981941  0
H  H47  1  0.78578780  0.15487744  0.05529697  1  0  0.10136  0  0.92629  0  0  0.125231  0  0.982179  0  0  0.125629  0  0.982647  0  0  0.107404  0.124762  0  0.982103  0
H  H48  1  0.15657325  0.51549826  0.34512163  1  0  0.044319  0  0.964055  0  0  0.051261  0  1.038168  0  0  0.05284  0  1.033888  0  0  0.131622  0.050076  0  1.041127  0
H  H49  1  0.65594824  0.82947326  0.34477928  1  0  0.044424  0  0.964486  0  0  0.051463  0  1.038387  0  0  0.053072  0  1.034079  0  0  0.131605  0.050261  0  1.04135  0
H  H50  1  0.78833438  0.35007391  0.25409432  1  0  0.123309  0  0.950614  0  0  0.139091  0  1.015716  0  0  0.141381  0  1.013992  0  0  0.114491  0.137249  0  1.017217  0
H  H51  1  0.28776846  0.90416492  0.25394130  1  0  0.123357  0  0.950979  0  0  0.138868  0  1.016463  0  0  0.141177  0  1.014729  0  0  0.114617  0.136988  0  1.018001  0
H  H52  1  0.80357878  0.35823332  0.37558772  1  0  0.095328  0  0.944215  0  0  0.115044  0  1.010413  0  0  0.114667  0  1.011954  0  0  0.100745  0.115097  0  1.009587  0
H  H53  1  0.30315311  0.01743238  0.37547693  1  0  0.094518  0  0.944183  0  0  0.114556  0  1.010104  0  0  0.114198  0  1.011633  0  0  0.10056  0.114606  0  1.009263  0
H  H54  1  0.86243826  0.22846804  0.28952860  1  0  0.106861  0  0.957752  0  0  0.125488  0  1.023119  0  0  0.126634  0  1.02206  0  0  0.102684  0.124494  0  1.023995  0
H  H55  1  0.36194184  0.06114916  0.28940334  1  0  0.106236  0  0.955798  0  0  0.124811  0  1.02165  0  0  0.125965  0  1.020581  0  0  0.102515  0.123802  0  1.022532  0
H  H56  1  0.21992302  0.42760933  0.44473969  1  0  0.104082  0  0.945175  0  0  0.123928  0  1.009922  0  0  0.125024  0  1.008959  0  0  0.109982  0.122877  0  1.010847  0
H  H57  1  0.71951765  0.01699416  0.44439635  1  0  0.103982  0  0.944795  0  0  0.123957  0  1.009429  0  0  0.125074  0  1.008425  0  0  0.110248  0.122883  0  1.01038  0
H  H58  1  0.12549173  0.27848613  0.40914500  1  0  0.111619  0  0.941726  0  0  0.131325  0  1.002828  0  0  0.132622  0  1.002005  0  0  0.1062  0.13025  0  1.003541  0
H  H59  1  0.62507331  0.13055346  0.40879677  1  0  0.111874  0  0.941586  0  0  0.13162  0  1.002487  0  0  0.132896  0  1.001674  0  0  0.106372  0.130544  0  1.003204  0
H  H60  1  0.07280467  0.41188211  0.49676641  1  0  0.107498  0  0.939049  0  0  0.122481  0  1.008287  0  0  0.123431  0  1.008792  0  0  0.103858  0.121634  0  1.008086  0
H  H61  1  0.57250066  0.08486746  0.49651920  1  0  0.107635  0  0.93859  0  0  0.122265  0  1.008301  0  0  0.123164  0  1.008855  0  0  0.103733  0.121447  0  1.00808  0
C  C62  1  0.47652740  0.85614934  0.55239719  1  0  -0.233364  0  3.742862  0  0  -0.263852  0  3.997844  0  0  -0.268886  0  4.016805  0  0  -0.115337  -0.260852  0  3.985626  0
C  C63  1  0.97665681  0.69650680  0.55221016  1  0  -0.232231  0  3.745263  0  0  -0.263942  0  3.999809  0  0  -0.268949  0  4.018859  0  0  -0.114958  -0.260993  0  3.987573  0
C  C64  1  0.42583102  0.05362917  0.66658134  1  0  -0.106279  0  3.74569  0  0  -0.113785  0  4.007419  0  0  -0.116454  0  4.024889  0  0  -0.023416  -0.111828  0  3.995588  0
C  C65  1  0.92621320  0.61308766  0.66638771  1  0  -0.106457  0  3.744649  0  0  -0.113472  0  4.005062  0  0  -0.116182  0  4.022619  0  0  -0.023631  -0.111548  0  3.99325  0
C  C66  1  0.28564093  0.04102621  0.59907560  1  0  0.244809  0  3.805345  0  0  0.227657  0  4.075339  0  0  0.239953  0  4.088449  0  0  0.083137  0.219271  0  4.066427  0
C  C67  1  0.78610256  0.55803793  0.59883935  1  0  0.245604  0  3.805721  0  0  0.228487  0  4.075517  0  0  0.24076  0  4.088684  0  0  0.083222  0.220147  0  4.066567  0
C  C68  1  0.28467824  0.73562240  0.39111407  1  0  0.685749  0  3.882762  0  0  0.642507  0  4.171871  0  0  0.679128  0  4.162465  0  0  0.227552  0.617138  0  4.177154  0
C  C69  1  0.78465609  0.65582791  0.39098140  1  0  0.686369  0  3.883017  0  0  0.643203  0  4.171316  0  0  0.679805  0  4.16204  0  0  0.228321  0.617846  0  4.176513  0
C  C70  1  0.33586106  0.84581936  0.48727729  1  0  -0.024265  0  3.805446  0  0  -0.004108  0  4.041085  0  0  -0.007566  0  4.061488  0  0  -0.019702  -0.001881  0  4.027942  0
C  C71  1  0.83604054  0.64167437  0.48710354  1  0  -0.025721  0  3.810103  0  0  -0.004092  0  4.043667  0  0  -0.007645  0  4.064203  0  0  -0.020209  -0.001791  0  4.030406  0
C  C72  1  0.52029241  0.95993532  0.64213238  1  0  0.248366  0  3.794599  0  0  0.233107  0  4.061276  0  0  0.245166  0  4.075384  0  0  0.084781  0.224962  0  4.051687  0
C  C73  1  0.02049455  0.68250926  0.64197955  1  0  0.247613  0  3.793735  0  0  0.232311  0  4.060583  0  0  0.244302  0  4.074724  0  0  0.08453  0.224209  0  4.050979  0
C  C74  1  0.23979644  0.93716929  0.50979367  1  0  -0.240242  0  3.762131  0  0  -0.272368  0  4.022157  0  0  -0.277126  0  4.039905  0  0  -0.11645  -0.269624  0  4.010785  0
C  C75  1  0.74011657  0.57269182  0.50958822  1  0  -0.24061  0  3.763944  0  0  -0.273725  0  4.023803  0  0  -0.278353  0  4.041592  0  0  -0.116627  -0.271049  0  4.012364  0
C  C76  1  0.40929508  0.18428904  0.83798342  1  0  0.242773  0  3.791795  0  0  0.226609  0  4.060407  0  0  0.238626  0  4.074214  0  0  0.082846  0.218449  0  4.051311  0
C  C77  1  0.90971540  0.65351092  0.83778704  1  0  0.240672  0  3.792777  0  0  0.225654  0  4.060009  0  0  0.237576  0  4.073882  0  0  0.082095  0.217527  0  4.050882  0
C  C78  1  0.47628548  0.16329234  0.76083165  1  0  -0.097769  0  3.739067  0  0  -0.105243  0  3.998981  0  0  -0.10766  0  4.016467  0  0  -0.019521  -0.103534  0  3.987205  0
C  C79  1  0.97673718  0.59758030  0.76063637  1  0  -0.09831  0  3.741005  0  0  -0.106259  0  3.999805  0  0  -0.108509  0  4.016977  0  0  -0.019676  -0.104594  0  3.988156  0
C  C80  1  0.59745389  0.24679907  0.77660387  1  0  0.246606  0  3.80197  0  0  0.231375  0  4.068191  0  0  0.243436  0  4.082189  0  0  0.082909  0.223215  0  4.058697  0
C  C81  1  0.09791640  0.52980030  0.77635676  1  0  0.247226  0  3.804715  0  0  0.233815  0  4.068644  0  0  0.245854  0  4.082646  0  0  0.084022  0.225641  0  4.059162  0
C  C82  1  0.65334491  0.34624361  0.86772384  1  0  -0.241752  0  3.775379  0  0  -0.273786  0  4.030778  0  0  -0.27845  0  4.048704  0  0  -0.119392  -0.271001  0  4.018987  0
C  C83  1  0.15372445  0.52107681  0.86735389  1  0  -0.243229  0  3.776069  0  0  -0.275662  0  4.031157  0  0  -0.280365  0  4.04906  0  0  -0.120781  -0.272858  0  4.019397  0
C  C84  1  0.58562710  0.36395535  0.94336120  1  0  -0.032707  0  3.825431  0  0  -0.009702  0  4.05701  0  0  -0.013331  0  4.077237  0  0  -0.023316  -0.007316  0  4.043965  0
C  C85  1  0.08583640  0.57868233  0.94297046  1  0  -0.029022  0  3.821269  0  0  -0.006408  0  4.053614  0  0  -0.009884  0  4.073683  0  0  -0.021421  -0.004123  0  4.040684  0
C  C86  1  0.46218059  0.28516890  0.92883508  1  0  -0.22435  0  3.756479  0  0  -0.257986  0  4.013155  0  0  -0.262676  0  4.032149  0  0  -0.110822  -0.25559  0  4.00144  0
C  C87  1  0.96244864  0.64311915  0.92852413  1  0  -0.223847  0  3.755998  0  0  -0.257355  0  4.012248  0  0  -0.262043  0  4.031213  0  0  -0.109984  -0.25495  0  4.000539  0
C  C88  1  0.65431359  0.46519508  0.04277572  1  0  0.688831  0  3.875001  0  0  0.646979  0  4.160438  0  0  0.683798  0  4.150688  0  0  0.227646  0.621375  0  4.166201  0
C  C89  1  0.15437620  0.57669953  0.04238172  1  0  0.686845  0  3.879134  0  0  0.644218  0  4.166254  0  0  0.680982  0  4.156589  0  0  0.226308  0.618649  0  4.17197  0
C  C90  1  0.56839014  0.76499947  0.08609993  1  0  0.418196  0  3.80272  0  0  0.34422  0  4.093911  0  0  0.374658  0  4.093319  0  0  0.189219  0.323627  0  4.093447  0
C  C91  1  0.06818976  0.32114739  0.08631859  1  0  0.417616  0  3.803442  0  0  0.344727  0  4.094404  0  0  0.375218  0  4.093847  0  0  0.18911  0.324099  0  4.093931  0
C  C92  1  0.79719138  0.28713643  0.71734469  1  0  -0.071001  0  3.637369  0  0  -0.166331  0  3.902954  0  0  -0.159719  0  3.9072  0  0  -0.142659  -0.17046  0  3.899743  0
C  C93  1  0.29733674  0.42983091  0.71703847  1  0  -0.070249  0  3.637961  0  0  -0.165291  0  3.903298  0  0  -0.158668  0  3.907646  0  0  -0.141528  -0.169408  0  3.900038  0
C  C94  1  0.76614902  0.90158756  0.68387058  1  0  -0.067331  0  3.649236  0  0  -0.163178  0  3.91743  0  0  -0.156318  0  3.921671  0  0  -0.141939  -0.167483  0  3.9143  0
C  C95  1  0.26619204  0.78268332  0.68369890  1  0  -0.070289  0  3.649678  0  0  -0.166312  0  3.918283  0  0  -0.15951  0  3.922486  0  0  -0.142673  -0.170562  0  3.915177  0
C  C96  1  0.06467919  0.13205699  0.55499833  1  0  -0.07162  0  3.636472  0  0  -0.164356  0  3.895018  0  0  -0.157908  0  3.898607  0  0  -0.137786  -0.168395  0  3.892221  0
C  C97  1  0.56511855  0.42302220  0.55500226  1  0  -0.073446  0  3.639975  0  0  -0.165963  0  3.898742  0  0  -0.159499  0  3.902327  0  0  -0.13823  -0.169995  0  3.895955  0
C  C98  1  0.21755705  0.11989835  0.89228481  1  0  -0.070414  0  3.659194  0  0  -0.167689  0  3.924754  0  0  -0.160892  0  3.92881  0  0  -0.137208  -0.171886  0  3.921806  0
C  C99  1  0.71769588  0.77176175  0.89210645  1  0  -0.072375  0  3.660122  0  0  -0.169195  0  3.925591  0  0  -0.162455  0  3.929602  0  0  -0.137681  -0.173377  0  3.922661  0
C  C100  1  0.58883829  0.97601291  0.09706804  1  0  -0.175966  0  3.649989  0  0  -0.27377  0  3.893531  0  0  -0.270362  0  3.902053  0  0  -0.135658  -0.275819  0  3.888009  0
C  C101  1  0.08845188  0.12109706  0.09724574  1  0  -0.17723  0  3.648751  0  0  -0.27437  0  3.893204  0  0  -0.270866  0  3.901663  0  0  -0.135136  -0.276482  0  3.887723  0
C  C102  1  0.34978717  0.83934637  0.00808500  1  0  -0.168759  0  3.656647  0  0  -0.269185  0  3.902246  0  0  -0.266157  0  3.91388  0  0  -0.126434  -0.27084  0  3.894151  0
C  C103  1  0.84953106  0.16883533  0.00809745  1  0  -0.170944  0  3.658256  0  0  -0.27084  0  3.904296  0  0  -0.267737  0  3.915994  0  0  -0.127185  -0.272565  0  3.896173  0
C  C104  1  0.04064476  0.47100707  0.31172190  1  0  0.40219  0  3.794393  0  0  0.327319  0  4.08368  0  0  0.356141  0  4.086054  0  0  0.185935  0.307779  0  4.081464  0
C  C105  1  0.54002001  0.84063547  0.31144131  1  0  0.401606  0  3.794779  0  0  0.326768  0  4.084093  0  0  0.355562  0  4.086459  0  0  0.185891  0.307257  0  4.08188  0
C  C106  1  0.85552573  0.32806122  0.31430567  1  0  -0.179194  0  3.63235  0  0  -0.280716  0  3.877631  0  0  -0.277313  0  3.887066  0  0  -0.140607  -0.28269  0  3.871449  0
C  C107  1  0.35501316  0.98631670  0.31416097  1  0  -0.177961  0  3.629095  0  0  -0.279541  0  3.874449  0  0  -0.276145  0  3.883796  0  0  -0.140556  -0.281469  0  3.868314  0
C  C108  1  0.11200971  0.37682074  0.42978776  1  0  -0.183778  0  3.65137  0  0  -0.283984  0  3.895583  0  0  -0.281187  0  3.906345  0  0  -0.132714  -0.285416  0  3.888392  0
C  C109  1  0.61161242  0.05290528  0.42949874  1  0  -0.183544  0  3.647973  0  0  -0.283452  0  3.892316  0  0  -0.280623  0  3.903024  0  0  -0.132403  -0.284924  0  3.885206  0
N  N110  1  0.50616996  0.85534200  0.06284687  1  0  -0.090708  0  3.492401  0  0  0.015554  0  3.722363  0  0  -0.004837  0  3.747184  0  0  -0.279711  0.029234  0  3.705148  0
N  N111  1  0.00588455  0.20755951  0.06295635  1  0  -0.088833  0  3.493714  0  0  0.015261  0  3.725639  0  0  -0.0053  0  3.750653  0  0  -0.280073  0.029049  0  3.708309  0
N  N112  1  0.98450388  0.96335880  0.26433927  1  0  0.717076  0  4.129984  0  0  0.734364  0  4.446461  0  0  0.764239  0  4.452415  0  0  0.083487  0.714118  0  4.441727  0
N  N113  1  0.48459729  0.30099908  0.26439397  1  0  0.716702  0  4.132275  0  0  0.734211  0  4.448246  0  0  0.764071  0  4.454181  0  0  0.083717  0.713961  0  4.443544  0
N  N114  1  0.00482555  0.39315990  0.34863628  1  0  -0.067326  0  3.486799  0  0  0.039825  0  3.715347  0  0  0.019684  0  3.741007  0  0  -0.271158  0.053139  0  3.69781  0
N  N115  1  0.50430534  0.95543010  0.34839530  1  0  -0.067221  0  3.483815  0  0  0.039792  0  3.712885  0  0  0.019665  0  3.738511  0  0  -0.271623  0.053092  0  3.695361  0
O  O116  1  0.16314119  0.73712281  0.33049748  1  0  -0.713076  0  2.083177  0  0  -0.669296  0  2.358648  0  0  -0.704533  0  2.34926  0  0  -0.400573  -0.643131  0  2.363876  0
O  O117  1  0.66295748  0.59391498  0.33049047  1  0  -0.712947  0  2.082889  0  0  -0.66968  0  2.358716  0  0  -0.704882  0  2.349354  0  0  -0.400603  -0.643539  0  2.363915  0
O  O118  1  0.70081577  0.77569772  0.13639822  1  0  -0.621011  0  2.12466  0  0  -0.574443  0  2.398441  0  0  -0.607443  0  2.393399  0  0  -0.361698  -0.5504  0  2.40093  0
O  O119  1  0.20053213  0.36068349  0.13681917  1  0  -0.620921  0  2.125815  0  0  -0.574571  0  2.399481  0  0  -0.607553  0  2.39441  0  0  -0.36119  -0.550547  0  2.401998  0
O  O120  1  0.65294344  0.97792802  0.71248302  1  0  -0.260999  0  2.354948  0  0  -0.187107  0  2.592475  0  0  -0.204174  0  2.59461  0  0  -0.194757  -0.175382  0  2.590689  0
O  O121  1  0.15304750  0.73500179  0.71237289  1  0  -0.26017  0  2.353232  0  0  -0.186423  0  2.590946  0  0  -0.203369  0  2.592988  0  0  -0.194808  -0.174712  0  2.589138  0
O  O122  1  0.36365193  0.64564658  0.37398757  1  0  -0.691138  0  1.993606  0  0  -0.64473  0  2.246015  0  0  -0.676738  0  2.235428  0  0  -0.383045  -0.621193  0  2.252374  0
O  O123  1  0.86356941  0.72864849  0.37379101  1  0  -0.691222  0  1.993775  0  0  -0.644957  0  2.246383  0  0  -0.67691  0  2.235692  0  0  -0.383476  -0.621415  0  2.252725  0
O  O124  1  0.20146377  0.13650285  0.62593290  1  0  -0.250684  0  2.36423  0  0  -0.175218  0  2.602731  0  0  -0.192677  0  2.605644  0  0  -0.186996  -0.162873  0  2.599951  0
O  O125  1  0.70217173  0.48926287  0.62571264  1  0  -0.250058  0  2.366306  0  0  -0.174354  0  2.604479  0  0  -0.191822  0  2.607426  0  0  -0.186832  -0.162061  0  2.601719  0
O  O126  1  0.29522455  0.09769869  0.81876252  1  0  -0.248132  0  2.359692  0  0  -0.171926  0  2.597519  0  0  -0.189029  0  2.599904  0  0  -0.186213  -0.160295  0  2.595519  0
O  O127  1  0.79571745  0.72103146  0.81871014  1  0  -0.246016  0  2.358996  0  0  -0.170615  0  2.596705  0  0  -0.187702  0  2.599159  0  0  -0.185798  -0.15897  0  2.594656  0
O  O128  1  0.58740861  0.49103871  0.10997792  1  0  -0.710263  0  2.045362  0  0  -0.663995  0  2.313773  0  0  -0.698999  0  2.302587  0  0  -0.392964  -0.637886  0  2.320591  0
O  O129  1  0.08760582  0.61828348  0.10964907  1  0  -0.710422  0  2.047397  0  0  -0.663723  0  2.315902  0  0  -0.69879  0  2.304858  0  0  -0.391979  -0.63757  0  2.322634  0
O  O130  1  0.78019760  0.51995145  0.05547105  1  0  -0.685715  0  2.014938  0  0  -0.642635  0  2.2721  0  0  -0.674977  0  2.262531  0  0  -0.383886  -0.619055  0  2.278251  0
O  O131  1  0.28013956  0.53442044  0.05502029  1  0  -0.68582  0  2.016065  0  0  -0.641947  0  2.272773  0  0  -0.674266  0  2.263272  0  0  -0.383813  -0.618383  0  2.278882  0
O  O132  1  0.65423251  0.22355633  0.69782968  1  0  -0.256198  0  2.356818  0  0  -0.181674  0  2.595613  0  0  -0.199178  0  2.598577  0  0  -0.187689  -0.169528  0  2.593237  0
O  O133  1  0.15477689  0.47450280  0.69759245  1  0  -0.255581  0  2.358534  0  0  -0.183024  0  2.598155  0  0  -0.200511  0  2.601095  0  0  -0.188495  -0.170868  0  2.595781  0
O  O134  1  0.01047378  0.88060647  0.18756824  1  0  -0.524485  0  1.751627  0  0  -0.51258  0  1.984224  0  0  -0.534303  0  1.977316  0  0  -0.227149  -0.496768  0  1.988753  0
O  O135  1  0.51025907  0.30689862  0.18751478  1  0  -0.524337  0  1.75291  0  0  -0.512876  0  1.985793  0  0  -0.53458  0  1.978894  0  0  -0.227252  -0.497082  0  1.990319  0
O  O136  1  0.95259033  0.49290037  0.24382198  1  0  -0.604234  0  2.088473  0  0  -0.556271  0  2.35776  0  0  -0.588221  0  2.352655  0  0  -0.360114  -0.53333  0  2.360496  0
O  O137  1  0.45191254  0.75090283  0.24353905  1  0  -0.604417  0  2.087924  0  0  -0.556461  0  2.356813  0  0  -0.588462  0  2.351843  0  0  -0.360102  -0.533495  0  2.359457  0
O  O138  1  0.92994774  0.92713618  0.31898814  1  0  -0.514672  0  1.782617  0  0  -0.501364  0  2.021964  0  0  -0.523141  0  2.015094  0  0  -0.216791  -0.48563  0  2.026292  0
O  O139  1  0.43020044  0.39193930  0.31912939  1  0  -0.514432  0  1.782983  0  0  -0.500687  0  2.021637  0  0  -0.5225  0  2.014841  0  0  -0.216487  -0.484939  0  2.025933  0
O  O140  1  0.01276776  0.07531368  0.28526548  1  0  -0.440934  0  1.773383  0  0  -0.427585  0  1.985079  0  0  -0.439955  0  1.977507  0  0  -0.164509  -0.418984  0  1.990322  0
O  O141  1  0.51297782  0.20999925  0.28534662  1  0  -0.440837  0  1.773885  0  0  -0.427965  0  1.985724  0  0  -0.44038  0  1.97827  0  0  -0.165077  -0.419279  0  1.990833  0
