# generated using pymatgen
data_ZnH5C14NO4
_symmetry_space_group_name_H-M   'P 1'
_cell_length_a   13.21351327
_cell_length_b   14.48853315
_cell_length_c   16.08293377
_cell_angle_alpha   90.03559718
_cell_angle_beta   89.83821142
_cell_angle_gamma   90.00609803
_symmetry_Int_Tables_number   1
_chemical_formula_structural   ZnH5C14NO4
_chemical_formula_sum   'Zn2 H10 C28 N2 O8'
_cell_volume   3078.97512088
_cell_formula_units_Z   2
loop_
 _symmetry_equiv_pos_site_id
 _symmetry_equiv_pos_as_xyz
  1  'x, y, z'
loop_
 _atom_site_type_symbol
 _atom_site_label
 _atom_site_symmetry_multiplicity
 _atom_site_fract_x
 _atom_site_fract_y
 _atom_site_fract_z
 _atom_site_occupancy
 _atom_site_pbe_bader_charge
 _atom_site_pbe_bader_spin_density
 _atom_site_pbe_cm5_charge
 _atom_site_pbe_ddec_charge
 _atom_site_pbe_ddec_spin_density
 _atom_site_pbe_ddec_sum_bond_order
 _atom_site_pbe_magmom
Zn  Zn0  1  0.39480976  0.49999258  0.50025088  1  1.328989  0  0.683557  0.879527  0  2.421898  0
Zn  Zn1  1  0.60518880  0.50000387  0.49974947  1  1.309205  0  0.683518  0.879477  0  2.421927  0
H  H2  1  0.58471294  0.63957875  0.94898165  1  0.081129  0  0.102519  0.095847  0  0.985261  0
H  H3  1  0.41528865  0.36042391  0.05101871  1  0.0812  0  0.102529  0.09586  0  0.985279  0
H  H4  1  0.40905137  0.63628390  0.05122500  1  0.09768  0  0.102294  0.095482  0  0.98702  0
H  H5  1  0.59094946  0.36371945  0.94877598  1  0.097722  0  0.102297  0.095466  0  0.987049  0
H  H6  1  0.75865517  0.50484418  0.00973642  1  0.018604  0  0.092025  0.125756  0  0.996776  0
H  H7  1  0.71543897  0.56540438  0.09963716  1  0.053644  0  0.094008  0.13024  0  0.994235  0
H  H8  1  0.71816735  0.44281446  0.09962566  1  0.036939  0  0.09411  0.130297  0  0.993053  0
H  H9  1  0.24134566  0.49515710  0.99026456  1  0.018541  0  0.092015  0.125753  0  0.996782  0
H  H10  1  0.28183348  0.55718683  0.90037470  1  0.03693  0  0.094092  0.130275  0  0.993082  0
H  H11  1  0.28456338  0.43459691  0.90036381  1  0.051097  0  0.094007  0.130228  0  0.994222  0
C  C12  1  0.50001504  0.78010837  0.49998910  1  0.219424  0  -0.00965  -0.126706  0  3.836669  0
C  C13  1  0.49998579  0.21988739  0.50000877  1  0.219513  0  -0.009655  -0.126742  0  3.83674  0
C  C14  1  0.50000652  0.68046475  0.50000234  1  1.629133  0  0.223379  0.658753  0  4.253933  0
C  C15  1  0.49999431  0.31953033  0.49999802  1  1.629524  0  0.223443  0.658933  0  4.253845  0
C  C16  1  0.49993748  0.50005159  0.66132277  1  1.584463  0  0.218115  0.67478  0  4.230904  0
C  C17  1  0.50006033  0.49994625  0.33867758  1  1.584424  0  0.2181  0.674839  0  4.230725  0
C  C18  1  0.50000757  0.86483814  0.49999533  1  -0.234713  0  -0.020609  0.010767  0  4.277073  0
C  C19  1  0.49999478  0.13515624  0.50000253  1  -0.234748  0  -0.020612  0.010674  0  4.277058  0
C  C20  1  0.85133940  0.49999861  0.49999742  1  0.861379  0  0.271075  0.343767  0  4.01574  0
C  C21  1  0.14865614  0.50000199  0.50000356  1  0.861312  0  0.270939  0.343588  0  4.015916  0
C  C22  1  0.50000355  0.95738996  0.50000064  1  0.051829  0  -0.00873  -0.010526  0  4.211899  0
C  C23  1  0.49999805  0.04260511  0.49999412  1  -0.181014  0  -0.008581  -0.010004  0  4.211728  0
C  C24  1  0.44964084  0.57582588  0.02765456  1  -0.078548  0  -0.070275  -0.113696  0  3.629361  0
C  C25  1  0.55035999  0.42417747  0.97234580  1  -0.078669  0  -0.070281  -0.113583  0  3.629327  0
C  C26  1  0.54688525  0.57764838  0.97250455  1  -0.058364  0  -0.070047  -0.112884  0  3.627599  0
C  C27  1  0.45311634  0.42235497  0.02749581  1  -0.058501  0  -0.070003  -0.112913  0  3.627518  0
C  C28  1  0.95375346  0.49999903  0.50003152  1  0.287596  0  0.075553  0.011405  0  4.015713  0
C  C29  1  0.04624358  0.50000157  0.49997008  1  0.051495  0  0.075804  0.011885  0  4.015688  0
C  C30  1  0.50013495  0.50007013  0.75086241  1  0.120284  0  -0.059213  -0.208574  0  3.999936  0
C  C31  1  0.49986512  0.49993184  0.24913919  1  0.12025  0  -0.059201  -0.208611  0  3.999955  0
C  C32  1  0.40245490  0.49818210  0.97196565  1  0.0482  0  0.004901  0.146749  0  3.65895  0
C  C33  1  0.59754594  0.50181988  0.02803471  1  0.04825  0  0.004887  0.146631  0  3.658932  0
C  C34  1  0.50075157  0.50002530  0.91455248  1  0.200833  0  0.004165  0.087075  0  3.802314  0
C  C35  1  0.49925078  0.49997944  0.08544849  1  0.200954  0  0.00421  0.087276  0  3.802045  0
C  C36  1  0.50135099  0.50008261  0.82669663  1  -0.447806  0  -0.031592  -0.038658  0  4.100633  0
C  C37  1  0.49864984  0.49992006  0.17330435  1  -0.447739  0  -0.031565  -0.038647  0  4.100539  0
C  C38  1  0.70313352  0.50382786  0.06086315  1  -0.053888  0  -0.236199  -0.416713  0  4.007681  0
C  C39  1  0.29686807  0.49617342  0.93913782  1  -0.051331  0  -0.236196  -0.416727  0  4.007715  0
N  N40  1  0.76304822  0.50000440  0.49986565  1  -0.968118  0  -0.197207  -0.185659  0  2.940477  0
N  N41  1  0.23694958  0.49999551  0.50013471  1  -0.967968  0  -0.197135  -0.185624  0  2.940613  0
O  O42  1  0.41349485  0.64165796  0.50015491  1  -1.126433  0  -0.312479  -0.539399  0  2.246643  0
O  O43  1  0.58650901  0.35833711  0.49984731  1  -1.126423  0  -0.312505  -0.539488  0  2.246614  0
O  O44  1  0.58651843  0.64166810  0.49987537  1  -1.127061  0  -0.312429  -0.539431  0  2.246362  0
O  O45  1  0.41348467  0.35832835  0.50012436  1  -1.127376  0  -0.312503  -0.539577  0  2.246359  0
O  O46  1  0.41355221  0.50003973  0.62585942  1  -1.14017  0  -0.31877  -0.549458  0  2.258902  0
O  O47  1  0.58644711  0.49995327  0.37414031  1  -1.140095  0  -0.31876  -0.549485  0  2.25874  0
O  O48  1  0.58629549  0.50004634  0.62537616  1  -1.140759  0  -0.318668  -0.549108  0  2.260027  0
O  O49  1  0.41370383  0.49995288  0.37462419  1  -1.140819  0  -0.318679  -0.549117  0  2.259971  0
