# generated using pymatgen
data_ZnH4C16N3(O2F)2
_symmetry_space_group_name_H-M   'P 1'
_cell_length_a   9.64930703
_cell_length_b   11.05181385
_cell_length_c   17.67202143
_cell_angle_alpha   90.84244927
_cell_angle_beta   90.15499532
_cell_angle_gamma   89.64027632
_symmetry_Int_Tables_number   1
_chemical_formula_structural   ZnH4C16N3(O2F)2
_chemical_formula_sum   'Zn2 H8 C32 N6 O8 F4'
_cell_volume   1884.33852090
_cell_formula_units_Z   2
loop_
 _symmetry_equiv_pos_site_id
 _symmetry_equiv_pos_as_xyz
  1  'x, y, z'
loop_
 _atom_site_type_symbol
 _atom_site_label
 _atom_site_symmetry_multiplicity
 _atom_site_fract_x
 _atom_site_fract_y
 _atom_site_fract_z
 _atom_site_occupancy
 _atom_site_pbe_bader_charge
 _atom_site_pbe_bader_spin_density
 _atom_site_pbe_cm5_charge
 _atom_site_pbe_ddec_charge
 _atom_site_pbe_ddec_spin_density
 _atom_site_pbe_ddec_sum_bond_order
 _atom_site_pbe_magmom
Zn  Zn0  1  0.35218387  0.49166228  0.50329145  1  1.308305  0  0.679151  0.819368  0  2.416158  0
Zn  Zn1  1  0.64333642  0.48723793  0.49729542  1  1.270405  0  0.680784  0.820235  0  2.41991  0
H  H2  1  0.27946681  0.51909732  0.11759410  1  0.087275  0  0.120396  0.150608  0  0.969252  0
H  H3  1  0.72244628  0.52382810  0.88150402  1  0.106243  0  0.12053  0.150888  0  0.968125  0
H  H4  1  0.29381874  0.64456630  0.87113639  1  0.126579  0  0.120004  0.150804  0  0.971588  0
H  H5  1  0.71301517  0.61920514  0.13432883  1  0.137488  0  0.119643  0.149875  0  0.971333  0
H  H6  1  0.86915001  0.45730498  0.38287052  1  0.193288  0  0.139943  0.12614  0  0.972392  0
H  H7  1  0.12607821  0.52638643  0.61790630  1  0.178089  0  0.139023  0.125125  0  0.978031  0
H  H8  1  0.86009896  0.52312543  0.61504337  1  0.202601  0  0.138363  0.127987  0  0.990461  0
H  H9  1  0.13499010  0.46049387  0.38563578  1  0.179992  0  0.139796  0.12838  0  0.982533  0
C  C10  1  0.50223945  0.72577191  0.49540918  1  1.612188  0  0.213593  0.584271  0  4.239154  0
C  C11  1  0.49566047  0.25484276  0.50368026  1  1.630928  0  0.219548  0.5947  0  4.206382  0
C  C12  1  0.50050223  0.58782577  0.03603974  1  -0.3403  0  -0.031917  -0.089276  0  4.068936  0
C  C13  1  0.50431806  0.59242045  0.96713961  1  0.019453  0  -0.032436  -0.092339  0  4.070119  0
C  C14  1  0.56403832  0.92533913  0.55739896  1  0.026868  0  0.035999  0.027507  0  4.001896  0
C  C15  1  0.43720160  0.05525967  0.44005240  1  0.077677  0  0.039004  0.03826  0  3.996285  0
C  C16  1  0.56121657  0.05357883  0.55995917  1  0.187014  0  0.039265  0.038057  0  3.998964  0
C  C17  1  0.44149559  0.92700367  0.43723197  1  0.12439  0  0.036016  0.02746  0  4.002538  0
C  C18  1  0.50265248  0.51593686  0.64467546  1  1.598595  0  0.220937  0.636231  0  4.153364  0
C  C19  1  0.49317303  0.49440384  0.35553970  1  1.592739  0  0.220833  0.636921  0  4.154512  0
C  C20  1  0.49737205  0.11839870  0.50138831  1  0.085751  0  0.025006  -0.053523  0  3.856123  0
C  C21  1  0.50346374  0.86228864  0.49630808  1  0.13653  0  0.029905  -0.037639  0  3.862301  0
C  C22  1  0.37412678  0.53248561  0.15013014  1  0.059867  0  -0.092836  -0.271673  0  3.92468  0
C  C23  1  0.62823338  0.54373709  0.84998392  1  0.059125  0  -0.092227  -0.270865  0  3.922677  0
C  C24  1  0.38775647  0.61010379  0.84433508  1  0.028472  0  -0.096026  -0.277285  0  3.937853  0
C  C25  1  0.61723722  0.58738359  0.15932368  1  0.038053  0  -0.096357  -0.277355  0  3.937984  0
C  C26  1  0.37538570  0.50839917  0.22677210  1  0.50283  0  0.118537  0.321392  0  4.037046  0
C  C27  1  0.62512124  0.52491249  0.77237598  1  0.43843  0  0.118495  0.320629  0  4.036222  0
C  C28  1  0.39004761  0.58903931  0.76697647  1  0.423753  0  0.112422  0.310995  0  4.044108  0
C  C29  1  0.61309411  0.56135854  0.23564340  1  0.46127  0  0.112743  0.312481  0  4.040049  0
C  C30  1  0.49399797  0.51987099  0.27283651  1  0.096646  0  -0.026653  -0.254132  0  3.929844  0
C  C31  1  0.50623119  0.54350485  0.72759308  1  0.11831  0  -0.026477  -0.252921  0  3.931762  0
C  C32  1  0.92807071  0.47190024  0.43492901  1  0.397367  0  0.083881  0.068296  0  3.839665  0
C  C33  1  0.06729254  0.51096416  0.56588474  1  0.521048  0  0.084443  0.070372  0  3.834563  0
C  C34  1  0.92308553  0.50897409  0.56444713  1  0.451323  0  0.084559  0.071988  0  3.825494  0
C  C35  1  0.07226928  0.47371604  0.43640249  1  0.582035  0  0.085355  0.073052  0  3.828335  0
C  C36  1  0.49681401  0.57126458  0.11525437  1  0.035211  0  0.014169  0.203735  0  4.126074  0
C  C37  1  0.50741477  0.58447810  0.88716867  1  0.170474  0  0.013688  0.203154  0  4.125743  0
C  C38  1  0.62830857  0.86005120  0.61722406  1  0.851794  0  0.183559  0.234387  0  3.99788  0
C  C39  1  0.37322524  0.11880432  0.37934999  1  0.890571  0  0.181521  0.235558  0  4.00838  0
C  C40  1  0.61995575  0.11503567  0.62390212  1  0.848173  0  0.179986  0.233565  0  4.006737  0
C  C41  1  0.38447538  0.86279505  0.37389542  1  0.879882  0  0.18294  0.233011  0  3.996876  0
N  N42  1  0.14003631  0.49307266  0.50195102  1  -1.23223  0  -0.294267  -0.15054  0  3.502625  0
N  N43  1  0.85537320  0.48915872  0.49891258  1  -1.193803  0  -0.293933  -0.148967  0  3.504727  0
N  N44  1  0.68137785  0.80653071  0.66598945  1  -1.066827  0  -0.276367  -0.304868  0  2.679354  0
N  N45  1  0.32135635  0.16731287  0.32819706  1  -1.068946  0  -0.282291  -0.309693  0  2.653657  0
N  N46  1  0.66584403  0.16103705  0.67825931  1  -1.06415  0  -0.281218  -0.306469  0  2.642881  0
N  N47  1  0.34030412  0.80928272  0.32180761  1  -1.067944  0  -0.27458  -0.301648  0  2.667527  0
O  O48  1  0.38813254  0.67945515  0.51413803  1  -1.14187  0  -0.30202  -0.520467  0  2.27223  0
O  O49  1  0.61174003  0.30419593  0.51586674  1  -1.149712  0  -0.302028  -0.523128  0  2.301601  0
O  O50  1  0.37922352  0.30485116  0.49275899  1  -1.142829  0  -0.30096  -0.522918  0  2.304039  0
O  O51  1  0.61440752  0.67392492  0.47697425  1  -1.151639  0  -0.302872  -0.521423  0  2.271386  0
O  O52  1  0.38741996  0.48209801  0.61634600  1  -1.147692  0  -0.316815  -0.546893  0  2.325023  0
O  O53  1  0.60598950  0.45784251  0.38544214  1  -1.155403  0  -0.318753  -0.552061  0  2.330234  0
O  O54  1  0.38006133  0.51317729  0.39069357  1  -1.147016  0  -0.308047  -0.542563  0  2.369467  0
O  O55  1  0.61483390  0.52845929  0.60813313  1  -1.155747  0  -0.306432  -0.543699  0  2.38774  0
F  F56  1  0.25554247  0.46850160  0.25721320  1  -0.625764  0  -0.090843  -0.134613  0  1.355164  0
F  F57  1  0.74290816  0.48214824  0.73965413  1  -0.624316  0  -0.090102  -0.13393  0  1.354536  0
F  F58  1  0.27250674  0.61632838  0.72794472  1  -0.628966  0  -0.098788  -0.142606  0  1.341695  0
F  F59  1  0.73160030  0.58011621  0.27581178  1  -0.631879  0  -0.098791  -0.141935  0  1.341324  0
