# generated using pymatgen
data_TmH8C12O7
_symmetry_space_group_name_H-M   'P 1'
_cell_length_a   10.77317129
_cell_length_b   10.77306422
_cell_length_c   18.75290771
_cell_angle_alpha   73.38197820
_cell_angle_beta   73.38147809
_cell_angle_gamma   69.23084061
_symmetry_Int_Tables_number   1
_chemical_formula_structural   TmH8C12O7
_chemical_formula_sum   'Tm4 H32 C48 O28'
_cell_volume   1908.20019069
_cell_formula_units_Z   4
loop_
 _symmetry_equiv_pos_site_id
 _symmetry_equiv_pos_as_xyz
  1  'x, y, z'
loop_
 _atom_site_type_symbol
 _atom_site_label
 _atom_site_symmetry_multiplicity
 _atom_site_fract_x
 _atom_site_fract_y
 _atom_site_fract_z
 _atom_site_occupancy
 _atom_site_pbe_bader_charge
 _atom_site_pbe_bader_spin_density
 _atom_site_pbe_cm5_charge
 _atom_site_pbe_ddec_charge
 _atom_site_pbe_ddec_spin_density
 _atom_site_pbe_ddec_sum_bond_order
 _atom_site_pbe_magmom
Tm  Tm0  1  0.44476697  0.54375393  0.60544713  1  2.198852  0  1.570506  2.132566  0  2.191286  0
Tm  Tm1  1  0.45621058  0.55524756  0.89454229  1  2.19891  0  1.570445  2.132659  0  2.19108  0
Tm  Tm2  1  0.55522946  0.45622053  0.39453584  1  2.198823  0  1.570439  2.132583  0  2.191262  0
Tm  Tm3  1  0.54377306  0.44476411  0.10544890  1  2.198869  0  1.5704  2.132621  0  2.191213  0
H  H4  1  0.30573343  0.80276084  0.66982720  1  0.616959  0  0.326201  0.406373  0  0.888021  0
H  H5  1  0.19727237  0.69436104  0.83011760  1  0.617725  0  0.326066  0.406227  0  0.888005  0
H  H6  1  0.69431734  0.19724945  0.33015525  1  0.616982  0  0.326121  0.406319  0  0.887888  0
H  H7  1  0.80273657  0.30568597  0.16986357  1  0.617369  0  0.326137  0.406296  0  0.887881  0
H  H8  1  0.26362383  0.79900374  0.59828213  1  0.641687  0  0.320414  0.410492  0  0.893165  0
H  H9  1  0.20098308  0.73627132  0.90173864  1  0.641422  0  0.32045  0.410557  0  0.893133  0
H  H10  1  0.73632299  0.20096394  0.40174270  1  0.641132  0  0.320361  0.410465  0  0.893216  0
H  H11  1  0.79900426  0.26366578  0.09828241  1  0.641961  0  0.320278  0.410323  0  0.893331  0
H  H12  1  0.62696926  0.78584451  0.55628518  1  0.068536  0  0.109372  0.10937  0  1.014819  0
H  H13  1  0.21415932  0.37300396  0.94371437  1  0.068757  0  0.109364  0.109341  0  1.015018  0
H  H14  1  0.37301780  0.21411782  0.44371575  1  0.068518  0  0.109371  0.109318  0  1.014915  0
H  H15  1  0.78586115  0.62697130  0.05628209  1  0.068924  0  0.109381  0.109363  0  1.01506  0
H  H16  1  0.62971387  0.02374666  0.49470213  1  0.101415  0  0.10114  0.099168  0  1.020483  0
H  H17  1  0.97625592  0.37026011  0.00530405  1  0.103355  0  0.101087  0.099171  0  1.020598  0
H  H18  1  0.37028341  0.97621114  0.50529572  1  0.101778  0  0.101108  0.099253  0  1.020446  0
H  H19  1  0.02375686  0.62972973  0.99470033  1  0.101305  0  0.101141  0.099237  0  1.020664  0
H  H20  1  0.48510591  0.13528111  0.71277419  1  0.091129  0  0.113157  0.123431  0  0.985781  0
H  H21  1  0.86471114  0.51485746  0.78723472  1  0.091337  0  0.11323  0.123529  0  0.985952  0
H  H22  1  0.51480817  0.86474028  0.28721892  1  0.091103  0  0.113302  0.123574  0  0.985865  0
H  H23  1  0.13527908  0.48518463  0.21277062  1  0.091137  0  0.113319  0.123558  0  0.985882  0
H  H24  1  0.48984452  0.89295546  0.77582922  1  0.126257  0  0.110665  0.11903  0  1.021368  0
H  H25  1  0.10701593  0.51012299  0.72416677  1  0.126254  0  0.110683  0.119049  0  1.021267  0
H  H26  1  0.51007682  0.10703985  0.22416326  1  0.126171  0  0.110654  0.11905  0  1.02132  0
H  H27  1  0.89297887  0.48988589  0.27582837  1  0.126227  0  0.110753  0.119192  0  1.021297  0
H  H28  1  0.00337257  0.42566667  0.38533069  1  0.092808  0  0.106958  0.11318  0  1.001844  0
H  H29  1  0.57439617  0.99660854  0.11466395  1  0.091531  0  0.107074  0.113436  0  1.001827  0
H  H30  1  0.99661871  0.57441388  0.61464998  1  0.091326  0  0.107027  0.113394  0  1.002064  0
H  H31  1  0.42567349  0.00338442  0.88532624  1  0.092361  0  0.106975  0.113158  0  1.001836  0
H  H32  1  0.78404018  0.55365359  0.59530969  1  0.133504  0  0.106905  0.117136  0  1.03055  0
H  H33  1  0.44642890  0.21593842  0.90466722  1  0.133141  0  0.106936  0.117153  0  1.030521  0
H  H34  1  0.21594000  0.44644915  0.40466807  1  0.132934  0  0.106879  0.117065  0  1.030619  0
H  H35  1  0.55368709  0.78402729  0.09530488  1  0.133007  0  0.106866  0.117136  0  1.030501  0
C  C36  1  0.55178147  0.68466986  0.70604884  1  1.584628  0  0.241283  0.669645  0  4.152778  0
C  C37  1  0.31532890  0.44819563  0.79395082  1  1.584063  0  0.241318  0.669726  0  4.152942  0
C  C38  1  0.44819164  0.31531251  0.29396335  1  1.584194  0  0.24127  0.669704  0  4.153049  0
C  C39  1  0.68469693  0.55177247  0.20604913  1  1.584038  0  0.241266  0.669549  0  4.153229  0
C  C40  1  0.55808628  0.82620333  0.66956173  1  -0.019408  0  -0.01666  -0.05743  0  3.978398  0
C  C41  1  0.17379396  0.44190378  0.83044233  1  -0.01985  0  -0.016675  -0.057584  0  3.978107  0
C  C42  1  0.44188892  0.17379690  0.33043595  1  -0.019033  0  -0.016596  -0.057447  0  3.978148  0
C  C43  1  0.82621579  0.55808683  0.16956563  1  -0.019812  0  -0.016631  -0.057377  0  3.97807  0
C  C44  1  0.59861551  0.86209944  0.59034741  1  -0.026405  0  -0.081262  -0.098944  0  3.984828  0
C  C45  1  0.13789958  0.40135126  0.90966288  1  -0.026411  0  -0.081275  -0.098915  0  3.984838  0
C  C46  1  0.40135495  0.13789518  0.40964932  1  -0.025976  0  -0.081318  -0.098807  0  3.984769  0
C  C47  1  0.86211140  0.59863416  0.09033774  1  -0.026501  0  -0.08124  -0.098973  0  3.984706  0
C  C48  1  0.60015918  0.99437361  0.55617525  1  -0.051102  0  -0.084047  -0.088724  0  3.985633  0
C  C49  1  0.00561538  0.39982782  0.94383377  1  -0.052143  0  -0.083914  -0.088633  0  3.985512  0
C  C50  1  0.39982263  0.00561428  0.44382125  1  -0.050624  0  -0.084008  -0.088999  0  3.985492  0
C  C51  1  0.99439149  0.60017997  0.05616382  1  -0.050028  0  -0.08401  -0.088795  0  3.985555  0
C  C52  1  0.55834811  0.09290175  0.60023521  1  -0.062233  0  -0.013455  -0.036589  0  3.942067  0
C  C53  1  0.90709174  0.44160261  0.89976934  1  -0.062603  0  -0.013282  -0.036532  0  3.941843  0
C  C54  1  0.44159263  0.90708577  0.39975588  1  -0.063156  0  -0.013271  -0.036305  0  3.941646  0
C  C55  1  0.09290595  0.55840948  0.10023919  1  -0.062592  0  -0.013252  -0.03645  0  3.941576  0
C  C56  1  0.54997404  0.23752412  0.56252214  1  1.575569  0  0.237407  0.668777  0  4.124243  0
C  C57  1  0.76247849  0.44999985  0.93748876  1  1.576398  0  0.237442  0.668864  0  4.124784  0
C  C58  1  0.45001314  0.76245662  0.43748052  1  1.574275  0  0.237432  0.668619  0  4.124477  0
C  C59  1  0.23753210  0.55001481  0.06252094  1  1.574614  0  0.237423  0.66874  0  4.124261  0
C  C60  1  0.51825925  0.05681298  0.67958345  1  -0.064321  0  -0.07767  -0.084419  0  3.945543  0
C  C61  1  0.94316295  0.48170068  0.82041930  1  -0.06453  0  -0.077743  -0.084451  0  3.945572  0
C  C62  1  0.48168349  0.94317502  0.32041203  1  -0.064192  0  -0.077942  -0.084657  0  3.94585  0
C  C63  1  0.05682239  0.51831839  0.17958906  1  -0.064194  0  -0.077895  -0.084506  0  3.946067  0
C  C64  1  0.51965372  0.92367064  0.71427453  1  -0.026694  0  -0.079139  -0.094182  0  3.95467  0
C  C65  1  0.07630993  0.48030765  0.78572416  1  -0.026925  0  -0.079336  -0.094365  0  3.954133  0
C  C66  1  0.48028099  0.07631742  0.28571694  1  -0.026962  0  -0.079172  -0.094266  0  3.953977  0
C  C67  1  0.92369346  0.51971076  0.21428238  1  -0.027221  0  -0.079366  -0.094504  0  3.954889  0
C  C68  1  0.75430125  0.48017412  0.47599514  1  1.552655  0  0.231173  0.650463  0  4.148816  0
C  C69  1  0.51983236  0.24570817  0.02401787  1  1.550656  0  0.231257  0.650299  0  4.148391  0
C  C70  1  0.24570100  0.51984750  0.52401533  1  1.556142  0  0.231284  0.650396  0  4.148356  0
C  C71  1  0.48019218  0.75430681  0.97597614  1  1.552745  0  0.231212  0.650628  0  4.148738  0
C  C72  1  0.88134477  0.48922162  0.48890053  1  -0.045495  0  -0.011341  -0.02844  0  3.942887  0
C  C73  1  0.51078975  0.11865485  0.01110972  1  -0.044558  0  -0.011585  -0.028442  0  3.943027  0
C  C74  1  0.11865591  0.51079068  0.51110907  1  -0.049886  0  -0.011491  -0.028461  0  3.943144  0
C  C75  1  0.48920840  0.88134739  0.98889077  1  -0.044933  0  -0.011536  -0.028632  0  3.943375  0
C  C76  1  0.00309580  0.45842066  0.43524842  1  -0.039275  0  -0.082017  -0.095234  0  3.964389  0
C  C77  1  0.54161425  0.99690496  0.06475463  1  -0.038462  0  -0.082202  -0.09568  0  3.964555  0
C  C78  1  0.99690528  0.54160416  0.56475958  1  -0.038157  0  -0.082145  -0.095623  0  3.964816  0
C  C79  1  0.45844032  0.00308988  0.93524201  1  -0.038618  0  -0.082001  -0.095052  0  3.964538  0
C  C80  1  0.87900281  0.53072000  0.55386993  1  -0.040486  0  -0.08112  -0.091407  0  3.949628  0
C  C81  1  0.46929757  0.12100016  0.94613837  1  -0.040229  0  -0.081172  -0.091753  0  3.949745  0
C  C82  1  0.12099441  0.46932227  0.44613529  1  -0.039667  0  -0.081136  -0.091558  0  3.950012  0
C  C83  1  0.53070633  0.87900743  0.05386454  1  -0.040077  0  -0.081034  -0.0915  0  3.949336  0
O  O84  1  0.55595290  0.61013566  0.66278424  1  -1.208333  0  -0.429697  -0.724207  0  2.369087  0
O  O85  1  0.38985121  0.44407073  0.83721103  1  -1.208047  0  -0.429872  -0.724364  0  2.369276  0
O  O86  1  0.44406672  0.38983694  0.33722186  1  -1.208105  0  -0.429946  -0.724344  0  2.369363  0
O  O87  1  0.61015818  0.55592674  0.16279105  1  -1.208013  0  -0.429714  -0.724195  0  2.369361  0
O  O88  1  0.54181237  0.64727596  0.77708707  1  -1.185715  0  -0.408075  -0.660142  0  2.349374  0
O  O89  1  0.35270073  0.45820237  0.72291526  1  -1.185627  0  -0.408026  -0.660062  0  2.349511  0
O  O90  1  0.45819715  0.35271958  0.22292438  1  -1.185888  0  -0.407937  -0.660093  0  2.349383  0
O  O91  1  0.64731169  0.54175359  0.27708946  1  -1.18561  0  -0.408092  -0.66004  0  2.349485  0
O  O92  1  0.59019064  0.26526633  0.49027665  1  -1.202894  0  -0.398263  -0.711878  0  2.344822  0
O  O93  1  0.73472570  0.40976972  0.00973711  1  -1.202552  0  -0.398452  -0.711924  0  2.344882  0
O  O94  1  0.40978989  0.73470737  0.50973308  1  -1.202166  0  -0.398303  -0.711795  0  2.344962  0
O  O95  1  0.26528846  0.59021302  0.99028048  1  -1.203146  0  -0.3982  -0.711673  0  2.345282  0
O  O96  1  0.50029014  0.32399329  0.60474574  1  -1.182179  0  -0.402203  -0.670569  0  2.335114  0
O  O97  1  0.67602174  0.49966588  0.89526811  1  -1.18341  0  -0.401992  -0.67051  0  2.335177  0
O  O98  1  0.49969582  0.67601198  0.39524826  1  -1.181537  0  -0.402143  -0.670431  0  2.335151  0
O  O99  1  0.32400647  0.50033661  0.10474389  1  -1.18096  0  -0.40232  -0.67068  0  2.334853  0
O  O100  1  0.64465016  0.50913204  0.52548219  1  -1.220217  0  -0.423398  -0.741245  0  2.423966  0
O  O101  1  0.49086536  0.35536309  0.97451671  1  -1.219041  0  -0.42341  -0.741262  0  2.423226  0
O  O102  1  0.35536014  0.49086713  0.47451520  1  -1.219047  0  -0.423478  -0.741368  0  2.423253  0
O  O103  1  0.50915249  0.64464481  0.02546892  1  -1.219829  0  -0.423324  -0.74133  0  2.423256  0
O  O104  1  0.75907612  0.44588040  0.41548961  1  -1.17863  0  -0.390556  -0.645345  0  2.253324  0
O  O105  1  0.55412607  0.24094896  0.08451482  1  -1.178359  0  -0.390505  -0.644941  0  2.25368  0
O  O106  1  0.24095983  0.55412688  0.58451019  1  -1.178726  0  -0.390568  -0.644956  0  2.253844  0
O  O107  1  0.44592168  0.75906212  0.91547493  1  -1.17944  0  -0.390525  -0.64515  0  2.253725  0
O  O108  1  0.27001505  0.75010186  0.65062773  1  -1.230748  0  -0.596078  -0.79086  0  1.982443  0
O  O109  1  0.24990914  0.73000331  0.84938180  1  -1.231122  0  -0.596016  -0.790781  0  1.98257  0
O  O110  1  0.73000090  0.24988529  0.34938777  1  -1.230035  0  -0.595987  -0.79077  0  1.982307  0
O  O111  1  0.75009205  0.26999919  0.15063574  1  -1.231356  0  -0.595911  -0.790636  0  1.98231  0
