# generated using pymatgen
data_MnH5C10N3O4
_symmetry_space_group_name_H-M   'P 1'
_cell_length_a   12.58094932
_cell_length_b   14.15798346
_cell_length_c   20.99981772
_cell_angle_alpha   89.99924106
_cell_angle_beta   89.99951036
_cell_angle_gamma   89.99966903
_symmetry_Int_Tables_number   1
_chemical_formula_structural   MnH5C10N3O4
_chemical_formula_sum   'Mn8 H40 C80 N24 O32'
_cell_volume   3740.50585057
_cell_formula_units_Z   8
loop_
 _symmetry_equiv_pos_site_id
 _symmetry_equiv_pos_as_xyz
  1  'x, y, z'
loop_
 _atom_site_type_symbol
 _atom_site_label
 _atom_site_symmetry_multiplicity
 _atom_site_fract_x
 _atom_site_fract_y
 _atom_site_fract_z
 _atom_site_occupancy
 _atom_site_pbe_bader_charge
 _atom_site_pbe_bader_spin_density
 _atom_site_pbe_cm5_charge
 _atom_site_pbe_ddec_charge
 _atom_site_pbe_ddec_spin_density
 _atom_site_pbe_ddec_sum_bond_order
 _atom_site_pbe_magmom
Mn  Mn0  1  0.91387831  0.62298183  0.30391696  1  1.47249  4.539114  0.620795  0.933528  4.679508  2.401275  4.424
Mn  Mn1  1  0.58616731  0.87702892  0.80391048  1  1.471919  4.539376  0.620717  0.933497  4.679705  2.400726  4.424
Mn  Mn2  1  0.08614664  0.62298565  0.19609194  1  1.474726  4.538018  0.620836  0.933639  4.679654  2.400788  4.424
Mn  Mn3  1  0.41382735  0.87700919  0.69608284  1  1.474482  4.538093  0.620778  0.933516  4.679735  2.400843  4.424
Mn  Mn4  1  0.08613831  0.37702639  0.69607932  1  1.474962  4.538001  0.62079  0.933726  4.679652  2.40071  4.424
Mn  Mn5  1  0.41384613  0.12300049  0.19608817  1  1.472514  4.53924  0.620847  0.933487  4.679745  2.400841  4.424
Mn  Mn6  1  0.91385965  0.37702539  0.80391529  1  1.472354  4.539169  0.620742  0.933567  4.679573  2.401187  4.424
Mn  Mn7  1  0.58616384  0.12296300  0.30391581  1  1.47446  4.538094  0.620739  0.933438  4.679643  2.401039  4.424
H  H8  1  0.58266375  0.62327011  0.45602912  1  0.176674  0.000875  0.150688  0.122619  0.000586  0.957072  0.0
H  H9  1  0.91874805  0.62654018  0.45836970  1  0.186465  0.000364  0.155863  0.127254  5.8e-05  0.965544  0.0
H  H10  1  0.87748928  0.52339895  0.55716542  1  0.095854  0.000564  0.108502  0.117956  7.2e-05  1.011087  0.0
H  H11  1  0.74782417  0.62730436  0.73305156  1  0.094231  0.000514  0.120125  0.132675  -0.000387  0.980762  0.0
H  H12  1  0.62038480  0.72744492  0.55546607  1  0.091851  0.00055  0.109015  0.117629  0.000123  1.00972  0.0
H  H13  1  0.91733360  0.87673705  0.95605191  1  0.176363  0.000874  0.150644  0.122642  0.000585  0.956981  0.0
H  H14  1  0.58125721  0.87347188  0.95839281  1  0.186303  0.000363  0.155902  0.127293  5.7e-05  0.965748  0.0
H  H15  1  0.62252888  0.97660236  0.05716059  1  0.095897  0.000564  0.108545  0.117951  7.2e-05  1.011035  0.0
H  H16  1  0.75217716  0.87270209  0.23306322  1  0.093827  0.000515  0.120192  0.132733  -0.000386  0.981013  0.0
H  H17  1  0.87958966  0.77254512  0.05547801  1  0.092247  0.000549  0.109028  0.117637  0.000122  1.009611  0.0
H  H18  1  0.41733577  0.62325607  0.04395311  1  0.176237  0.000875  0.150651  0.122638  0.000586  0.956939  0.0
H  H19  1  0.08125621  0.62651800  0.04159917  1  0.18673  0.000363  0.155916  0.127314  5.7e-05  0.965515  0.0
H  H20  1  0.12253315  0.52339296  0.94283212  1  0.096223  0.000563  0.108547  0.117988  7.2e-05  1.011107  0.0
H  H21  1  0.25216260  0.62728622  0.76693550  1  0.093804  0.000514  0.120216  0.132786  -0.000387  0.980963  0.0
H  H22  1  0.37960051  0.72744960  0.94452006  1  0.092419  0.000549  0.108944  0.117492  0.000122  1.009596  0.0
H  H23  1  0.08265788  0.87674025  0.54396713  1  0.176519  0.000875  0.150705  0.12265  0.000586  0.957014  0.0
H  H24  1  0.41874701  0.87346000  0.54163294  1  0.186044  0.000364  0.15587  0.127262  5.8e-05  0.965535  0.0
H  H25  1  0.37747386  0.97660850  0.44284504  1  0.095671  0.000564  0.108482  0.117939  7.2e-05  1.011091  0.0
H  H26  1  0.24783978  0.87268256  0.26694623  1  0.094019  0.000514  0.120157  0.132591  -0.000387  0.980714  0.0
H  H27  1  0.12039536  0.77254970  0.44452570  1  0.091948  0.00055  0.109036  0.117676  0.000123  1.009799  0.0
H  H28  1  0.41733936  0.37672681  0.54396906  1  0.176642  0.000874  0.150717  0.122637  0.000586  0.95707  0.0
H  H29  1  0.08125267  0.37346097  0.54162325  1  0.186004  0.000364  0.155906  0.12737  5.8e-05  0.965616  0.0
H  H30  1  0.12252178  0.47658737  0.44284276  1  0.095787  0.000564  0.108511  0.117945  7.2e-05  1.01113  0.0
H  H31  1  0.25216225  0.37271092  0.26693853  1  0.094077  0.000514  0.120143  0.132592  -0.000387  0.980732  0.0
H  H32  1  0.37960002  0.27254705  0.44452878  1  0.092014  0.000549  0.109046  0.117719  0.000122  1.009675  0.0
H  H33  1  0.08265997  0.12325704  0.04395484  1  0.1762  0.000875  0.150681  0.122705  0.000586  0.95696  0.0
H  H34  1  0.41873478  0.12652010  0.04161014  1  0.18652  0.000364  0.155934  0.127279  5.8e-05  0.965616  0.0
H  H35  1  0.37745197  0.02337054  0.94284283  1  0.096088  0.000563  0.108518  0.117882  7.2e-05  1.010996  0.0
H  H36  1  0.24782754  0.12730825  0.76694401  1  0.094127  0.000514  0.120159  0.13275  -0.000387  0.980816  0.0
H  H37  1  0.12039437  0.22744826  0.94452256  1  0.092251  0.00055  0.109048  0.117612  0.000123  1.009701  0.0
H  H38  1  0.58266655  0.37674508  0.95603841  1  0.17628  0.000875  0.150646  0.122656  0.000586  0.957139  0.0
H  H39  1  0.91874849  0.37348103  0.95838616  1  0.186437  0.000364  0.155912  0.127298  5.8e-05  0.96551  0.0
H  H40  1  0.87746280  0.47662797  0.05716034  1  0.095945  0.000563  0.108558  0.118044  7.2e-05  1.010932  0.0
H  H41  1  0.74783415  0.37270011  0.23305316  1  0.094103  0.000514  0.120183  0.132786  -0.000386  0.980901  0.0
H  H42  1  0.62039465  0.27255085  0.05547288  1  0.092223  0.00055  0.108947  0.117445  0.000123  1.009456  0.0
H  H43  1  0.91733648  0.12326868  0.45604105  1  0.176211  0.000875  0.150687  0.122696  0.000586  0.957132  0.0
H  H44  1  0.58125610  0.12652138  0.45837429  1  0.186094  0.000364  0.155888  0.127326  5.8e-05  0.965588  0.0
H  H45  1  0.62251176  0.02340961  0.55716028  1  0.095513  0.000564  0.108524  0.117964  7.2e-05  1.010988  0.0
H  H46  1  0.75217207  0.12731294  0.73306148  1  0.094029  0.000514  0.120114  0.132687  -0.000387  0.980854  0.0
H  H47  1  0.87958709  0.22745993  0.55547343  1  0.092189  0.00055  0.109078  0.11775  0.000122  1.009713  0.0
C  C48  1  0.66454003  0.62427020  0.43988400  1  0.909995  0.003005  0.155287  0.068936  0.002239  3.936385  0.002
C  C49  1  0.83700395  0.62457416  0.44209644  1  0.962084  0.019246  0.172988  0.095468  0.015857  3.872213  0.014
C  C50  1  0.74911951  0.62549299  0.54885663  1  0.226718  0.000213  0.085424  0.150601  -3.3e-05  4.06626  0.0
C  C51  1  0.82122849  0.56896255  0.58193176  1  -0.076704  0.006513  -0.083601  -0.18463  0.004886  3.96077  0.004
C  C52  1  0.81969792  0.56882349  0.64851710  1  0.097221  0.003208  -0.006117  -0.001413  0.001796  3.958749  0.002
C  C53  1  0.74811466  0.62672002  0.68121206  1  0.024055  0.00731  -0.060163  -0.088102  0.005169  3.873356  0.004
C  C54  1  0.67687208  0.68380845  0.64758217  1  -0.032944  0.003244  -0.006056  -0.002306  0.00172  3.960502  0.002
C  C55  1  0.60237962  0.74905842  0.68217950  1  1.596843  0.017219  0.227057  0.598091  0.017657  4.174459  0.015
C  C56  1  0.67629232  0.68244378  0.58099731  1  0.034024  0.006361  -0.083425  -0.182734  0.004926  3.959795  0.004
C  C57  1  0.89384729  0.50431660  0.68405466  1  1.598227  0.017796  0.226925  0.597095  0.018222  4.173559  0.016
C  C58  1  0.83545357  0.87573444  0.93989818  1  0.910667  0.003002  0.155343  0.069235  0.002235  3.936082  0.002
C  C59  1  0.66298485  0.87542902  0.94211768  1  0.962724  0.019233  0.172848  0.095297  0.015846  3.872592  0.014
C  C60  1  0.75089240  0.87449859  0.04888114  1  0.225731  0.000214  0.085514  0.150545  -3.2e-05  4.06599  0.0
C  C61  1  0.67878613  0.93104394  0.08194373  1  -0.07577  0.006517  -0.083708  -0.184554  0.00489  3.961418  0.004
C  C62  1  0.68032131  0.93121070  0.14852002  1  0.096991  0.003206  -0.006205  -0.001666  0.001794  3.958881  0.002
C  C63  1  0.75188980  0.87329660  0.18122610  1  0.024747  0.00732  -0.06009  -0.087827  0.005177  3.873086  0.004
C  C64  1  0.82310822  0.81617914  0.14760541  1  -0.034502  0.003242  -0.005939  -0.00229  0.001718  3.960504  0.002
C  C65  1  0.89760495  0.75094899  0.18219583  1  1.595942  0.017247  0.227059  0.59773  0.017684  4.174793  0.015
C  C66  1  0.82371834  0.81755779  0.08102150  1  0.034481  0.006364  -0.083452  -0.182703  0.004929  3.959742  0.004
C  C67  1  0.60615315  0.99570420  0.18405308  1  1.598391  0.017792  0.227203  0.597369  0.018219  4.173303  0.016
C  C68  1  0.33545232  0.62425698  0.06010250  1  0.91042  0.003001  0.155385  0.06932  0.002235  3.93644  0.002
C  C69  1  0.16299158  0.62455832  0.05788197  1  0.962272  0.019242  0.172955  0.095519  0.01585  3.871978  0.014
C  C70  1  0.25088635  0.62548902  0.95112473  1  0.225522  0.000214  0.085389  0.150575  -3.3e-05  4.066115  0.0
C  C71  1  0.17878649  0.56895039  0.91805536  1  -0.076071  0.006516  -0.083685  -0.18464  0.004889  3.960951  0.004
C  C72  1  0.18031626  0.56879280  0.85147240  1  0.096822  0.003205  -0.006232  -0.001728  0.001793  3.95897  0.002
C  C73  1  0.25188483  0.62670302  0.81877214  1  0.024141  0.007315  -0.060181  -0.088032  0.005173  3.872997  0.004
C  C74  1  0.32312545  0.68380881  0.85240009  1  -0.034022  0.003241  -0.005968  -0.002263  0.001716  3.960118  0.002
C  C75  1  0.39760793  0.74905271  0.81780882  1  1.596803  0.017222  0.227103  0.597776  0.017664  4.174702  0.015
C  C76  1  0.32370681  0.68243157  0.91898162  1  0.034565  0.006362  -0.083333  -0.182598  0.004927  3.959755  0.004
C  C77  1  0.10617288  0.50429473  0.81593972  1  1.598888  0.017786  0.227174  0.597622  0.018218  4.173018  0.016
C  C78  1  0.16453871  0.87573480  0.56011040  1  0.91001  0.003006  0.155375  0.06913  0.002239  3.936307  0.002
C  C79  1  0.33699789  0.87542643  0.55789994  1  0.962661  0.019255  0.173051  0.095516  0.015863  3.872668  0.014
C  C80  1  0.24911896  0.87449463  0.45114020  1  0.226202  0.000214  0.08543  0.150722  -3.2e-05  4.066572  0.0
C  C81  1  0.32123122  0.93103318  0.41807327  1  -0.076196  0.006519  -0.083546  -0.184537  0.004891  3.960708  0.004
C  C82  1  0.31970319  0.93117649  0.35148318  1  0.09741  0.003207  -0.006195  -0.001648  0.001795  3.958331  0.002
C  C83  1  0.24813191  0.87327325  0.31878906  1  0.025605  0.007313  -0.060105  -0.087764  0.005171  3.873402  0.004
C  C84  1  0.17690274  0.81617812  0.35241313  1  -0.034074  0.003241  -0.006092  -0.00234  0.001716  3.960361  0.002
C  C85  1  0.10240564  0.75094477  0.31781475  1  1.596213  0.017231  0.22703  0.597752  0.017668  4.174461  0.015
C  C86  1  0.17630294  0.81755410  0.41900322  1  0.033981  0.006362  -0.083441  -0.182886  0.004927  3.960155  0.004
C  C87  1  0.39385503  0.99569783  0.31594000  1  1.598526  0.017784  0.227125  0.59716  0.018212  4.173267  0.016
C  C88  1  0.33545513  0.37573167  0.56010846  1  0.910116  0.003002  0.155351  0.069165  0.002236  3.936674  0.002
C  C89  1  0.16299280  0.37542699  0.55788841  1  0.962875  0.019246  0.172938  0.095357  0.015855  3.872101  0.014
C  C90  1  0.25087724  0.37449333  0.45112821  1  0.225741  0.000214  0.085495  0.150688  -3.3e-05  4.066274  0.0
C  C91  1  0.17876906  0.43102518  0.41806833  1  -0.076005  0.006519  -0.083709  -0.184631  0.004891  3.960985  0.004
C  C92  1  0.18032347  0.43119815  0.35147822  1  0.09722  0.003204  -0.006133  -0.001661  0.001792  3.958511  0.002
C  C93  1  0.25188050  0.37328396  0.31878374  1  0.0252  0.007316  -0.060078  -0.087702  0.005174  3.873513  0.004
C  C94  1  0.32309447  0.31617293  0.35240268  1  -0.034839  0.003241  -0.005991  -0.002341  0.001715  3.960249  0.002
C  C95  1  0.39760282  0.25092790  0.31781201  1  1.596623  0.017234  0.226961  0.59754  0.017673  4.174462  0.015
C  C96  1  0.32371079  0.31755385  0.41899420  1  0.034496  0.006368  -0.08354  -0.182944  0.004932  3.959766  0.004
C  C97  1  0.10617092  0.49570716  0.31593590  1  1.599092  0.017799  0.227145  0.597443  0.018233  4.17292  0.016
C  C98  1  0.16453523  0.12426035  0.06011143  1  0.910313  0.003007  0.15534  0.069104  0.00224  3.935937  0.002
C  C99  1  0.33700633  0.12456083  0.05789288  1  0.962886  0.019228  0.17288  0.095564  0.015842  3.872482  0.014
C  C100  1  0.24910276  0.12548208  0.95113037  1  0.225828  0.000215  0.085433  0.150612  -3.2e-05  4.065793  0.0
C  C101  1  0.32121141  0.06894591  0.91806064  1  -0.076265  0.006513  -0.083581  -0.184406  0.004886  3.961237  0.004
C  C102  1  0.31969293  0.06880811  0.85148197  1  0.097048  0.003209  -0.00626  -0.0018  0.001797  3.959213  0.002
C  C103  1  0.24811172  0.12671304  0.81878160  1  0.023814  0.007311  -0.060067  -0.087956  0.00517  3.87295  0.004
C  C104  1  0.17686468  0.18380153  0.85240943  1  -0.033165  0.003244  -0.006065  -0.002247  0.00172  3.960533  0.002
C  C105  1  0.10238703  0.24903733  0.81780902  1  1.596557  0.017222  0.227203  0.59789  0.017658  4.174715  0.015
C  C106  1  0.17628953  0.18243913  0.91899097  1  0.034251  0.006358  -0.083397  -0.182614  0.004924  3.959924  0.004
C  C107  1  0.39384837  0.00430473  0.81594701  1  1.598405  0.017784  0.227172  0.597439  0.018207  4.173316  0.016
C  C108  1  0.66454204  0.37573924  0.93989187  1  0.910262  0.003006  0.155355  0.069119  0.00224  3.936177  0.002
C  C109  1  0.83700358  0.37544354  0.94210764  1  0.962581  0.019247  0.172968  0.09555  0.015855  3.872379  0.014
C  C110  1  0.74911041  0.37452132  0.04886917  1  0.225669  0.000214  0.085592  0.150837  -3.2e-05  4.065712  0.0
C  C111  1  0.82121503  0.43105924  0.08193948  1  -0.076333  0.006512  -0.083685  -0.184768  0.004886  3.96133  0.004
C  C112  1  0.81969559  0.43120694  0.14851721  1  0.097212  0.003209  -0.006275  -0.001718  0.001797  3.958933  0.002
C  C113  1  0.74812067  0.37329531  0.18122080  1  0.023952  0.007314  -0.060108  -0.088012  0.005172  3.87262  0.004
C  C114  1  0.67687766  0.31619941  0.14758952  1  -0.033397  0.003245  -0.006072  -0.002321  0.001721  3.960056  0.002
C  C115  1  0.60239518  0.25094633  0.18219365  1  1.59684  0.017225  0.227007  0.597556  0.017668  4.174665  0.015
C  C116  1  0.67629551  0.31756817  0.08100942  1  0.034498  0.006359  -0.083358  -0.182486  0.004925  3.959541  0.004
C  C117  1  0.89385964  0.49570713  0.18405036  1  1.598178  0.017798  0.227084  0.597254  0.018222  4.172831  0.016
C  C118  1  0.83545883  0.12426353  0.43989254  1  0.910323  0.003005  0.155275  0.069024  0.002238  3.936403  0.002
C  C119  1  0.66299488  0.12456413  0.44210824  1  0.963357  0.019234  0.172969  0.095426  0.015848  3.872583  0.014
C  C120  1  0.75088494  0.12550512  0.54887513  1  0.225727  0.000214  0.085495  0.150539  -3.3e-05  4.06611  0.0
C  C121  1  0.67877268  0.06896868  0.58193729  1  -0.075538  0.006516  -0.08365  -0.184497  0.004889  3.960904  0.004
C  C122  1  0.68030707  0.06880983  0.64852119  1  0.097206  0.003207  -0.006242  -0.00165  0.001795  3.958489  0.002
C  C123  1  0.75188073  0.12671801  0.68121960  1  0.025279  0.007314  -0.060001  -0.087826  0.005172  3.873398  0.004
C  C124  1  0.82310355  0.18382374  0.64760077  1  -0.035017  0.003242  -0.006015  -0.002387  0.001717  3.960406  0.002
C  C125  1  0.89759826  0.24906981  0.68218820  1  1.596388  0.017242  0.226937  0.597652  0.017677  4.174427  0.015
C  C126  1  0.82370971  0.18245130  0.58101258  1  0.034317  0.006364  -0.083518  -0.182842  0.004929  3.959679  0.004
C  C127  1  0.60614808  0.00429979  0.68406104  1  1.598642  0.017789  0.227104  0.597312  0.018216  4.17324  0.016
N  N128  1  0.75012390  0.62511999  0.48080128  1  -1.288256  0.006045  -0.214314  -0.012176  0.003392  3.791146  0.003
N  N129  1  0.80571422  0.62347790  0.38196934  1  -0.710508  0.059128  -0.225619  -0.173611  0.034073  3.466132  0.007
N  N130  1  0.69617719  0.62305935  0.38019055  1  -0.697423  0.011175  -0.216479  -0.185379  0.007053  3.131529  0.009
N  N131  1  0.74986832  0.87488881  0.98081590  1  -1.288421  0.006047  -0.214057  -0.012079  0.003393  3.791249  0.003
N  N132  1  0.69428578  0.87652854  0.88199136  1  -0.710179  0.059069  -0.225682  -0.173563  0.034053  3.465976  0.007
N  N133  1  0.80381647  0.87695348  0.88020678  1  -0.697343  0.011172  -0.216479  -0.185643  0.007054  3.131446  0.008
N  N134  1  0.24988276  0.62510445  0.01918426  1  -1.288651  0.006047  -0.214159  -0.012218  0.003393  3.791798  0.003
N  N135  1  0.19427576  0.62346147  0.11801575  1  -0.710464  0.059103  -0.225748  -0.173789  0.034066  3.465358  0.007
N  N136  1  0.30381915  0.62303598  0.11979501  1  -0.696751  0.011172  -0.216514  -0.185695  0.007052  3.131057  0.009
N  N137  1  0.25012237  0.87488245  0.51919555  1  -1.288512  0.00605  -0.214271  -0.01216  0.003394  3.791199  0.003
N  N138  1  0.30570093  0.87652497  0.61802340  1  -0.70981  0.059095  -0.225785  -0.17377  0.034068  3.466804  0.007
N  N139  1  0.19616626  0.87694902  0.61980607  1  -0.697496  0.011181  -0.216546  -0.185533  0.007058  3.131565  0.009
N  N140  1  0.24988239  0.37488045  0.51918738  1  -1.288591  0.006049  -0.21413  -0.011976  0.003394  3.790977  0.003
N  N141  1  0.19428651  0.37653667  0.61801789  1  -0.710333  0.059122  -0.225788  -0.173831  0.034072  3.465976  0.007
N  N142  1  0.30382036  0.37695805  0.61979572  1  -0.697204  0.011173  -0.216539  -0.185617  0.007051  3.131838  0.009
N  N143  1  0.25012922  0.12511376  0.01920181  1  -1.288618  0.006047  -0.214081  -0.012289  0.003392  3.79098  0.003
N  N144  1  0.30571415  0.12347614  0.11801920  1  -0.710831  0.059131  -0.2257  -0.173819  0.034069  3.465929  0.007
N  N145  1  0.19617869  0.12305544  0.11980473  1  -0.697118  0.011177  -0.216593  -0.185526  0.007056  3.131216  0.009
N  N146  1  0.75012353  0.37489035  0.98080630  1  -1.288621  0.006047  -0.2143  -0.012267  0.003392  3.791458  0.003
N  N147  1  0.80572020  0.37653262  0.88197767  1  -0.710583  0.059126  -0.225734  -0.173881  0.034075  3.466088  0.007
N  N148  1  0.69618396  0.37695105  0.88019412  1  -0.696898  0.011178  -0.216466  -0.185511  0.007056  3.13103  0.009
N  N149  1  0.74986802  0.12511235  0.48080978  1  -1.288406  0.006047  -0.21407  -0.012  0.003393  3.790868  0.003
N  N150  1  0.69429661  0.12345994  0.38198383  1  -0.71033  0.059093  -0.225802  -0.173772  0.034068  3.466516  0.007
N  N151  1  0.80382493  0.12303872  0.38020163  1  -0.69732  0.011174  -0.216463  -0.185535  0.007052  3.13171  0.009
O  O152  1  0.62946454  0.77310221  0.73827743  1  -1.192024  0.080496  -0.304348  -0.552235  0.05507  2.320765  0.038
O  O153  1  0.51967136  0.77602886  0.65256028  1  -1.186002  0.068429  -0.31398  -0.563848  0.046425  2.286294  0.035
O  O154  1  0.86874153  0.48452234  0.74120722  1  -1.197723  0.078073  -0.304679  -0.549496  0.05283  2.313041  0.036
O  O155  1  0.97457363  0.47368520  0.65401815  1  -1.186106  0.071013  -0.313846  -0.565942  0.048603  2.295857  0.037
O  O156  1  0.87055898  0.72693381  0.23831411  1  -1.192148  0.080519  -0.304506  -0.552173  0.055091  2.32062  0.038
O  O157  1  0.98031364  0.72396005  0.15258882  1  -1.185066  0.068458  -0.314152  -0.563804  0.046432  2.286703  0.035
O  O158  1  0.63125186  0.01549197  0.24119994  1  -1.198038  0.078097  -0.304817  -0.549513  0.052838  2.313707  0.036
O  O159  1  0.52540511  0.02631522  0.15401892  1  -1.185947  0.070964  -0.313926  -0.566067  0.048596  2.295404  0.037
O  O160  1  0.37053637  0.77306803  0.76169972  1  -1.192506  0.080509  -0.304526  -0.552144  0.055068  2.320427  0.038
O  O161  1  0.48031761  0.77602993  0.84741826  1  -1.185303  0.068443  -0.314074  -0.563754  0.046417  2.286507  0.035
O  O162  1  0.13125493  0.48451627  0.75878878  1  -1.198508  0.078117  -0.304791  -0.549747  0.052832  2.313229  0.036
O  O163  1  0.02544515  0.47365682  0.84598128  1  -1.186318  0.070999  -0.313853  -0.566032  0.048607  2.295488  0.037
O  O164  1  0.12948278  0.72690932  0.26171668  1  -1.192241  0.080513  -0.304234  -0.551965  0.055069  2.320655  0.038
O  O165  1  0.01967408  0.72398606  0.34742915  1  -1.185372  0.068437  -0.314187  -0.563905  0.046438  2.28617  0.035
O  O166  1  0.36874054  0.01548752  0.25879552  1  -1.198136  0.078087  -0.304722  -0.549422  0.052814  2.313376  0.036
O  O167  1  0.47459278  0.02630505  0.34598548  1  -1.186379  0.070993  -0.313935  -0.565965  0.048598  2.295599  0.037
O  O168  1  0.37053539  0.22692650  0.26170266  1  -1.192266  0.080518  -0.304409  -0.551853  0.055065  2.320673  0.038
O  O169  1  0.48032460  0.22396382  0.34742742  1  -1.185502  0.068431  -0.313975  -0.563739  0.046421  2.2862  0.035
O  O170  1  0.13125363  0.51547669  0.25878668  1  -1.198397  0.078097  -0.304717  -0.549569  0.05283  2.313534  0.036
O  O171  1  0.02542868  0.52633220  0.34597718  1  -1.186389  0.071027  -0.313954  -0.566073  0.048617  2.295403  0.037
O  O172  1  0.12946083  0.27309701  0.76171216  1  -1.19241  0.080518  -0.304398  -0.552182  0.055079  2.320626  0.038
O  O173  1  0.01966881  0.27601426  0.84742127  1  -1.185444  0.068453  -0.314253  -0.56394  0.046428  2.286413  0.035
O  O174  1  0.36873933  0.98451060  0.75880158  1  -1.197771  0.078076  -0.304835  -0.549555  0.05282  2.313313  0.036
O  O175  1  0.47458131  0.97367604  0.84598545  1  -1.186377  0.070985  -0.313947  -0.566156  0.048606  2.295507  0.037
O  O176  1  0.62947071  0.22691618  0.23829989  1  -1.192541  0.080511  -0.304365  -0.551959  0.055065  2.320513  0.038
O  O177  1  0.51969107  0.22397193  0.15257420  1  -1.185205  0.068453  -0.314075  -0.563705  0.046429  2.286602  0.035
O  O178  1  0.86875295  0.51550184  0.24120416  1  -1.197869  0.078118  -0.304845  -0.549511  0.05284  2.31279  0.036
O  O179  1  0.97459849  0.52632174  0.15401928  1  -1.186482  0.070996  -0.313841  -0.566027  0.048606  2.295836  0.037
O  O180  1  0.87053941  0.27309819  0.73829721  1  -1.192331  0.080533  -0.304378  -0.552006  0.055085  2.320604  0.038
O  O181  1  0.98031313  0.27604265  0.65257522  1  -1.185294  0.068436  -0.314075  -0.563853  0.046432  2.286445  0.035
O  O182  1  0.63125541  0.98452211  0.74120695  1  -1.19794  0.078071  -0.304733  -0.549453  0.052822  2.313652  0.036
O  O183  1  0.52541350  0.97367915  0.65402270  1  -1.186208  0.070973  -0.313866  -0.566091  0.048605  2.295503  0.037
