# generated using pymatgen
data_NiH17C21N2ClO5
_symmetry_space_group_name_H-M   'P 1'
_cell_length_a   8.42334056
_cell_length_b   10.06041653
_cell_length_c   15.50313100
_cell_angle_alpha   101.28125008
_cell_angle_beta   102.87488655
_cell_angle_gamma   104.25463365
_symmetry_Int_Tables_number   1
_chemical_formula_structural   NiH17C21N2ClO5
_chemical_formula_sum   'Ni2 H34 C42 N4 Cl2 O10'
_cell_volume   1196.89124270
_cell_formula_units_Z   2
loop_
 _symmetry_equiv_pos_site_id
 _symmetry_equiv_pos_as_xyz
  1  'x, y, z'
loop_
 _atom_site_type_symbol
 _atom_site_label
 _atom_site_symmetry_multiplicity
 _atom_site_fract_x
 _atom_site_fract_y
 _atom_site_fract_z
 _atom_site_occupancy
 _atom_site_hle17_ddec_charge
 _atom_site_hle17_ddec_spin_density
 _atom_site_hle17_ddec_sum_bond_order
 _atom_site_hle17_magmom
 _atom_site_hse06_10hf_bader_charge
 _atom_site_hse06_10hf_bader_spin_density
 _atom_site_hse06_10hf_ddec_charge
 _atom_site_hse06_10hf_ddec_spin_density
 _atom_site_hse06_10hf_ddec_sum_bond_order
 _atom_site_hse06_10hf_magmom
 _atom_site_hse06_ddec_charge
 _atom_site_hse06_ddec_spin_density
 _atom_site_hse06_ddec_sum_bond_order
 _atom_site_hse06_magmom
 _atom_site_pbe_cm5_charge
 _atom_site_pbe_ddec_charge
 _atom_site_pbe_ddec_spin_density
 _atom_site_pbe_ddec_sum_bond_order
 _atom_site_pbe_magmom
Ni  Ni0  1  0.52374240  0.50842727  0.68079314  1  0.837172  -1.872031  2.044245  -1.467  1.20044  -1.601548  0.864212  -1.84477  2.435942  -1.583  0.960421  -1.916769  2.348991  -1.691  0.587145  0.803255  -1.66951  2.489015  -1.396
Ni  Ni1  1  0.47626102  0.49157392  0.31920942  1  0.837002  1.871948  2.044296  1.467  1.200235  1.601581  0.864139  1.844791  2.435962  1.583  0.960356  1.916776  2.349006  1.691  0.587138  0.803206  1.669395  2.488947  1.396
H  H2  1  0.70615232  0.74944529  0.76860074  1  0.408645  0.000443  0.910379  0.001  0.65687  0.000349  0.375536  6.3e-05  0.978979  0.0  0.389333  0.000144  0.959412  0.0  0.269637  0.365033  -4e-05  0.993347  0.0
H  H3  1  0.29384354  0.25055560  0.23142924  1  0.408429  -0.000443  0.910664  -0.001  0.656624  -0.00035  0.3754  -6.4e-05  0.979166  0.0  0.389212  -0.000144  0.959582  0.0  0.269558  0.364886  3.9e-05  0.993543  0.0
H  H4  1  0.64674859  0.69259956  0.84742539  1  0.375365  0.000193  0.883424  0.001  0.557543  -0.000452  0.358496  -0.000486  0.947387  0.0  0.364982  -0.000247  0.941245  0.0  0.293528  0.358029  -0.000675  0.945133  0.0
H  H5  1  0.35317944  0.30737130  0.15257691  1  0.375364  -0.000193  0.883364  -0.001  0.557955  0.000452  0.358542  0.000485  0.947254  0.0  0.365028  0.000247  0.941109  0.0  0.293452  0.358047  0.000672  0.945016  0.0
H  H6  1  0.57396888  0.07004423  0.68778984  1  0.096267  -0.000306  0.982953  0.0  0.090563  -0.000398  0.100613  -0.000272  1.05655  0.0  0.103141  -0.000184  1.055384  0.0  0.09825  0.101555  -0.000351  1.053991  0.0
H  H7  1  0.42605708  0.92999638  0.31221930  1  0.09633  0.000316  0.982823  0.0  0.090513  0.000398  0.100591  0.000272  1.056563  0.0  0.10312  0.000184  1.055393  0.0  0.098189  0.101526  0.000351  1.054002  0.0
H  H8  1  0.23453976  0.67729489  0.50106178  1  0.123299  -0.000129  0.956041  0.0  0.146813  8.3e-05  0.130209  7.5e-05  1.022483  0.0  0.135717  4.3e-05  1.017322  0.0  0.103472  0.125485  8.4e-05  1.025945  0.0
H  H9  1  0.76554118  0.32271207  0.49895746  1  0.123369  0.000124  0.955966  0.0  0.147071  -8.2e-05  0.130191  -7.5e-05  1.022499  0.0  0.135683  -4.3e-05  1.017344  0.0  0.103455  0.125464  -8.4e-05  1.025958  0.0
H  H10  1  0.16814206  0.08099322  0.46863399  1  0.110355  -0.000447  0.936536  0.0  0.093056  -0.000425  0.120981  -0.000307  0.997935  0.0  0.124869  -0.000189  0.995159  0.0  0.109123  0.118286  -0.000462  0.999179  0.0
H  H11  1  0.83186688  0.91898576  0.53136185  1  0.110383  0.000446  0.93639  0.0  0.093777  0.000424  0.121036  0.000307  0.997775  0.0  0.124926  0.000189  0.994994  0.0  0.109129  0.118328  0.000464  0.999035  0.0
H  H12  1  0.93614773  0.85695769  0.39056255  1  0.088289  3.1e-05  0.939035  0.0  0.072869  2.7e-05  0.099805  1.2e-05  1.006822  0.0  0.101088  3e-06  1.00653  0.0  0.114541  0.097786  5.9e-05  1.007536  0.0
H  H13  1  0.06388567  0.14301496  0.60945159  1  0.088301  -4.7e-05  0.93883  0.0  0.072529  -2.7e-05  0.099872  -1.2e-05  1.006503  0.0  0.101157  -3e-06  1.006209  0.0  0.114573  0.097853  -5.6e-05  1.007225  0.0
H  H14  1  0.95449179  0.69143136  0.40612167  1  0.124966  -6.2e-05  0.895666  0.0  0.129586  2.9e-05  0.141183  -2.5e-05  0.947256  0.0  0.144165  -4.4e-05  0.944957  0.0  0.130913  0.137028  -3.5e-05  0.950502  0.0
H  H15  1  0.04555577  0.30854674  0.59388782  1  0.124981  3.2e-05  0.895776  0.0  0.129472  -2.9e-05  0.141185  2.5e-05  0.947321  0.0  0.144165  4.4e-05  0.945027  0.0  0.13091  0.137042  3.7e-05  0.950573  0.0
H  H16  1  0.07034038  0.55697935  0.31604846  1  0.109229  1.8e-05  0.978739  0.0  0.207586  0.000328  0.115602  0.000253  1.044961  0.0  0.121052  0.000173  1.040003  0.0  0.11669  0.109686  0.000308  1.049372  0.0
H  H17  1  0.92963638  0.44298782  0.68393482  1  0.109218  -2.2e-05  0.978872  0.0  0.207327  -0.000328  0.11566  -0.000253  1.045042  0.0  0.121111  -0.000173  1.040084  0.0  0.116677  0.109725  -0.000308  1.049497  0.0
H  H18  1  0.13377083  0.49547823  0.17019292  1  0.130867  -0.000447  0.936605  0.0  0.124007  -0.000155  0.139166  -0.000185  0.996552  0.0  0.142516  -0.000163  0.995135  0.0  0.11581  0.13553  -0.000173  0.999112  0.0
H  H19  1  0.86617016  0.50449091  0.82977526  1  0.130875  0.000444  0.936787  0.0  0.124553  0.000155  0.139126  0.000185  0.996752  0.0  0.142479  0.000163  0.995331  0.0  0.115737  0.135491  0.000174  0.999326  0.0
H  H20  1  0.13897324  0.91904414  0.14381970  1  0.118697  -0.000127  0.926878  0.0  0.093797  0.000128  0.131182  8.8e-05  0.979022  0.0  0.134998  5.2e-05  0.97724  0.0  0.114408  0.127459  0.000129  0.98164  0.0
H  H21  1  0.86106630  0.08097314  0.85619775  1  0.118616  0.000129  0.927126  0.0  0.093557  -0.000128  0.131104  -8.8e-05  0.979244  0.0  0.134915  -5.2e-05  0.977471  0.0  0.114378  0.127389  -0.000134  0.981865  0.0
H  H22  1  0.07306820  0.96459747  0.29247283  1  0.118683  2.4e-05  0.909298  0.0  0.152337  -5e-06  0.131605  -4e-06  0.9618  0.0  0.136009  -3e-06  0.957285  0.0  0.139715  0.125676  -7e-06  0.968608  0.0
H  H23  1  0.92701745  0.03541260  0.70755901  1  0.118652  -2.8e-05  0.909124  0.0  0.152662  5e-06  0.131573  4e-06  0.96167  0.0  0.135972  3e-06  0.957156  0.0  0.13967  0.125657  9e-06  0.968479  0.0
H  H24  1  0.18757099  0.76366844  0.02195879  1  0.089148  -0.000586  0.945983  -0.001  0.052472  -0.000109  0.103188  -7e-05  0.99983  0.0  0.106913  -4.9e-05  0.996173  0.0  0.102281  0.098491  -0.000128  1.006714  0.0
H  H25  1  0.81242769  0.23635713  0.97804635  1  0.08915  0.000583  0.945898  0.001  0.052667  0.000109  0.103144  7e-05  0.999805  0.0  0.106864  4.9e-05  0.996154  0.0  0.102264  0.098446  0.000124  1.006693  0.0
H  H26  1  0.23071490  0.47949241  0.05319556  1  0.100436  0.000187  0.940296  0.001  0.084248  7e-06  0.113782  -2.3e-05  0.998866  0.0  0.117459  -1.8e-05  0.99653  0.0  0.105805  0.108822  1.4e-05  1.004944  0.0
H  H27  1  0.76923365  0.52051176  0.94678197  1  0.100548  -0.000193  0.940352  -0.001  0.083866  -7e-06  0.113849  2.3e-05  0.998962  0.0  0.117528  1.8e-05  0.996625  0.0  0.105845  0.108884  -1.4e-05  1.005049  0.0
H  H28  1  0.34201852  0.35010312  0.94586757  1  0.100212  -1.1e-05  0.942809  0.0  0.078441  -0.000729  0.113906  -0.000328  0.996233  0.0  0.117451  -0.000223  0.995329  0.0  0.104457  0.111507  -0.000397  0.997265  0.0
H  H29  1  0.65793250  0.64989783  0.05411629  1  0.100118  2e-05  0.94304  0.0  0.07811  0.00073  0.113889  0.000328  0.996369  0.0  0.117431  0.000223  0.995472  0.0  0.10447  0.111483  0.000393  0.997401  0.0
H  H30  1  0.42890489  0.31801963  0.80121918  1  0.096499  -0.000577  0.949439  -0.002  0.133695  -0.001017  0.105701  -0.000316  1.007686  -0.001  0.110021  -0.0002  1.004188  -0.001  0.11853  0.101643  -0.000466  1.011124  -0.001
H  H31  1  0.57102995  0.68196317  0.19875970  1  0.09645  0.000586  0.949256  0.002  0.133041  0.001018  0.105566  0.000316  1.007669  0.001  0.109867  0.0002  1.004187  0.001  0.118471  0.1015  0.000465  1.011089  0.001
H  H32  1  0.29902081  0.66881211  0.74554702  1  0.103052  -0.000587  0.94246  -0.001  0.137097  -0.001073  0.112498  -0.000393  0.998086  -0.001  0.11716  -0.000263  0.993816  -0.001  0.124548  0.107035  -0.000524  1.003537  -0.001
H  H33  1  0.70092723  0.33116661  0.25442521  1  0.103015  0.000583  0.942693  0.001  0.136284  0.001073  0.112445  0.000393  0.998336  0.001  0.117103  0.000263  0.994082  0.001  0.124544  0.106977  0.000523  1.003765  0.001
H  H34  1  0.21368737  0.72085109  0.88818147  1  0.107508  -7e-06  0.93858  0.0  0.07519  -0.000702  0.122939  -0.000325  0.987946  0.0  0.126985  -0.000217  0.985848  0.0  0.110082  0.119548  -0.000407  0.99081  0.0
H  H35  1  0.78626597  0.27914254  0.11179141  1  0.107496  -7e-06  0.938514  0.0  0.075508  0.000701  0.122857  0.000325  0.98797  0.0  0.126904  0.000217  0.985875  0.0  0.110073  0.119469  0.000402  0.990818  0.0
C  C36  1  0.42949921  0.24870478  0.61651504  1  0.590564  0.00912  3.912498  0.015  1.556813  0.004139  0.548209  0.001838  4.214739  0.006  0.584353  0.001725  4.21658  0.005  0.188744  0.522236  0.001547  4.207524  0.007
C  C37  1  0.57051052  0.75130716  0.38347872  1  0.590639  -0.009102  3.912454  -0.015  1.556805  -0.004139  0.548315  -0.001838  4.214649  -0.006  0.584463  -0.001725  4.216479  -0.005  0.188683  0.52233  -0.001539  4.207413  -0.007
C  C38  1  0.37702234  0.09101848  0.58098272  1  -0.061294  -0.006841  3.790317  -0.008  0.042073  -0.004644  -0.032359  -0.002945  4.021476  -0.003  -0.041041  -0.002117  4.044088  -0.002  -0.021228  -0.027383  -0.003356  4.005875  -0.004
C  C39  1  0.62299880  0.90899137  0.41901732  1  -0.061341  0.006827  3.789956  0.008  0.041278  0.004648  -0.032408  0.002947  4.021101  0.003  -0.041095  0.002119  4.043708  0.002  -0.021261  -0.027441  0.003355  4.005501  0.004
C  C40  1  0.46581414  0.01366110  0.62760614  1  -0.071372  0.001117  3.713776  0.001  -0.062846  -0.002286  -0.111009  -0.001451  3.964092  -0.002  -0.109195  -0.000597  3.985929  -0.001  -0.080746  -0.111373  -0.001296  3.946263  -0.002
C  C41  1  0.53421376  0.98636784  0.37240302  1  -0.071582  -0.001139  3.71342  -0.001  -0.061947  0.002282  -0.111168  0.001449  3.963745  0.002  -0.109358  0.000596  3.985583  0.001  -0.080761  -0.111522  0.001297  3.945903  0.002
C  C42  1  0.41480449  0.86540897  0.59891486  1  -0.055715  -0.009081  3.74933  -0.011  -0.072362  -0.006166  -0.029303  -0.0037  3.981681  -0.005  -0.040032  -0.00285  4.005375  -0.004  -0.015636  -0.022958  -0.00375  3.9666  -0.005
C  C43  1  0.58525359  0.13461588  0.40110326  1  -0.055119  0.009061  3.748815  0.011  -0.072057  0.00617  -0.028687  0.003701  3.980986  0.005  -0.039409  0.00285  4.004676  0.004  -0.015411  -0.022338  0.003746  3.96589  0.005
C  C44  1  0.27232845  0.79337144  0.52281021  1  -0.074876  0.004873  3.635381  0.005  0.01496  0.001993  -0.110092  0.001029  3.877937  0.001  -0.105629  0.000835  3.892881  0.001  -0.069369  -0.112183  0.000957  3.867915  0.001
C  C45  1  0.72772724  0.20663641  0.47720542  1  -0.075403  -0.004822  3.634985  -0.005  0.014369  -0.001994  -0.110526  -0.00103  3.877746  -0.001  -0.106028  -0.000835  3.892638  -0.001  -0.069437  -0.112619  -0.000955  3.867729  -0.001
C  C46  1  0.18236606  0.86996043  0.47567681  1  0.05199  -0.002432  3.747515  -0.003  0.006014  -0.00045  0.074576  -0.000207  3.996354  0.0  0.069157  -0.000336  4.022231  -0.001  -0.015761  0.079002  -0.000308  3.976809  -0.001
C  C47  1  0.81768118  0.13003044  0.52433042  1  0.052193  0.002382  3.747179  0.003  0.004288  0.000451  0.074544  0.000207  3.996281  0.0  0.069132  0.000336  4.022151  0.001  -0.01594  0.078956  0.000314  3.976756  0.001
C  C48  1  0.23579857  0.01879072  0.50429842  1  -0.109622  0.004567  3.697122  0.005  -0.113369  0.00127  -0.145707  0.000611  3.949274  0.001  -0.143546  0.00058  3.968147  0.001  -0.078452  -0.144428  -0.000519  3.933439  0.0
C  C49  1  0.76422502  0.98120212  0.49570552  1  -0.109691  -0.004538  3.696759  -0.005  -0.112838  -0.001272  -0.145732  -0.000611  3.948972  -0.001  -0.143569  -0.000579  3.967835  -0.001  -0.078434  -0.144459  0.000525  3.933162  0.0
C  C50  1  0.50741791  0.78432860  0.65292378  1  0.643369  0.004501  3.883295  0.008  1.640102  0.001774  0.599605  0.000437  4.177559  0.002  0.638005  0.000464  4.170958  0.002  0.211986  0.572271  0.00019  4.179  0.002
C  C51  1  0.49262827  0.21569716  0.34710139  1  0.643198  -0.004516  3.883324  -0.008  1.640658  -0.001778  0.599555  -0.000438  4.177496  -0.002  0.637948  -0.000465  4.170901  -0.002  0.211957  0.572204  -0.000185  4.178923  -0.002
C  C52  1  0.02363329  0.79244300  0.39652398  1  -0.057981  -6.8e-05  3.604087  0.0  0.262435  8.4e-05  -0.127947  6.1e-05  3.857179  0.0  -0.123621  1e-06  3.86574  0.0  -0.043617  -0.129952  0.000106  3.853631  0.0
C  C53  1  0.97640760  0.20754036  0.60348601  1  -0.05828  0.000166  3.60397  0.0  0.262712  -8.4e-05  -0.128082  -6.1e-05  3.856916  0.0  -0.123761  -1e-06  3.865472  0.0  -0.043648  -0.130087  -0.000105  3.853382  0.0
C  C54  1  0.07730999  0.63107086  0.27309377  1  0.116033  -0.002816  3.573434  -0.003  0.372096  -0.000769  0.071494  -0.000506  3.823091  0.0  0.083841  -0.000366  3.830984  0.0  0.066113  0.057685  -0.000575  3.82885  0.0
C  C55  1  0.92267907  0.36890697  0.72689562  1  0.1162  0.002825  3.573472  0.003  0.371761  0.000768  0.071507  0.000505  3.823178  0.0  0.083853  0.000366  3.831073  0.0  0.066268  0.057714  0.000584  3.828966  0.0
C  C56  1  0.11578339  0.59932804  0.19116276  1  -0.105658  0.008064  3.636874  0.009  0.083185  0.001024  -0.122816  0.000483  3.887693  0.001  -0.128727  0.000539  3.903943  0.001  -0.064218  -0.123607  -0.00117  3.884957  -0.001
C  C57  1  0.88418870  0.40066029  0.80882591  1  -0.105871  -0.008065  3.637155  -0.009  0.082873  -0.001026  -0.122806  -0.000484  3.88774  -0.001  -0.128721  -0.000539  3.904001  -0.001  -0.064166  -0.123589  0.001192  3.885009  0.001
C  C58  1  0.13801471  0.70080232  0.14050008  1  0.1431  -0.00383  3.781778  -0.006  0.053352  -0.001257  0.151  -0.000683  4.020098  -0.001  0.157196  -0.0005  4.038381  -0.001  0.013126  0.146788  -0.00134  4.013082  -0.001
C  C59  1  0.86198276  0.29919573  0.85949231  1  0.143154  0.003842  3.782024  0.006  0.053408  0.001255  0.150941  0.000682  4.02036  0.001  0.157132  0.0005  4.038649  0.001  0.013168  0.146739  0.001363  4.013336  0.001
C  C60  1  0.11828590  0.83377308  0.17766078  1  -0.144967  0.005357  3.696929  0.006  -0.003997  0.001009  -0.165442  0.000575  3.953565  0.001  -0.17179  0.000557  3.969388  0.001  -0.074223  -0.164611  -0.000234  3.951113  0.0
C  C61  1  0.88174529  0.16623780  0.82235224  1  -0.144953  -0.00538  3.697553  -0.006  -0.003676  -0.00101  -0.165379  -0.000576  3.954178  -0.001  -0.17173  -0.000557  3.970005  -0.001  -0.074264  -0.164552  0.000246  3.951745  0.0
C  C62  1  0.08128775  0.86135632  0.26014693  1  0.095754  -0.00271  3.614317  -0.003  0.458705  -0.000881  0.051029  -0.000514  3.86969  -0.001  0.06201  -0.000356  3.879172  0.0  0.060879  0.037865  -0.001174  3.876091  -0.001
C  C63  1  0.91875906  0.13864719  0.73987220  1  0.095952  0.002736  3.614356  0.003  0.458287  0.00088  0.051198  0.000513  3.869786  0.001  0.06219  0.000356  3.879253  0.0  0.061163  0.038058  0.001184  3.876119  0.001
C  C64  1  0.18501453  0.67796140  0.05591001  1  -0.102812  0.022046  3.71372  0.023  -0.030351  0.004781  -0.116601  0.002696  3.959677  0.003  -0.113732  0.002346  3.972348  0.003  -0.08578  -0.127876  -0.000629  3.966736  0.0
C  C65  1  0.81496644  0.32204503  0.94408144  1  -0.102643  -0.022014  3.713756  -0.023  -0.030499  -0.004788  -0.116412  -0.0027  3.959727  -0.003  -0.11354  -0.002345  3.972405  -0.003  -0.085699  -0.127681  0.000669  3.96676  0.0
C  C66  1  0.22887618  0.56351442  0.01804662  1  -0.088409  -0.013441  3.718155  -0.015  -0.039967  -0.003479  -0.114738  -0.00195  3.975766  -0.002  -0.117361  -0.001721  3.992378  -0.002  -0.082955  -0.120968  -0.003076  3.978715  -0.003
C  C67  1  0.77108780  0.43649201  0.98192921  1  -0.088633  0.013442  3.718168  0.015  -0.03786  0.003476  -0.114933  0.001948  3.975659  0.002  -0.117564  0.00172  3.992273  0.002  -0.083063  -0.121143  0.00312  3.978588  0.003
C  C68  1  0.27596470  0.54240723  0.93335539  1  0.109358  0.018389  3.850177  0.021  -0.036788  0.005821  0.125643  0.003286  4.08577  0.004  0.13392  0.002669  4.106733  0.003  -0.006226  0.121439  0.00104  4.072047  0.001
C  C69  1  0.72399205  0.45759269  0.06662904  1  0.109038  -0.018376  3.850402  -0.021  -0.038719  -0.005827  0.125445  -0.00329  4.085818  -0.004  0.133729  -0.002669  4.106764  -0.003  -0.006347  0.121252  -0.001023  4.072027  -0.001
C  C70  1  0.33307125  0.42541528  0.90444493  1  -0.172584  -0.01409  3.740188  -0.016  -0.06141  -0.004942  -0.191779  -0.002828  3.991398  -0.004  -0.201065  -0.002738  4.010603  -0.003  -0.08984  -0.185988  -0.003063  3.980764  -0.004
C  C71  1  0.66687480  0.57457506  0.09553308  1  -0.172232  0.014053  3.740064  0.016  -0.06182  0.004941  -0.191523  0.002828  3.991234  0.004  -0.200822  0.002737  4.010451  0.003  -0.08974  -0.185721  0.003073  3.980564  0.004
C  C72  1  0.37977620  0.40538262  0.82364684  1  0.112358  0.016324  3.699676  0.018  0.489589  0.00481  0.08592  0.002458  3.957361  0.003  0.097233  0.002339  3.969522  0.003  0.034871  0.075108  0.000838  3.957732  0.002
C  C73  1  0.62016778  0.59460875  0.17633233  1  0.112364  -0.016326  3.698898  -0.018  0.490627  -0.004813  0.085845  -0.002461  3.956759  -0.003  0.0972  -0.002339  3.968859  -0.003  0.034858  0.075034  -0.000833  3.957074  -0.002
C  C74  1  0.31053066  0.60364962  0.79365094  1  0.104429  0.014306  3.718162  0.016  0.444786  0.004412  0.080282  0.002304  3.972589  0.003  0.09145  0.002343  3.983243  0.003  0.036656  0.068223  0.001375  3.977543  0.002
C  C75  1  0.68940542  0.39633322  0.20632487  1  0.104338  -0.014289  3.718363  -0.016  0.44576  -0.00442  0.080139  -0.002308  3.972758  -0.003  0.091296  -0.002345  3.983427  -0.003  0.036519  0.068055  -0.00138  3.977711  -0.002
C  C76  1  0.26474688  0.63199464  0.87403041  1  -0.171766  -0.014002  3.729233  -0.016  -0.002725  -0.004777  -0.187963  -0.00275  3.969203  -0.003  -0.196227  -0.002667  3.986599  -0.003  -0.088457  -0.184629  -0.00317  3.962426  -0.004
C  C77  1  0.73520832  0.36800427  0.12594724  1  -0.1715  0.014026  3.729375  0.016  -0.002532  0.004777  -0.18768  0.002749  3.969275  0.003  -0.195947  0.002666  3.98668  0.003  -0.088317  -0.184341  0.003178  3.962456  0.004
N  N78  1  0.37105027  0.49343937  0.76823282  1  -0.290709  -0.044755  3.271201  -0.064  -1.243689  -0.049007  -0.248554  -0.031038  3.558164  -0.045  -0.269948  -0.025874  3.568935  -0.039  -0.332663  -0.240465  -0.035378  3.559088  -0.05
N  N79  1  0.62890425  0.50655421  0.23174599  1  -0.290724  0.044736  3.270691  0.064  -1.243672  0.048996  -0.248344  0.031031  3.557442  0.045  -0.269743  0.02587  3.568224  0.039  -0.332563  -0.24022  0.035379  3.558287  0.05
N  N80  1  0.05979337  0.75994964  0.30652036  1  -0.002149  0.0048  3.513944  0.007  -1.258456  0.000281  0.094844  0.000206  3.726015  0.0  0.08382  0.000374  3.748126  0.001  -0.208883  0.095567  -0.001231  3.719063  -0.002
N  N81  1  0.94023786  0.24004424  0.69349175  1  -0.002012  -0.004802  3.514015  -0.007  -1.258097  -0.000285  0.094884  -0.000208  3.726242  0.0  0.083856  -0.000373  3.748349  -0.001  -0.209026  0.095616  0.001271  3.719304  0.002
Cl  Cl82  1  0.73790753  0.55153095  0.61187430  1  -0.520789  -0.112644  0.860192  -0.14  -0.642682  -0.095359  -0.536468  -0.057008  1.098485  -0.071  -0.581497  -0.041083  1.079909  -0.052  -0.316339  -0.484371  -0.059837  1.102013  -0.073
Cl  Cl83  1  0.26211997  0.44849362  0.38814778  1  -0.520732  0.112643  0.860216  0.14  -0.642666  0.09536  -0.536439  0.057007  1.098536  0.071  -0.581463  0.041081  1.079974  0.052  -0.31636  -0.484384  0.059767  1.102047  0.073
O  O84  1  0.55330044  0.30940593  0.69061369  1  -0.619059  -0.057038  2.057443  -0.083  -1.181589  -0.059139  -0.591293  -0.035328  2.322606  -0.056  -0.639274  -0.027085  2.324848  -0.044  -0.311061  -0.540441  -0.039848  2.307981  -0.061
O  O85  1  0.44670028  0.69060480  0.30938977  1  -0.619049  0.057024  2.057423  0.083  -1.181672  0.059138  -0.591269  0.035327  2.322544  0.056  -0.639241  0.027083  2.32479  0.044  -0.311065  -0.540408  0.039815  2.307889  0.061
O  O86  1  0.35182113  0.32341634  0.57694189  1  -0.524967  -0.081976  1.955737  -0.119  -1.140609  -0.082546  -0.510487  -0.048203  2.207574  -0.077  -0.552564  -0.032305  2.205098  -0.053  -0.284235  -0.476378  -0.066029  2.206237  -0.101
O  O87  1  0.64818106  0.67658811  0.42305127  1  -0.525008  0.081998  1.955727  0.119  -1.140448  0.082559  -0.510559  0.04821  2.207551  0.077  -0.552639  0.032309  2.205087  0.053  -0.284218  -0.476462  0.066041  2.206183  0.101
O  O88  1  0.64999841  0.85139730  0.71277196  1  -0.643741  0.001425  1.978047  0.001  -1.223808  0.001048  -0.593201  0.000874  2.196181  0.001  -0.622192  0.000915  2.187068  0.001  -0.325786  -0.566667  0.000672  2.198998  0.0
O  O89  1  0.35003199  0.14863565  0.28726640  1  -0.643629  -0.001417  1.978635  -0.001  -1.223415  -0.001048  -0.59312  -0.000874  2.196641  -0.001  -0.622117  -0.000915  2.18753  -0.001  -0.325746  -0.566584  -0.000673  2.199446  0.0
O  O90  1  0.42836760  0.65192609  0.63599382  1  -0.576564  -0.062371  2.12964  -0.092  -1.168941  -0.062076  -0.548415  -0.037095  2.399467  -0.059  -0.591014  -0.028783  2.389642  -0.047  -0.299196  -0.510888  -0.038023  2.401282  -0.059
O  O91  1  0.57166861  0.34809544  0.36401926  1  -0.576452  0.062383  2.129263  0.093  -1.169378  0.062085  -0.548422  0.0371  2.399122  0.059  -0.591026  0.028785  2.389339  0.047  -0.299154  -0.510904  0.037994  2.400934  0.059
O  O92  1  0.71372465  0.67417942  0.80520324  1  -0.810614  -0.032387  1.899829  -0.045  -1.22716  -0.043973  -0.779027  -0.026569  2.087686  -0.037  -0.80681  -0.020497  2.05976  -0.03  -0.576609  -0.752852  -0.034223  2.097786  -0.047
O  O93  1  0.28623669  0.32580645  0.19481347  1  -0.810514  0.032384  1.899813  0.045  -1.22725  0.043971  -0.77906  0.026568  2.087427  0.037  -0.806848  0.020496  2.059478  0.03  -0.576563  -0.752897  0.034215  2.097522  0.047
