# generated using pymatgen
data_CuP2H18C20(NO3)2
_symmetry_space_group_name_H-M   'P 1'
_cell_length_a   9.91670081
_cell_length_b   10.58181912
_cell_length_c   11.15745196
_cell_angle_alpha   69.85006104
_cell_angle_beta   71.28251284
_cell_angle_gamma   91.43030200
_symmetry_Int_Tables_number   1
_chemical_formula_structural   CuP2H18C20(NO3)2
_chemical_formula_sum   'Cu2 P4 H36 C40 N4 O12'
_cell_volume   1028.87288649
_cell_formula_units_Z   2
loop_
 _symmetry_equiv_pos_site_id
 _symmetry_equiv_pos_as_xyz
  1  'x, y, z'
loop_
 _atom_site_type_symbol
 _atom_site_label
 _atom_site_symmetry_multiplicity
 _atom_site_fract_x
 _atom_site_fract_y
 _atom_site_fract_z
 _atom_site_occupancy
 _atom_site_hle17_ddec_charge
 _atom_site_hle17_ddec_spin_density
 _atom_site_hle17_ddec_sum_bond_order
 _atom_site_hle17_magmom
 _atom_site_hse06_10hf_ddec_charge
 _atom_site_hse06_10hf_ddec_spin_density
 _atom_site_hse06_10hf_ddec_sum_bond_order
 _atom_site_hse06_10hf_magmom
 _atom_site_hse06_ddec_charge
 _atom_site_hse06_ddec_spin_density
 _atom_site_hse06_ddec_sum_bond_order
 _atom_site_hse06_magmom
 _atom_site_pbe_cm5_charge
 _atom_site_pbe_ddec_charge
 _atom_site_pbe_ddec_spin_density
 _atom_site_pbe_ddec_sum_bond_order
 _atom_site_pbe_magmom
Cu  Cu0  1  0.36721942  0.76805354  0.04436631  1  0.95343  -0.749449  1.793431  -0.537  0.934145  -0.824144  2.184787  -0.651  1.014631  -0.896509  2.122677  -0.733  0.774124  0.880556  -0.765202  2.231494  -0.59
Cu  Cu1  1  0.63276877  0.23193468  0.95564476  1  0.953182  0.749435  1.793652  0.537  0.934052  0.824149  2.184921  0.651  1.014457  0.896499  2.122926  0.733  0.774127  0.880413  0.7652  2.231652  0.59
P  P2  1  0.50649741  0.93009441  0.17527204  1  1.501074  0.000734  4.75353  0.001  1.364882  0.000266  5.253861  0.0  1.418773  1.4e-05  5.21676  0.0  0.353811  1.326834  0.000456  5.278956  0.0
P  P3  1  0.49350936  0.06989219  0.82472878  1  1.501248  -0.000733  4.753257  -0.001  1.365011  -0.000256  5.253623  0.0  1.418899  -1.2e-05  5.216529  0.0  0.353873  1.326968  -0.000458  5.278726  0.0
P  P4  1  0.07028491  0.68922314  0.35206443  1  1.49687  9.3e-05  4.787646  0.0  1.348349  0.000117  5.298153  0.0  1.396638  0.000103  5.258942  0.0  0.347934  1.314928  9.6e-05  5.32378  0.0
P  P5  1  0.92972556  0.31079201  0.64792690  1  1.496832  -9.6e-05  4.787602  0.0  1.348352  -0.000101  5.298078  0.0  1.396631  -0.000107  5.258867  0.0  0.347928  1.31493  -9.6e-05  5.323706  0.0
H  H6  1  0.27145762  0.89746029  0.22618410  1  0.437794  1.9e-05  0.873109  0.0  0.402279  1.3e-05  0.944011  0.0  0.414013  1.6e-05  0.92748  0.0  0.302101  0.394096  -1e-06  0.955475  0.0
H  H7  1  0.72854801  0.10253296  0.77383005  1  0.437761  -1.9e-05  0.87312  0.0  0.402193  -1.2e-05  0.944113  0.0  0.413927  -1.7e-05  0.927581  0.0  0.302003  0.394007  1e-06  0.955579  0.0
H  H8  1  0.08906707  0.55246501  0.54512496  1  0.429542  4e-06  0.880985  0.0  0.397947  3e-06  0.945541  0.0  0.409841  1e-06  0.928585  0.0  0.292493  0.389604  1e-06  0.957379  0.0
H  H9  1  0.91095524  0.44754624  0.45485831  1  0.42953  -4e-06  0.880956  0.0  0.397933  -1e-06  0.945531  0.0  0.409825  -3e-06  0.928579  0.0  0.29249  0.389592  -1e-06  0.957368  0.0
H  H10  1  0.49060615  0.60026366  0.26957505  1  0.090944  -0.001511  0.937329  -0.003  0.10137  -0.001191  0.996167  -0.002  0.103106  -0.000817  0.994114  -0.001  0.124727  0.0998  -0.0014  0.997497  -0.002
H  H11  1  0.50936655  0.39970374  0.73044682  1  0.090832  0.00151  0.937223  0.003  0.101187  0.001192  0.99619  0.002  0.102905  0.000818  0.994123  0.001  0.124728  0.09963  0.001401  0.997509  0.002
H  H12  1  0.50556418  0.35033823  0.37390800  1  0.110157  -0.000665  0.946846  0.0  0.123295  -0.000704  0.999651  0.0  0.125428  -0.0005  1.000946  0.0  0.110844  0.121267  -0.00069  0.999609  -0.001
H  H13  1  0.49441926  0.64962904  0.62609856  1  0.110335  0.000666  0.946825  0.0  0.123409  0.000704  0.999704  0.0  0.12553  0.0005  1.000998  0.0  0.110871  0.121381  0.00069  0.999663  0.001
H  H14  1  0.40502434  0.18524542  0.29707543  1  0.120299  -0.000387  0.935348  -0.001  0.130011  -5.9e-05  0.996633  0.0  0.13214  -3.2e-05  0.996489  0.0  0.117256  0.128166  -0.000121  0.996949  0.0
H  H15  1  0.59495879  0.81473314  0.70290570  1  0.120153  0.000388  0.935445  0.001  0.129961  5.9e-05  0.99664  0.0  0.132089  3.2e-05  0.996497  0.0  0.117252  0.128119  0.000121  0.996963  0.0
H  H16  1  0.28292142  0.15109416  0.13814631  1  0.12999  -0.000381  0.977606  -0.001  0.138501  -0.000247  1.035485  0.0  0.141803  -0.000158  1.033967  0.0  0.113551  0.136027  -0.000395  1.036698  0.0
H  H17  1  0.71706179  0.84890025  0.86184542  1  0.130132  0.00038  0.977568  0.001  0.138635  0.000247  1.035488  0.0  0.141938  0.000159  1.033972  0.0  0.113585  0.136152  0.000395  1.03671  0.0
H  H18  1  0.16889821  0.24808311  0.96582913  1  0.109377  -0.000501  0.918354  -0.001  0.126083  -0.000329  0.965034  0.0  0.128591  -0.000197  0.964673  0.0  0.113411  0.12412  -0.000378  0.965428  0.0
H  H19  1  0.83107890  0.75192656  0.03416562  1  0.109302  0.000502  0.918356  0.001  0.126065  0.00033  0.964978  0.0  0.128574  0.000197  0.964617  0.0  0.113366  0.124099  0.000378  0.965374  0.0
H  H20  1  0.10025368  0.46145487  0.80791297  1  0.129903  -0.000385  0.945299  -0.001  0.137636  -4.5e-05  1.004905  0.0  0.141329  -7e-06  1.001591  0.0  0.111718  0.134807  -9.1e-05  1.00762  0.0
H  H21  1  0.89973002  0.53856036  0.19208476  1  0.129936  0.000386  0.945382  0.001  0.137677  4.6e-05  1.004976  0.0  0.141363  7e-06  1.001656  0.0  0.111749  0.134849  9.1e-05  1.007693  0.0
H  H22  1  0.10743875  0.71284603  0.72991262  1  0.106319  -0.000459  0.973383  0.0  0.115807  -0.000453  1.034371  -0.001  0.118267  -0.000327  1.034579  0.0  0.109256  0.113846  -0.000554  1.034613  -0.001
H  H23  1  0.89254540  0.28717565  0.27009168  1  0.106432  0.000459  0.973326  0.0  0.115892  0.000453  1.034318  0.001  0.118351  0.000327  1.034523  0.0  0.109275  0.113932  0.000554  1.034562  0.001
H  H24  1  0.21261679  0.84561127  0.83726713  1  0.095151  -0.001591  0.949581  -0.003  0.10266  -0.001159  1.012226  -0.002  0.104845  -0.00079  1.009508  -0.002  0.122462  0.100719  -0.001442  1.014176  -0.003
H  H25  1  0.78736513  0.15439358  0.16275553  1  0.095064  0.00159  0.949578  0.003  0.102579  0.00116  1.012232  0.002  0.104762  0.00079  1.009516  0.002  0.122418  0.100634  0.001442  1.014183  0.003
H  H26  1  0.44912842  0.74281895  0.38421832  1  0.13804  0.001096  0.93688  0.001  0.150864  0.000796  0.996062  0.001  0.152759  0.00054  0.995321  0.001  0.109095  0.150028  0.001169  0.996095  0.001
H  H27  1  0.55089290  0.25717078  0.61576745  1  0.138018  -0.001096  0.936971  -0.001  0.150896  -0.000799  0.996058  -0.001  0.152798  -0.00054  0.995308  -0.001  0.109097  0.150058  -0.001169  0.99609  -0.001
H  H28  1  0.63937498  0.80140501  0.31011046  1  0.131743  -0.000163  0.932655  0.0  0.146773  -3.7e-05  0.987051  0.0  0.149244  -3.6e-05  0.985939  0.0  0.104815  0.145378  -5.6e-05  0.987353  0.0
H  H29  1  0.36064792  0.19858932  0.68988573  1  0.13171  0.000163  0.932975  0.0  0.146788  3.5e-05  0.987256  0.0  0.149262  3.6e-05  0.98614  0.0  0.104848  0.145397  5.7e-05  0.987556  0.0
H  H30  1  0.74380016  0.97826323  0.36391786  1  0.07884  -1.8e-05  0.99006  0.0  0.090118  -0.0  1.055019  0.0  0.091918  1e-06  1.055041  0.0  0.094332  0.089163  -0.0  1.054866  0.0
H  H31  1  0.25620760  0.02171141  0.63609131  1  0.078992  1.9e-05  0.98998  0.0  0.090255  0.0  1.054943  0.0  0.092053  -1e-06  1.054969  0.0  0.094432  0.0893  0.0  1.054782  0.0
H  H32  1  0.71681617  0.12426755  0.49903671  1  0.102836  5.4e-05  0.956981  0.0  0.111226  -2e-06  1.022122  0.0  0.113839  1e-06  1.021605  0.0  0.100636  0.109752  7e-06  1.022035  0.0
H  H33  1  0.28320295  0.87571349  0.50096544  1  0.102862  -5.1e-05  0.957001  0.0  0.111259  2e-06  1.022138  0.0  0.113873  0.0  1.021619  0.0  0.100636  0.109785  -7e-06  1.022046  0.0
H  H34  1  0.87623518  0.81311721  0.34347227  1  0.122551  -6e-06  0.948705  0.0  0.139341  -1e-06  1.003176  0.0  0.142181  -2e-06  1.001237  0.0  0.102792  0.13702  -1e-06  1.004964  0.0
H  H35  1  0.12377941  0.18690472  0.65652966  1  0.122605  5e-06  0.948774  0.0  0.139353  0.0  1.003317  0.0  0.142188  2e-06  1.001379  0.0  0.102844  0.137031  1e-06  1.005104  0.0
H  H36  1  0.84625887  0.69722471  0.51099707  1  0.128489  -9e-06  0.950917  0.0  0.142954  -5e-06  1.008446  0.0  0.145149  -2e-06  1.008756  0.0  0.10224  0.141611  -9e-06  1.007923  0.0
H  H37  1  0.15375869  0.30280057  0.48900807  1  0.128464  8e-06  0.950803  0.0  0.142925  5e-06  1.008359  0.0  0.145113  1e-06  1.008674  0.0  0.102243  0.141583  9e-06  1.007835  0.0
H  H38  1  0.00875071  0.05132149  0.26296692  1  0.087388  7e-06  0.944519  0.0  0.102163  1.4e-05  0.999864  0.0  0.104775  1e-05  0.999047  0.0  0.099835  0.100469  1.2e-05  1.000331  0.0
H  H39  1  0.99126794  0.94870575  0.73703446  1  0.087399  -7e-06  0.94449  0.0  0.102265  -1.4e-05  0.999784  0.0  0.104882  -1e-05  0.998956  0.0  0.099844  0.100568  -1.2e-05  1.000251  0.0
H  H40  1  0.06409736  0.23740166  0.33424731  1  0.082464  2.4e-05  0.981234  0.0  0.095558  3.5e-05  1.040699  0.0  0.09791  2.5e-05  1.040545  0.0  0.095273  0.094259  3.8e-05  1.04014  0.0
H  H41  1  0.93591235  0.76262034  0.66576165  1  0.082437  -2.3e-05  0.981191  0.0  0.09557  -3.5e-05  1.040614  0.0  0.097914  -2.5e-05  1.040474  0.0  0.095281  0.094269  -3.8e-05  1.040053  0.0
C  C42  1  0.44466380  0.52444904  0.24210545  1  0.15877  0.008036  3.659599  0.009  0.129261  0.001175  3.917904  0.003  0.141585  0.002207  3.933004  0.004  0.064498  0.121707  0.000538  3.907889  0.002
C  C43  1  0.55531576  0.47552165  0.75791382  1  0.159002  -0.008019  3.659479  -0.009  0.129523  -0.001175  3.917843  -0.003  0.14189  -0.002208  3.932892  -0.004  0.064556  0.121959  -0.000538  3.907836  -0.002
C  C44  1  0.45339921  0.38493817  0.29847679  1  -0.121695  -0.009764  3.712518  -0.011  -0.13382  -0.004174  3.964368  -0.005  -0.141841  -0.003649  3.985272  -0.004  -0.080555  -0.129932  -0.004781  3.951721  -0.006
C  C45  1  0.54658832  0.61503633  0.70152584  1  -0.122162  0.009756  3.712483  0.011  -0.134247  0.00418  3.964438  0.005  -0.142256  0.003646  3.985314  0.004  -0.080678  -0.130355  0.004782  3.951803  0.006
C  C46  1  0.39821406  0.29350814  0.25585975  1  -0.024745  0.009248  3.627645  0.009  -0.054671  0.002942  3.886891  0.003  -0.050185  0.003072  3.902455  0.003  -0.051891  -0.05725  0.002923  3.877003  0.003
C  C47  1  0.60177995  0.70647231  0.74413049  1  -0.024305  -0.009245  3.627381  -0.009  -0.054308  -0.002946  3.886568  -0.003  -0.049835  -0.003066  3.902162  -0.003  -0.051742  -0.056872  -0.002923  3.876667  -0.003
C  C48  1  0.33208133  0.34238241  0.15695798  1  0.020045  -0.005479  3.777361  -0.006  0.032721  -0.00261  4.01968  -0.003  0.029678  -0.00217  4.041459  -0.002  0.001227  0.033742  -0.003003  4.006024  -0.003
C  C49  1  0.66790325  0.65760933  0.84304230  1  0.01996  0.00547  3.777423  0.006  0.032592  0.002611  4.019762  0.003  0.02957  0.00217  4.041563  0.002  0.001087  0.033591  0.003003  4.006149  0.003
C  C50  1  0.27322851  0.25880655  0.10289931  1  -0.080727  -0.001153  3.703283  -0.001  -0.110064  -0.000963  3.972035  -0.001  -0.112242  -0.000797  3.991901  -0.001  -0.075876  -0.108379  -0.001035  3.959228  -0.001
C  C51  1  0.72675269  0.74118595  0.89709827  1  -0.080827  0.001179  3.703195  0.001  -0.110304  0.000963  3.972141  0.001  -0.112479  0.00079  3.99199  0.001  -0.075959  -0.108611  0.001035  3.95934  0.001
C  C52  1  0.21094676  0.31320918  0.00720287  1  -0.095385  -0.000882  3.716652  -0.001  -0.118905  -0.000711  3.974747  -0.001  -0.122514  -0.000604  3.997668  -0.001  -0.080763  -0.116724  -0.000803  3.958576  -0.001
C  C53  1  0.78903038  0.68679047  0.99279807  1  -0.095189  0.000854  3.716558  0.001  -0.118642  0.000711  3.974727  0.001  -0.122248  0.000608  3.997649  0.001  -0.080616  -0.116458  0.000804  3.958543  0.001
C  C54  1  0.20304161  0.45573624  0.95615879  1  0.022731  -0.005444  3.815945  -0.006  0.038483  -0.002497  4.048793  -0.003  0.035252  -0.002035  4.074552  -0.002  -0.000584  0.041776  -0.002817  4.029986  -0.003
C  C55  1  0.79694495  0.54426793  0.04384185  1  0.022865  0.005461  3.815755  0.006  0.038432  0.002495  4.048883  0.003  0.035204  0.002033  4.074636  0.002  -0.000551  0.041724  0.002817  4.030072  0.003
C  C56  1  0.14580445  0.52020731  0.85342501  1  -0.042663  0.009366  3.637049  0.009  -0.066489  0.003062  3.882723  0.003  -0.062461  0.003202  3.898347  0.003  -0.058399  -0.069573  0.003077  3.873336  0.003
C  C57  1  0.85418099  0.47980494  0.14657318  1  -0.042862  -0.009381  3.637456  -0.009  -0.066653  -0.003058  3.883177  -0.003  -0.062616  -0.003198  3.898792  -0.003  -0.058501  -0.069735  -0.003077  3.873788  -0.003
C  C58  1  0.14857266  0.65989770  0.81015851  1  -0.110451  -0.010378  3.71793  -0.011  -0.124166  -0.004393  3.972188  -0.005  -0.132137  -0.003746  3.993573  -0.005  -0.078574  -0.119889  -0.004882  3.959332  -0.006
C  C59  1  0.85142856  0.34011828  0.18983838  1  -0.11038  0.010392  3.717815  0.011  -0.124053  0.004391  3.972047  0.005  -0.132021  0.003745  3.993435  0.005  -0.078453  -0.119777  0.004884  3.959187  0.006
C  C60  1  0.20625128  0.73555473  0.86884891  1  0.15111  0.008182  3.66456  0.009  0.121896  0.001273  3.921859  0.003  0.133594  0.00236  3.937847  0.004  0.06208  0.114289  0.000524  3.911505  0.002
C  C61  1  0.79374316  0.26445178  0.13115002  1  0.151113  -0.008185  3.66442  -0.009  0.121867  -0.00127  3.921749  -0.003  0.133561  -0.002358  3.937735  -0.004  0.062028  0.114264  -0.000524  3.911384  -0.002
C  C62  1  0.26046956  0.53984555  0.00846297  1  0.125436  0.001113  3.778618  0.002  0.120164  -0.000992  4.01859  0.0  0.125132  -8.3e-05  4.041521  0.001  0.115184  0.11722  -0.001657  4.002961  -0.001
C  C63  1  0.73951530  0.46015350  0.99154005  1  0.125409  -0.00113  3.778515  -0.002  0.120049  0.000998  4.018549  0.0  0.12504  8.4e-05  4.041488  -0.001  0.115121  0.117111  0.001658  4.00291  0.001
C  C64  1  0.32542970  0.48347978  0.10846625  1  0.129559  0.001503  3.773272  0.002  0.12337  -0.000768  4.015219  0.0  0.129378  0.00013  4.037163  0.001  0.115504  0.119681  -0.001495  4.000494  -0.001
C  C65  1  0.67454803  0.51651203  0.89154354  1  0.129248  -0.001491  3.773304  -0.002  0.123378  0.000771  4.014897  0.0  0.129301  -0.000129  4.036949  -0.001  0.115595  0.119699  0.001495  4.000164  0.001
C  C66  1  0.53255381  0.83359614  0.33516049  1  -0.484689  0.0045  3.720586  0.004  -0.512682  0.002356  3.967624  0.002  -0.522492  0.001677  3.975244  0.002  -0.16556  -0.504902  0.0036  3.960508  0.003
C  C67  1  0.46746917  0.16639486  0.66482966  1  -0.484806  -0.0045  3.721032  -0.004  -0.512754  -0.002349  3.967979  -0.002  -0.522574  -0.001681  3.975616  -0.002  -0.165591  -0.504973  -0.0036  3.960864  -0.003
C  C68  1  0.51593563  0.91560764  0.42350538  1  0.128975  -0.002129  3.802086  -0.002  0.148367  -0.000522  4.036865  -0.001  0.149771  -0.000367  4.061591  -0.001  -0.014947  0.148738  -0.00013  4.01793  0.0
C  C69  1  0.48407703  0.08439897  0.57647562  1  0.12919  0.002137  3.801502  0.002  0.148336  0.000523  4.036639  0.001  0.14974  0.000366  4.061369  0.001  -0.014946  0.148704  0.00013  4.017708  0.0
C  C70  1  0.63624529  0.98793358  0.42327951  1  -0.12757  0.001123  3.765  0.001  -0.148274  7e-06  4.017056  0.0  -0.151629  1.8e-05  4.040196  0.0  -0.098134  -0.14535  -6.8e-05  3.998951  0.0
C  C71  1  0.36376488  0.01206897  0.57670556  1  -0.127733  -0.001123  3.764803  -0.001  -0.148377  -9e-06  4.016955  0.0  -0.151732  -1.7e-05  4.040095  0.0  -0.098183  -0.145452  6.8e-05  3.998848  0.0
C  C72  1  0.62144707  0.07117470  0.49845817  1  -0.124343  -0.001811  3.739369  -0.002  -0.144605  -0.000221  3.991157  0.0  -0.147145  -0.000155  4.01269  0.0  -0.095811  -0.141683  0.000157  3.973741  0.0
C  C73  1  0.37856986  0.92882918  0.50152682  1  -0.124379  0.001798  3.739889  0.002  -0.14469  0.000219  3.991598  0.0  -0.147231  0.000155  4.013135  0.0  -0.095827  -0.141766  -0.000157  3.974178  0.0
C  C74  1  0.92598907  0.77706654  0.42188493  1  -0.491468  4.2e-05  3.728338  0.0  -0.5139  2.7e-05  3.96775  0.0  -0.522602  3.1e-05  3.974793  0.0  -0.16987  -0.507902  4e-05  3.963144  0.0
C  C75  1  0.07403177  0.22294980  0.57812402  1  -0.491601  -3.5e-05  3.728419  0.0  -0.513947  -2.7e-05  3.967804  0.0  -0.52263  -3.3e-05  3.974829  0.0  -0.170019  -0.507955  -4.1e-05  3.963201  0.0
C  C76  1  0.96681070  0.89201347  0.45994958  1  0.14556  -5.9e-05  3.76316  0.0  0.163171  -2e-05  3.998147  0.0  0.164192  -2.1e-05  4.023119  0.0  -0.011009  0.16226  -2.2e-05  3.98243  0.0
C  C77  1  0.03321688  0.10800800  0.54005168  1  0.145762  5.9e-05  3.763398  0.0  0.163341  2.3e-05  3.998487  0.0  0.164355  1.7e-05  4.023464  0.0  -0.010807  0.162433  2.2e-05  3.982765  0.0
C  C78  1  0.00364429  0.02763550  0.36783777  1  -0.116989  3.8e-05  3.73458  0.0  -0.134547  4e-05  3.982102  0.0  -0.136856  3.6e-05  4.003168  0.0  -0.093294  -0.133823  5e-05  3.969076  0.0
C  C79  1  0.99638314  0.97238590  0.63216177  1  -0.117046  -4e-05  3.734386  0.0  -0.134737  -4.2e-05  3.981989  0.0  -0.137045  -3.3e-05  4.003055  0.0  -0.093373  -0.13401  -5e-05  3.968963  0.0
C  C80  1  0.03506885  0.13283564  0.40773482  1  -0.127726  6.3e-05  3.749502  0.0  -0.146068  6.1e-05  3.997298  0.0  -0.148907  4.3e-05  4.019043  0.0  -0.096437  -0.144664  4.6e-05  3.983441  0.0
C  C81  1  0.96495475  0.86718249  0.59226447  1  -0.127626  -6.3e-05  3.748885  0.0  -0.145975  -6.5e-05  3.996713  0.0  -0.148819  -4.3e-05  4.018458  0.0  -0.09637  -0.144566  -4.6e-05  3.982843  0.0
N  N82  1  0.38224066  0.57204632  0.14961923  1  -0.322728  -0.080377  3.312488  -0.1  -0.287226  -0.05651  3.614366  -0.076  -0.316563  -0.046123  3.63446  -0.065  -0.331336  -0.269423  -0.062216  3.602254  -0.08
N  N83  1  0.61773935  0.42793655  0.85039561  1  -0.322585  0.080369  3.312224  0.1  -0.287172  0.056499  3.613993  0.076  -0.316464  0.046124  3.634088  0.065  -0.33145  -0.269357  0.062214  3.601875  0.08
N  N84  1  0.26101537  0.67647694  0.96510780  1  -0.323715  -0.080677  3.344166  -0.1  -0.286391  -0.055646  3.64678  -0.074  -0.315884  -0.045756  3.666022  -0.064  -0.341527  -0.269151  -0.060719  3.636128  -0.078
N  N85  1  0.73897377  0.32351938  0.03489921  1  -0.323597  0.080684  3.344341  0.1  -0.286246  0.055634  3.646967  0.074  -0.315712  0.045757  3.666186  0.064  -0.34147  -0.269004  0.060721  3.636306  0.078
O  O86  1  0.62148794  0.05659307  0.10195482  1  -0.806055  0.059113  2.000462  0.077  -0.762409  0.038468  2.298582  0.054  -0.801414  0.030496  2.278237  0.045  -0.381183  -0.734417  0.044512  2.312221  0.061
O  O87  1  0.37851687  0.94339495  0.89803269  1  -0.80614  -0.059117  2.000446  -0.077  -0.762422  -0.038474  2.298497  -0.054  -0.801442  -0.030498  2.278144  -0.045  -0.381206  -0.73444  -0.044515  2.312148  -0.061
O  O88  1  0.17851687  0.79466695  0.22096191  1  -0.861414  0.001138  2.000266  0.0  -0.792889  0.000869  2.265539  0.0  -0.819584  0.001017  2.241467  0.0  -0.382674  -0.774022  0.000759  2.281664  0.0
O  O89  1  0.82148451  0.20535483  0.77902570  1  -0.861326  -0.001139  2.000261  0.0  -0.792827  -0.00087  2.265563  0.0  -0.81951  -0.001017  2.241494  0.0  -0.382564  -0.773951  -0.000759  2.281687  0.0
O  O90  1  0.51341199  0.83243230  0.10011765  1  -0.828534  -0.073899  2.082348  -0.096  -0.785719  -0.04399  2.394857  -0.061  -0.82551  -0.033664  2.377031  -0.049  -0.385464  -0.757709  -0.050619  2.40658  -0.068
O  O91  1  0.48658314  0.16755874  0.89987929  1  -0.828444  0.073906  2.08217  0.096  -0.785734  0.043989  2.394736  0.061  -0.825513  0.033666  2.376936  0.049  -0.385515  -0.757727  0.050622  2.406482  0.068
O  O92  1  0.35141389  0.97051720  0.21930336  1  -0.755526  -0.002151  2.042906  -0.003  -0.68086  -0.000861  2.26829  -0.001  -0.705004  -0.000364  2.246605  -0.001  -0.376879  -0.663523  -0.001164  2.282855  -0.002
O  O93  1  0.64859558  0.02946643  0.78072274  1  -0.755647  0.002152  2.042922  0.003  -0.680824  0.00086  2.268165  0.001  -0.704973  0.000367  2.246497  0.001  -0.376746  -0.663481  0.001164  2.282739  0.002
O  O94  1  0.14840482  0.63865244  0.46093847  1  -0.770465  5e-05  1.950064  0.0  -0.699983  3.6e-05  2.16623  0.0  -0.720601  3.7e-05  2.141646  0.0  -0.40498  -0.685425  4.2e-05  2.183109  0.0
O  O95  1  0.85162128  0.36135058  0.53904010  1  -0.77036  -4.9e-05  1.949896  0.0  -0.699895  -4.2e-05  2.166038  0.0  -0.720513  -3.1e-05  2.141457  0.0  -0.405003  -0.685336  -4.2e-05  2.182919  0.0
O  O96  1  0.00061277  0.57083221  0.33353201  1  -0.848603  4.2e-05  1.887818  0.0  -0.775812  2e-05  2.122334  0.0  -0.800249  2.3e-05  2.102637  0.0  -0.38556  -0.7582  3.9e-05  2.134698  0.0
O  O97  1  0.99937707  0.42918741  0.66646568  1  -0.848653  -4.1e-05  1.887843  0.0  -0.775889  -2.7e-05  2.122371  0.0  -0.80033  -2e-05  2.102685  0.0  -0.385597  -0.758276  -3.9e-05  2.134734  0.0
