# generated using pymatgen
data_LiH11(C2O)6
_symmetry_space_group_name_H-M   'P 1'
_cell_length_a   7.98131808
_cell_length_b   7.86583715
_cell_length_c   18.78825429
_cell_angle_alpha   89.99966742
_cell_angle_beta   90.00045918
_cell_angle_gamma   110.65896874
_symmetry_Int_Tables_number   1
_chemical_formula_structural   LiH11(C2O)6
_chemical_formula_sum   'Li4 H44 C48 O24'
_cell_volume   1103.67499185
_cell_formula_units_Z   4
loop_
 _symmetry_equiv_pos_site_id
 _symmetry_equiv_pos_as_xyz
  1  'x, y, z'
loop_
 _atom_site_type_symbol
 _atom_site_label
 _atom_site_symmetry_multiplicity
 _atom_site_fract_x
 _atom_site_fract_y
 _atom_site_fract_z
 _atom_site_occupancy
 _atom_site_hle17_bader_spin_density
 _atom_site_hle17_ddec_charge
 _atom_site_hle17_ddec_spin_density
 _atom_site_hle17_ddec_sum_bond_order
 _atom_site_hle17_magmom
 _atom_site_hse06_10hf_bader_spin_density
 _atom_site_hse06_10hf_ddec_charge
 _atom_site_hse06_10hf_ddec_spin_density
 _atom_site_hse06_10hf_ddec_sum_bond_order
 _atom_site_hse06_10hf_magmom
 _atom_site_hse06_bader_spin_density
 _atom_site_hse06_ddec_charge
 _atom_site_hse06_ddec_spin_density
 _atom_site_hse06_ddec_sum_bond_order
 _atom_site_hse06_magmom
 _atom_site_pbe_bader_spin_density
 _atom_site_pbe_cm5_charge
 _atom_site_pbe_ddec_charge
 _atom_site_pbe_ddec_spin_density
 _atom_site_pbe_ddec_sum_bond_order
 _atom_site_pbe_magmom
Li  Li0  1  0.68683889  0.26632961  0.02712685  1  0  0.858331  0  0.395165  0  0  0.823059  0  0.49302  0  0  0.831509  0  0.477238  0  0  0.504352  0.816792  0  0.504603  0
Li  Li1  1  0.81315716  0.73367187  0.52712665  1  0  0.858306  0  0.395205  0  0  0.82307  0  0.493002  0  0  0.831514  0  0.477225  0  0  0.504369  0.816805  0  0.504581  0
Li  Li2  1  0.31315719  0.73366752  0.97287450  1  0  0.858337  0  0.39515  0  0  0.823062  0  0.493016  0  0  0.831512  0  0.477232  0  0  0.504365  0.816794  0  0.5046  0
Li  Li3  1  0.18683815  0.26632663  0.47287469  1  0  0.85832  0  0.395187  0  0  0.823079  0  0.49299  0  0  0.831523  0  0.477214  0  0  0.50435  0.816814  0  0.50457  0
H  H4  1  0.35037817  0.15695085  0.02597196  1  0  0.431911  0  0.866833  0  0  0.400501  0  0.930455  0  0  0.411187  0  0.914744  0  0  0.299863  0.392959  0  0.94153  0
H  H5  1  0.14961286  0.84304426  0.52597253  1  0  0.431873  0  0.86691  0  0  0.40052  0  0.930437  0  0  0.411206  0  0.914726  0  0  0.299855  0.392976  0  0.941513  0
H  H6  1  0.64962165  0.84304624  0.97402832  1  0  0.431918  0  0.866812  0  0  0.400509  0  0.93043  0  0  0.411195  0  0.914721  0  0  0.299881  0.392966  0  0.941506  0
H  H7  1  0.85037746  0.15695430  0.47402775  1  0  0.431928  0  0.866802  0  0  0.400516  0  0.930426  0  0  0.411202  0  0.914715  0  0  0.299872  0.392972  0  0.941503  0
H  H8  1  0.39994179  0.01628487  0.07398838  1  0  0.432692  0  0.860164  0  0  0.405876  0  0.91839  0  0  0.414813  0  0.905105  0  0  0.310857  0.399545  0  0.927813  0
H  H9  1  0.10005491  0.98371660  0.57398738  1  0  0.432632  0  0.86024  0  0  0.405839  0  0.918429  0  0  0.414775  0  0.905148  0  0  0.310836  0.399508  0  0.927851  0
H  H10  1  0.60005255  0.98371092  0.92601296  1  0  0.432601  0  0.860296  0  0  0.4058  0  0.918479  0  0  0.414735  0  0.905199  0  0  0.310838  0.399455  0  0.927913  0
H  H11  1  0.89994234  0.01628734  0.42601343  1  0  0.43273  0  0.860121  0  0  0.40592  0  0.918333  0  0  0.414857  0  0.905049  0  0  0.310871  0.399589  0  0.927755  0
H  H12  1  0.77230934  0.55074126  0.95678779  1  0  0.394511  0  0.908397  0  0  0.360148  0  0.99117  0  0  0.374349  0  0.976311  0  0  0.306105  0.350209  0  1.001421  0
H  H13  1  0.72769824  0.44925934  0.45678556  1  0  0.394566  0  0.908398  0  0  0.360144  0  0.991269  0  0  0.374343  0  0.976335  0  0  0.306142  0.350208  0  1.001508  0
H  H14  1  0.22768805  0.44924904  0.04321142  1  0  0.394453  0  0.908449  0  0  0.360178  0  0.991059  0  0  0.37438  0  0.976251  0  0  0.306109  0.350237  0  1.001314  0
H  H15  1  0.27231573  0.55074578  0.54321472  1  0  0.394494  0  0.908395  0  0  0.360156  0  0.991115  0  0  0.374356  0  0.976283  0  0  0.306165  0.350219  0  1.001361  0
H  H16  1  0.84810727  0.04836182  0.06482541  1  0  0.436762  0  0.864749  0  0  0.403657  0  0.932489  0  0  0.414089  0  0.917121  0  0  0.297437  0.396294  0  0.943326  0
H  H17  1  0.65189360  0.95164066  0.56482413  1  0  0.436869  0  0.864617  0  0  0.403736  0  0.932406  0  0  0.414172  0  0.917031  0  0  0.297449  0.39637  0  0.943246  0
H  H18  1  0.15189601  0.95163796  0.93517487  1  0  0.436855  0  0.86463  0  0  0.403731  0  0.932404  0  0  0.414167  0  0.917029  0  0  0.297469  0.396367  0  0.943244  0
H  H19  1  0.34810469  0.04835917  0.43517668  1  0  0.436786  0  0.864729  0  0  0.403676  0  0.932471  0  0  0.414109  0  0.917103  0  0  0.297434  0.396312  0  0.943309  0
H  H20  1  0.97583512  0.24846761  0.08445999  1  0  0.431725  0  0.856782  0  0  0.404399  0  0.914646  0  0  0.413134  0  0.901707  0  0  0.308775  0.39819  0  0.923863  0
H  H21  1  0.52415982  0.75153479  0.58445930  1  0  0.431769  0  0.856725  0  0  0.404479  0  0.914534  0  0  0.413214  0  0.901595  0  0  0.308799  0.398271  0  0.923749  0
H  H22  1  0.02416365  0.75153359  0.91554135  1  0  0.431728  0  0.856761  0  0  0.404405  0  0.914621  0  0  0.413139  0  0.901683  0  0  0.308773  0.398196  0  0.923838  0
H  H23  1  0.47583798  0.24846369  0.41554258  1  0  0.431776  0  0.856706  0  0  0.404474  0  0.914523  0  0  0.413207  0  0.901587  0  0  0.308818  0.398267  0  0.923737  0
H  H24  1  0.43272188  0.08711419  0.86092948  1  0  0.097632  0  0.989122  0  0  0.107626  0  1.050547  0  0  0.110609  0  1.049372  0  0  0.107819  0.105454  0  1.051571  0
H  H25  1  0.06729532  0.91288745  0.36093090  1  0  0.097553  0  0.98918  0  0  0.107513  0  1.050664  0  0  0.110505  0  1.049462  0  0  0.107773  0.105341  0  1.051687  0
H  H26  1  0.56727600  0.91287747  0.13906921  1  0  0.097533  0  0.989274  0  0  0.107495  0  1.050727  0  0  0.110488  0  1.049522  0  0  0.107774  0.105325  0  1.051748  0
H  H27  1  0.93271469  0.08711362  0.63906991  1  0  0.097578  0  0.989172  0  0  0.10754  0  1.050638  0  0  0.110527  0  1.049455  0  0  0.107748  0.105368  0  1.051662  0
H  H28  1  0.21198825  0.83045361  0.80184288  1  0  0.082918  0  0.974351  0  0  0.09379  0  1.037266  0  0  0.096555  0  1.036038  0  0  0.099403  0.091733  0  1.038303  0
H  H29  1  0.28802850  0.16954988  0.30184579  1  0  0.082875  0  0.974209  0  0  0.093787  0  1.037092  0  0  0.096551  0  1.035871  0  0  0.099416  0.091731  0  1.038129  0
H  H30  1  0.78800532  0.16954355  0.19815420  1  0  0.082893  0  0.974368  0  0  0.093815  0  1.037216  0  0  0.096578  0  1.036005  0  0  0.099408  0.091758  0  1.038254  0
H  H31  1  0.71198574  0.83045250  0.69815449  1  0  0.082825  0  0.974328  0  0  0.09377  0  1.037159  0  0  0.096527  0  1.035952  0  0  0.099412  0.091714  0  1.038196  0
H  H32  1  0.20685047  0.80755754  0.66817535  1  0  0.09346  0  0.974153  0  0  0.101671  0  1.03974  0  0  0.104686  0  1.037982  0  0  0.099287  0.099427  0  1.041166  0
H  H33  1  0.29315584  0.19245534  0.16817822  1  0  0.093459  0  0.97422  0  0  0.101713  0  1.039742  0  0  0.104738  0  1.037975  0  0  0.099308  0.099469  0  1.041171  0
H  H34  1  0.79313749  0.19245197  0.33182174  1  0  0.09343  0  0.974145  0  0  0.10162  0  1.039741  0  0  0.104639  0  1.037981  0  0  0.099264  0.099382  0  1.041157  0
H  H35  1  0.70685694  0.80754297  0.83182153  1  0  0.093488  0  0.974218  0  0  0.101696  0  1.039795  0  0  0.104712  0  1.03804  0  0  0.099288  0.099451  0  1.041224  0
H  H36  1  0.42676931  0.04438512  0.59734888  1  0  0.093884  0  0.976136  0  0  0.103747  0  1.03743  0  0  0.106976  0  1.035781  0  0  0.105311  0.10139  0  1.038784  0
H  H37  1  0.07323741  0.95562560  0.09735182  1  0  0.093941  0  0.97613  0  0  0.103792  0  1.03743  0  0  0.107022  0  1.03578  0  0  0.105326  0.101438  0  1.038778  0
H  H38  1  0.57322642  0.95562157  0.40264980  1  0  0.093932  0  0.976066  0  0  0.103789  0  1.037369  0  0  0.10702  0  1.035721  0  0  0.105318  0.101433  0  1.03872  0
H  H39  1  0.92677212  0.04437411  0.90264846  1  0  0.093939  0  0.976155  0  0  0.103786  0  1.037467  0  0  0.107018  0  1.035819  0  0  0.105337  0.101432  0  1.038815  0
H  H40  1  0.91290474  0.59542563  0.65010968  1  0  0.103078  0  0.962076  0  0  0.111005  0  1.028831  0  0  0.114684  0  1.026509  0  0  0.113583  0.108367  0  1.030543  0
H  H41  1  0.58709562  0.40458844  0.15010813  1  0  0.103163  0  0.961947  0  0  0.111079  0  1.028723  0  0  0.114759  0  1.026401  0  0  0.113597  0.10844  0  1.030437  0
H  H42  1  0.08709529  0.40457555  0.34989167  1  0  0.103135  0  0.962214  0  0  0.111074  0  1.028924  0  0  0.114754  0  1.026601  0  0  0.113625  0.108435  0  1.030639  0
H  H43  1  0.41290260  0.59541821  0.84989481  1  0  0.103144  0  0.96211  0  0  0.111081  0  1.028831  0  0  0.114761  0  1.02651  0  0  0.113586  0.108442  0  1.030546  0
H  H44  1  0.91907878  0.61717117  0.78161363  1  0  0.097173  0  0.955713  0  0  0.10801  0  1.017659  0  0  0.110767  0  1.016475  0  0  0.106671  0.106046  0  1.018528  0
H  H45  1  0.58091540  0.38284327  0.28161265  1  0  0.097157  0  0.955695  0  0  0.107988  0  1.017639  0  0  0.110743  0  1.016458  0  0  0.106661  0.106023  0  1.018512  0
H  H46  1  0.08091278  0.38282737  0.21838878  1  0  0.097119  0  0.955771  0  0  0.107987  0  1.017683  0  0  0.110744  0  1.016499  0  0  0.106643  0.10602  0  1.01856  0
H  H47  1  0.41908649  0.61717017  0.71839029  1  0  0.097185  0  0.955657  0  0  0.108037  0  1.017582  0  0  0.110794  0  1.016398  0  0  0.106676  0.106071  0  1.018456  0
C  C48  1  0.56835018  0.19856981  0.68803060  1  0  0.039987  0  3.751994  0  0  0.051934  0  3.977313  0  0  0.051161  0  4.002951  0  0  -0.001103  0.052404  0  3.96003  0
C  C49  1  0.93165507  0.80143844  0.18803353  1  0  0.04004  0  3.751898  0  0  0.051922  0  3.977218  0  0  0.051148  0  4.002857  0  0  -0.001065  0.052394  0  3.959938  0
C  C50  1  0.43164734  0.80143140  0.31196862  1  0  0.039909  0  3.752155  0  0  0.051872  0  3.977422  0  0  0.0511  0  4.003062  0  0  -0.001142  0.052342  0  3.960142  0
C  C51  1  0.06834995  0.19856268  0.81196941  1  0  0.039861  0  3.752199  0  0  0.051872  0  3.977362  0  0  0.051098  0  4.003004  0  0  -0.001126  0.052342  0  3.960079  0
C  C52  1  0.57124979  0.21132768  0.76460502  1  0  0.056828  0  3.734475  0  0  0.067371  0  3.956477  0  0  0.067934  0  3.982228  0  0  0.004287  0.067026  0  3.939092  0
C  C53  1  0.92875599  0.78867449  0.26460532  1  0  0.056757  0  3.734584  0  0  0.067298  0  3.956626  0  0  0.067861  0  3.982377  0  0  0.004186  0.066955  0  3.93924  0
C  C54  1  0.42874338  0.78866130  0.23539472  1  0  0.056798  0  3.734741  0  0  0.067352  0  3.9567  0  0  0.067913  0  3.982453  0  0  0.004302  0.067009  0  3.939314  0
C  C55  1  0.07124923  0.21133072  0.73539602  1  0  0.056885  0  3.734392  0  0  0.067409  0  3.956371  0  0  0.067974  0  3.982123  0  0  0.004276  0.067067  0  3.938979  0
C  C56  1  0.43779909  0.07554936  0.80353353  1  0  -0.11487  0  3.735449  0  0  -0.136638  0  3.985814  0  0  -0.140373  0  4.008371  0  0  -0.090166  -0.134095  0  3.97053  0
C  C57  1  0.06220250  0.92445019  0.30353597  1  0  -0.114634  0  3.73511  0  0  -0.136384  0  3.985474  0  0  -0.140112  0  4.008032  0  0  -0.09004  -0.133839  0  3.97019  0
C  C58  1  0.56219455  0.92444098  0.19646302  1  0  -0.114828  0  3.735476  0  0  -0.136564  0  3.985833  0  0  -0.140295  0  4.008394  0  0  -0.090129  -0.134019  0  3.970547  0
C  C59  1  0.93779877  0.07555097  0.69646218  1  0  -0.114731  0  3.735141  0  0  -0.136485  0  3.985517  0  0  -0.140217  0  4.00807  0  0  -0.090013  -0.133941  0  3.970231  0
C  C60  1  0.31171701  0.93163323  0.76974416  1  0  -0.050592  0  3.77123  0  0  -0.064502  0  4.020101  0  0  -0.066631  0  4.042617  0  0  -0.086936  -0.062902  0  4.004675  0
C  C61  1  0.18829279  0.06836651  0.26974430  1  0  -0.050595  0  3.771072  0  0  -0.064541  0  4.01998  0  0  -0.066674  0  4.042504  0  0  -0.086951  -0.062939  0  4.004557  0
C  C62  1  0.68827262  0.06835989  0.23025240  1  0  -0.050586  0  3.771232  0  0  -0.064525  0  4.020064  0  0  -0.066662  0  4.042585  0  0  -0.086976  -0.062925  0  4.004642  0
C  C63  1  0.81171701  0.93163047  0.73025332  1  0  -0.050535  0  3.771095  0  0  -0.064493  0  4.01998  0  0  -0.066621  0  4.042491  0  0  -0.08697  -0.062893  0  4.004555  0
C  C64  1  0.30889015  0.91888954  0.69505389  1  0  -0.066031  0  3.778726  0  0  -0.081324  0  4.032804  0  0  -0.08312  0  4.054194  0  0  -0.092659  -0.079988  0  4.018225  0
C  C65  1  0.19112158  0.08112306  0.19505880  1  0  -0.066001  0  3.778862  0  0  -0.081316  0  4.032922  0  0  -0.083122  0  4.054311  0  0  -0.092709  -0.079982  0  4.018351  0
C  C66  1  0.69110086  0.08111447  0.30494214  1  0  -0.065961  0  3.778699  0  0  -0.081238  0  4.03283  0  0  -0.083043  0  4.054229  0  0  -0.092653  -0.079904  0  4.018258  0
C  C67  1  0.80889169  0.91887661  0.80494148  1  0  -0.066064  0  3.778782  0  0  -0.081365  0  4.032906  0  0  -0.083169  0  4.054302  0  0  -0.092724  -0.080031  0  4.018332  0
C  C68  1  0.43317654  0.05082661  0.65515362  1  0  -0.120579  0  3.753625  0  0  -0.142608  0  4.006617  0  0  -0.145745  0  4.028147  0  0  -0.09385  -0.140447  0  3.992084  0
C  C69  1  0.06683331  0.94918634  0.15515389  1  0  -0.120726  0  3.753491  0  0  -0.142739  0  4.006503  0  0  -0.145878  0  4.028033  0  0  -0.093874  -0.140577  0  3.991974  0
C  C70  1  0.56681752  0.94917191  0.34484240  1  0  -0.120594  0  3.753583  0  0  -0.142634  0  4.00656  0  0  -0.145774  0  4.028093  0  0  -0.093812  -0.140472  0  3.992032  0
C  C71  1  0.93318114  0.05082014  0.84484373  1  0  -0.120634  0  3.753576  0  0  -0.142674  0  4.006515  0  0  -0.145816  0  4.028048  0  0  -0.093846  -0.140514  0  3.991989  0
C  C72  1  0.69710759  0.33791021  0.64745104  1  0  -0.087237  0  3.698765  0  0  -0.076676  0  3.941728  0  0  -0.081433  0  3.961497  0  0  -0.002554  -0.07354  0  3.928374  0
C  C73  1  0.80289411  0.66209023  0.14745334  1  0  -0.087423  0  3.698732  0  0  -0.076661  0  3.941575  0  0  -0.081419  0  3.961349  0  0  -0.002594  -0.073529  0  3.928213  0
C  C74  1  0.30289250  0.66208415  0.35254764  1  0  -0.087267  0  3.698855  0  0  -0.076665  0  3.941827  0  0  -0.081432  0  3.961595  0  0  -0.002585  -0.073524  0  3.92847  0
C  C75  1  0.19710245  0.33790826  0.85254854  1  0  -0.08728  0  3.698641  0  0  -0.076596  0  3.941511  0  0  -0.081352  0  3.961279  0  0  -0.002559  -0.073461  0  3.928157  0
C  C76  1  0.81715432  0.48804025  0.68147924  1  0  -0.08471  0  3.739524  0  0  -0.110246  0  4.000279  0  0  -0.112173  0  4.019736  0  0  -0.079734  -0.108868  0  3.987054  0
C  C77  1  0.68284854  0.51197218  0.18147936  1  0  -0.084693  0  3.739623  0  0  -0.11027  0  4.000318  0  0  -0.112197  0  4.019772  0  0  -0.079717  -0.10889  0  3.987097  0
C  C78  1  0.18283877  0.51195556  0.31852210  1  0  -0.084673  0  3.73974  0  0  -0.110233  0  4.0005  0  0  -0.11216  0  4.019958  0  0  -0.079717  -0.108851  0  3.987267  0
C  C79  1  0.31715786  0.48803984  0.81852305  1  0  -0.084697  0  3.739515  0  0  -0.110273  0  4.000223  0  0  -0.112202  0  4.019681  0  0  -0.079692  -0.108888  0  3.986989  0
C  C80  1  0.82072511  0.50013044  0.75607797  1  0  -0.046874  0  3.725825  0  0  -0.07546  0  3.984697  0  0  -0.074308  0  4.004498  0  0  -0.076503  -0.076039  0  3.971147  0
C  C81  1  0.67926722  0.49988014  0.25607704  1  0  -0.046808  0  3.725725  0  0  -0.075373  0  3.984578  0  0  -0.074218  0  4.004378  0  0  -0.076454  -0.075953  0  3.971031  0
C  C82  1  0.17926500  0.49986403  0.24392178  1  0  -0.046857  0  3.725872  0  0  -0.075464  0  3.984767  0  0  -0.074312  0  4.004565  0  0  -0.076488  -0.07604  0  3.971217  0
C  C83  1  0.32072774  0.50012792  0.74392484  1  0  -0.046837  0  3.725795  0  0  -0.07543  0  3.984675  0  0  -0.074276  0  4.004475  0  0  -0.076502  -0.07601  0  3.971126  0
C  C84  1  0.70397650  0.36390916  0.79780773  1  0  -0.116625  0  3.719434  0  0  -0.100676  0  3.956736  0  0  -0.109414  0  3.979567  0  0  -0.011348  -0.094956  0  3.941374  0
C  C85  1  0.79603272  0.63610089  0.29780794  1  0  -0.116712  0  3.719551  0  0  -0.100771  0  3.956904  0  0  -0.109514  0  3.979743  0  0  -0.01134  -0.095049  0  3.941543  0
C  C86  1  0.29601861  0.63608525  0.20219309  1  0  -0.116663  0  3.719577  0  0  -0.100721  0  3.95688  0  0  -0.109454  0  3.97971  0  0  -0.011429  -0.095002  0  3.941519  0
C  C87  1  0.20397646  0.36390838  0.70219288  1  0  -0.116756  0  3.719609  0  0  -0.100813  0  3.956947  0  0  -0.109555  0  3.979783  0  0  -0.011375  -0.095089  0  3.941581  0
C  C88  1  0.72031970  0.38273691  0.87649625  1  0  0.685726  0  3.76159  0  0  0.635716  0  4.056004  0  0  0.66995  0  4.045617  0  0  0.248803  0.61249  0  4.062529  0
C  C89  1  0.77968362  0.61726302  0.37649433  1  0  0.685895  0  3.761301  0  0  0.635846  0  4.055774  0  0  0.670079  0  4.04539  0  0  0.248894  0.612618  0  4.062301  0
C  C90  1  0.27967062  0.61726165  0.12349977  1  0  0.685773  0  3.761948  0  0  0.635748  0  4.056381  0  0  0.669977  0  4.045997  0  0  0.248849  0.612521  0  4.062903  0
C  C91  1  0.22032632  0.38274487  0.62350649  1  0  0.685769  0  3.76142  0  0  0.635729  0  4.055872  0  0  0.669966  0  4.045486  0  0  0.24886  0.612501  0  4.062395  0
C  C92  1  0.71380509  0.32449021  0.56821541  1  0  0.702414  0  3.824396  0  0  0.648446  0  4.123051  0  0  0.682674  0  4.112614  0  0  0.242165  0.625224  0  4.129472  0
C  C93  1  0.78620693  0.67552576  0.06821443  1  0  0.702457  0  3.824541  0  0  0.648291  0  4.123423  0  0  0.682513  0  4.112995  0  0  0.24207  0.625089  0  4.129817  0
C  C94  1  0.28619646  0.67550822  0.43178434  1  0  0.702511  0  3.824249  0  0  0.648441  0  4.123044  0  0  0.682691  0  4.112569  0  0  0.242127  0.625215  0  4.129471  0
C  C95  1  0.21379982  0.32447671  0.93178745  1  0  0.70256  0  3.824492  0  0  0.648395  0  4.123392  0  0  0.682622  0  4.112957  0  0  0.242112  0.625176  0  4.129811  0
O  O96  1  0.67883735  0.25221027  0.91895319  1  0  -0.645942  0  1.997028  0  0  -0.599009  0  2.226174  0  0  -0.6189  0  2.2142  0  0  -0.325767  -0.585259  0  2.233993  0
O  O97  1  0.82116956  0.74779745  0.41895587  1  0  -0.646074  0  1.996869  0  0  -0.599132  0  2.226035  0  0  -0.619033  0  2.214076  0  0  -0.325862  -0.585389  0  2.233881  0
O  O98  1  0.32114888  0.74777333  0.08104922  1  0  -0.645808  0  1.997565  0  0  -0.598858  0  2.226707  0  0  -0.618762  0  2.214769  0  0  -0.325688  -0.585124  0  2.234568  0
O  O99  1  0.17883788  0.25221046  0.58104707  1  0  -0.645903  0  1.996833  0  0  -0.598974  0  2.225992  0  0  -0.618873  0  2.214032  0  0  -0.325755  -0.585224  0  2.233816  0
O  O100  1  0.44525166  0.14195089  0.05681268  1  0  -0.901669  0  1.771546  0  0  -0.860269  0  1.941877  0  0  -0.875458  0  1.910525  0  0  -0.654037  -0.849498  0  1.963911  0
O  O101  1  0.05474256  0.85804802  0.55681183  1  0  -0.901573  0  1.771692  0  0  -0.86023  0  1.941932  0  0  -0.875418  0  1.910581  0  0  -0.654029  -0.849459  0  1.963966  0
O  O102  1  0.55474719  0.85804348  0.94318813  1  0  -0.901569  0  1.771618  0  0  -0.860165  0  1.941966  0  0  -0.875352  0  1.910617  0  0  -0.654029  -0.849372  0  1.964042  0
O  O103  1  0.94524949  0.14195188  0.44318632  1  0  -0.901718  0  1.771484  0  0  -0.86032  0  1.94181  0  0  -0.87551  0  1.910457  0  0  -0.654083  -0.849552  0  1.963846  0
O  O104  1  0.78266521  0.55327890  0.89983201  1  0  -0.574277  0  2.105039  0  0  -0.513517  0  2.323645  0  0  -0.53719  0  2.309169  0  0  -0.314171  -0.497088  0  2.33316  0
O  O105  1  0.71734118  0.44672490  0.39983081  1  0  -0.574303  0  2.104965  0  0  -0.513501  0  2.323655  0  0  -0.537166  0  2.309119  0  0  -0.314192  -0.497073  0  2.333171  0
O  O106  1  0.21733267  0.44671276  0.10016933  1  0  -0.574317  0  2.105023  0  0  -0.513608  0  2.323571  0  0  -0.537284  0  2.309135  0  0  -0.314227  -0.497176  0  2.333085  0
O  O107  1  0.28267444  0.55328839  0.60016894  1  0  -0.574262  0  2.104981  0  0  -0.513507  0  2.323586  0  0  -0.537182  0  2.309129  0  0  -0.314269  -0.497077  0  2.333098  0
O  O108  1  0.85582242  0.17687963  0.06795115  1  0  -0.904889  0  1.764884  0  0  -0.863519  0  1.934381  0  0  -0.878391  0  1.903552  0  0  -0.663873  -0.852923  0  1.955996  0
O  O109  1  0.64417525  0.82312423  0.56794750  1  0  -0.905005  0  1.764779  0  0  -0.863675  0  1.934261  0  0  -0.878544  0  1.903426  0  0  -0.663909  -0.853084  0  1.955895  0
O  O110  1  0.14418010  0.82312152  0.93204859  1  0  -0.904991  0  1.764794  0  0  -0.863618  0  1.934309  0  0  -0.878489  0  1.903476  0  0  -0.663906  -0.853022  0  1.95593  0
O  O111  1  0.35582305  0.17687561  0.43205331  1  0  -0.90496  0  1.764874  0  0  -0.863618  0  1.934389  0  0  -0.878487  0  1.903558  0  0  -0.663911  -0.853029  0  1.956015  0
O  O112  1  0.70516938  0.17570367  0.53991279  1  0  -0.632478  0  1.996381  0  0  -0.566039  0  2.21187  0  0  -0.591083  0  2.200472  0  0  -0.290313  -0.54856  0  2.219281  0
O  O113  1  0.79484185  0.82429754  0.03991307  1  0  -0.632317  0  1.996618  0  0  -0.565866  0  2.212225  0  0  -0.590898  0  2.200827  0  0  -0.290152  -0.548404  0  2.219631  0
O  O114  1  0.29482440  0.82429758  0.46008696  1  0  -0.632487  0  1.996177  0  0  -0.56604  0  2.211693  0  0  -0.591094  0  2.200289  0  0  -0.290278  -0.548557  0  2.219102  0
O  O115  1  0.20516546  0.17569947  0.96008614  1  0  -0.632398  0  1.996505  0  0  -0.565927  0  2.212109  0  0  -0.590968  0  2.200712  0  0  -0.290191  -0.548456  0  2.219523  0
O  O116  1  0.74230494  0.47100642  0.53220874  1  0  -0.692329  0  2.026296  0  0  -0.636513  0  2.255248  0  0  -0.660888  0  2.242125  0  0  -0.371723  -0.619427  0  2.263692  0
O  O117  1  0.75770360  0.52900170  0.03220961  1  0  -0.692404  0  2.026266  0  0  -0.636554  0  2.255263  0  0  -0.660933  0  2.242166  0  0  -0.371771  -0.619471  0  2.263699  0
O  O118  1  0.25769980  0.52899743  0.46779260  1  0  -0.692374  0  2.026385  0  0  -0.636566  0  2.255334  0  0  -0.660946  0  2.242223  0  0  -0.371716  -0.619481  0  2.263782  0
O  O119  1  0.24229969  0.47099808  0.96779120  1  0  -0.692418  0  2.026406  0  0  -0.636603  0  2.255351  0  0  -0.660985  0  2.24227  0  0  -0.371759  -0.619514  0  2.263798  0
