# generated using pymatgen
data_FeNi2H40C50N4O9
_symmetry_space_group_name_H-M   'P 1'
_cell_length_a   13.83944377
_cell_length_b   13.83948777
_cell_length_c   17.96327688
_cell_angle_alpha   103.35790301
_cell_angle_beta   103.35793931
_cell_angle_gamma   113.59317243
_symmetry_Int_Tables_number   1
_chemical_formula_structural   FeNi2H40C50N4O9
_chemical_formula_sum   'Fe2 Ni4 H80 C100 N8 O18'
_cell_volume   2858.59149789
_cell_formula_units_Z   2
loop_
 _symmetry_equiv_pos_site_id
 _symmetry_equiv_pos_as_xyz
  1  'x, y, z'
loop_
 _atom_site_type_symbol
 _atom_site_label
 _atom_site_symmetry_multiplicity
 _atom_site_fract_x
 _atom_site_fract_y
 _atom_site_fract_z
 _atom_site_occupancy
 _atom_site_pbe_bader_charge
 _atom_site_pbe_bader_spin_density
 _atom_site_pbe_cm5_charge
 _atom_site_pbe_ddec_charge
 _atom_site_pbe_ddec_spin_density
 _atom_site_pbe_ddec_sum_bond_order
 _atom_site_pbe_magmom
Fe  Fe0  1  0.73587210  0.23621672  0.47209852  1  0.719739  0.000256  0.515243  0.234446  0.000306  4.025156  0.0
Fe  Fe1  1  0.48621640  0.48587200  0.97209795  1  0.719744  0.000256  0.515232  0.234321  0.000306  4.025298  0.0
Ni  Ni2  1  0.39071958  0.91191747  0.02472579  1  1.196061  1.562556  0.6578  0.811868  1.777339  2.515225  1.549
Ni  Ni3  1  0.63408242  0.11273124  0.02467969  1  1.198187  1.562531  0.657389  0.81029  1.777211  2.517564  1.549
Ni  Ni4  1  0.16192002  0.14072127  0.52472499  1  1.196091  1.562567  0.657773  0.811841  1.777349  2.515251  1.549
Ni  Ni5  1  0.36273221  0.38408182  0.52467884  1  1.198254  1.562527  0.657344  0.81017  1.777206  2.517689  1.549
H  H6  1  0.44837996  0.01212164  0.91123106  1  0.633626  0.000433  0.287405  0.377449  0.000644  0.965472  0.001
H  H7  1  0.46330077  0.89906729  0.91146697  1  0.649171  0.000416  0.288659  0.377766  0.000635  0.96495  0.001
H  H8  1  0.26212900  0.19838331  0.41123006  1  0.647428  0.000395  0.28739  0.37743  0.000644  0.965516  0.001
H  H9  1  0.14907408  0.21330292  0.41146625  1  0.649209  0.000416  0.288692  0.37782  0.000635  0.964876  0.001
H  H10  1  0.14967509  0.76025603  0.93877476  1  0.125471  0.002072  0.117687  0.087663  0.000688  1.018843  0.001
H  H11  1  0.78869257  0.17831961  0.93821172  1  0.112689  0.002082  0.118576  0.088744  0.00069  1.018212  0.001
H  H12  1  0.01025983  0.89967817  0.43877324  1  0.125532  0.002072  0.117706  0.087696  0.000688  1.018821  0.001
H  H13  1  0.42831457  0.53868874  0.43820616  1  0.112852  0.002082  0.118528  0.088731  0.00069  1.018147  0.001
H  H14  1  0.97848031  0.76279085  0.85867560  1  0.050674  0.001094  0.106277  0.110714  0.000521  1.005609  0.0
H  H15  1  0.87968043  0.09554150  0.85808080  1  0.046951  0.001098  0.105805  0.110412  0.000523  1.005743  0.0
H  H16  1  0.01279291  0.72848367  0.35867658  1  0.050284  0.001094  0.10627  0.110728  0.000521  1.005617  0.0
H  H17  1  0.34553029  0.62967116  0.35807191  1  0.046945  0.001098  0.105834  0.110495  0.000523  1.005728  0.0
H  H18  1  0.19235508  0.11804330  0.91006350  1  0.103532  0.001176  0.111558  0.127415  0.000561  0.998225  0.001
H  H19  1  0.71809913  0.79224551  0.91032593  1  0.10123  0.001176  0.111471  0.126899  0.000561  0.998552  0.001
H  H20  1  0.36804597  0.94235223  0.41006213  1  0.103704  0.001176  0.111574  0.127465  0.000561  0.998183  0.001
H  H21  1  0.04224249  0.46810218  0.41032927  1  0.10115  0.001177  0.111508  0.126987  0.000561  0.99843  0.001
H  H22  1  0.35389700  0.09906779  0.98694214  1  0.132088  0.002045  0.12546  0.098639  0.00065  1.01297  0.001
H  H23  1  0.63349882  0.88819374  0.98716634  1  0.123215  0.002054  0.12446  0.099095  0.00065  1.013724  0.001
H  H24  1  0.34907242  0.10389625  0.48693925  1  0.132051  0.002045  0.125442  0.09861  0.00065  1.01302  0.001
H  H25  1  0.13819283  0.38350258  0.48716942  1  0.123215  0.002053  0.12447  0.09908  0.00065  1.013706  0.001
H  H26  1  0.99392416  0.03443229  0.83450768  1  0.045697  0.000112  0.105963  0.085547  8.8e-05  0.97662  0.0
H  H27  1  0.84068015  0.80004082  0.83458763  1  0.036004  0.000113  0.106225  0.085899  8.9e-05  0.975919  0.0
H  H28  1  0.28443097  0.74391885  0.33450830  1  0.045724  0.000112  0.105982  0.085566  8.8e-05  0.976609  0.0
H  H29  1  0.05003448  0.59067904  0.33458404  1  0.036175  0.000113  0.106254  0.085914  8.9e-05  0.975801  0.0
H  H30  1  0.93232265  0.79904895  0.72359234  1  0.037905  -9.2e-05  0.106354  0.084536  -6.8e-05  0.979099  0.0
H  H31  1  0.79148810  0.92431136  0.72346778  1  0.027399  -9.2e-05  0.105944  0.08369  -6.8e-05  0.980178  0.0
H  H32  1  0.04904664  0.68232110  0.22359270  1  0.037882  -9.2e-05  0.106324  0.084495  -6.8e-05  0.979138  0.0
H  H33  1  0.17431734  0.54149400  0.22347231  1  0.027372  -9.1e-05  0.10592  0.083649  -6.8e-05  0.980144  0.0
H  H34  1  0.12608614  0.91405614  0.71480582  1  0.083799  0.001109  0.114278  0.128402  0.000519  0.980568  0.0
H  H35  1  0.58891880  0.80079964  0.71475835  1  0.08331  0.001114  0.114828  0.128319  0.00052  0.980007  0.0
H  H36  1  0.16405360  0.87608402  0.21480720  1  0.083886  0.001109  0.114281  0.128414  0.000519  0.980589  0.0
H  H37  1  0.05080696  0.33892101  0.21475856  1  0.083284  0.001114  0.114846  0.12837  0.00052  0.980068  0.0
H  H38  1  0.21708511  0.02375530  0.63490343  1  0.107168  0.002259  0.123495  0.096944  0.000835  1.000048  0.002
H  H39  1  0.41785652  0.61128494  0.63483107  1  0.120566  0.002254  0.123559  0.098086  0.000835  0.999744  0.002
H  H40  1  0.27375340  0.96708283  0.13490457  1  0.10719  0.002258  0.123503  0.096938  0.000834  1.000029  0.002
H  H41  1  0.86129335  0.16785644  0.13483258  1  0.120418  0.002254  0.123538  0.098121  0.000835  0.999674  0.002
H  H42  1  0.94921805  0.08312632  0.55508894  1  0.134744  0.002234  0.122891  0.096669  0.000799  1.012569  0.002
H  H43  1  0.60566361  0.47166092  0.55514352  1  0.164107  0.002218  0.12364  0.097254  0.000799  1.011963  0.002
H  H44  1  0.33312288  0.69921674  0.05508756  1  0.134627  0.002234  0.12288  0.096666  0.000799  1.012574  0.002
H  H45  1  0.72166725  0.35565884  0.05513989  1  0.164198  0.002218  0.123703  0.097317  0.000799  1.011904  0.002
H  H46  1  0.84471265  0.97635638  0.63109161  1  0.075928  0.001121  0.105076  0.113029  0.00053  1.011311  0.0
H  H47  1  0.78630585  0.65432050  0.63115835  1  0.051252  0.001136  0.104949  0.112141  0.000531  1.010835  0.0
H  H48  1  0.22635147  0.59471006  0.13109028  1  0.07587  0.001121  0.105119  0.113072  0.00053  1.011309  0.0
H  H49  1  0.90432357  0.53630336  0.13115935  1  0.051316  0.001136  0.104964  0.112137  0.000531  1.01083  0.0
H  H50  1  0.63950613  0.38790218  0.17344305  1  0.072439  6.9e-05  0.102222  0.101661  -5e-06  1.019771  0.0
H  H51  1  0.53410047  0.78539727  0.17348739  1  0.106694  7.2e-05  0.102746  0.102489  -5e-06  1.019574  0.0
H  H52  1  0.63790593  0.38950316  0.67344374  1  0.072426  6.9e-05  0.102192  0.101609  -5e-06  1.019662  0.0
H  H53  1  0.03539806  0.28409920  0.67348453  1  0.106627  7.2e-05  0.102765  0.102502  -5e-06  1.01966  0.0
H  H54  1  0.66411928  0.54309520  0.29297491  1  0.07072  0.000232  0.095342  0.090406  0.000103  1.00664  0.0
H  H55  1  0.62897778  0.74993524  0.29315257  1  0.027578  0.000236  0.095733  0.090739  0.000103  1.006515  0.0
H  H56  1  0.79309573  0.41411468  0.79297735  1  0.070759  0.000232  0.09537  0.090453  0.000103  1.006523  0.0
H  H57  1  0.99992959  0.37897087  0.79314592  1  0.0276  0.000236  0.09574  0.09074  0.000103  1.006489  0.0
H  H58  1  0.55855994  0.49346461  0.38619667  1  0.06526  0.00021  0.097168  0.094877  0.000135  1.025966  0.0
H  H59  1  0.82772946  0.89284537  0.38637673  1  0.072122  0.000211  0.097855  0.095334  0.000135  1.025227  0.0
H  H60  1  0.74345970  0.30855741  0.88619849  1  0.065152  0.00021  0.097171  0.094913  0.000135  1.025952  0.0
H  H61  1  0.14283785  0.57772222  0.88637386  1  0.071718  0.000212  0.097812  0.095264  0.000135  1.025204  0.0
H  H62  1  0.40318461  0.14113195  0.23929230  1  0.094341  0.000251  0.104112  0.104332  0.00014  1.033067  0.0
H  H63  1  0.83613963  0.09815894  0.23938153  1  0.089034  0.000253  0.105156  0.106047  0.000139  1.031961  0.0
H  H64  1  0.39112734  0.15318500  0.73929089  1  0.09472  0.000251  0.104119  0.104323  0.00014  1.033086  0.0
H  H65  1  0.34815942  0.58614325  0.73938335  1  0.089019  0.000253  0.105148  0.106017  0.000139  1.031965  0.0
H  H66  1  0.96418338  0.28508996  0.51845570  1  0.127764  6.9e-05  0.103147  0.130383  4e-05  1.022914  0.0
H  H67  1  0.55383292  0.23349042  0.51844027  1  0.100435  7e-05  0.103052  0.130145  4e-05  1.022978  0.0
H  H68  1  0.53507913  0.71417966  0.01844980  1  0.127959  6.9e-05  0.103152  0.130382  4e-05  1.022841  0.0
H  H69  1  0.48348695  0.30383250  0.01844286  1  0.10086  7e-05  0.103052  0.13009  4e-05  1.022989  0.0
H  H70  1  0.90713167  0.41988532  0.61334315  1  0.08184  4e-06  0.099139  0.116083  0.0  1.011368  0.0
H  H71  1  0.70580671  0.19353513  0.61325892  1  0.084558  4e-06  0.099179  0.116734  0.0  1.011107  0.0
H  H72  1  0.66988126  0.65713510  0.11333911  1  0.081874  4e-06  0.099126  0.116079  0.0  1.011373  0.0
H  H73  1  0.44353512  0.45581025  0.11326060  1  0.08449  4e-06  0.099171  0.116737  0.0  1.011133  0.0
H  H74  1  0.75278918  0.45232744  0.51177470  1  0.064905  6.1e-05  0.097533  0.114511  4.1e-05  1.016166  0.0
H  H75  1  0.75868463  0.05975088  0.51164916  1  0.063321  6.2e-05  0.09725  0.114637  4.1e-05  1.016485  0.0
H  H76  1  0.70233033  0.50279746  0.01177485  1  0.064817  6.1e-05  0.097547  0.114549  4.1e-05  1.016164  0.0
H  H77  1  0.30975182  0.50868789  0.01164836  1  0.063217  6.2e-05  0.09726  0.114653  4.1e-05  1.016448  0.0
H  H78  1  0.71564475  0.33762440  0.35507178  1  0.094753  -5e-06  0.098893  0.120502  -1.4e-05  1.031772  0.0
H  H79  1  0.63918127  0.01784723  0.35497087  1  0.102481  -5e-06  0.098822  0.120789  -1.4e-05  1.03094  0.0
H  H80  1  0.58762603  0.46564688  0.85507039  1  0.094726  -5e-06  0.098903  0.120478  -1.4e-05  1.031748  0.0
H  H81  1  0.26784682  0.38918125  0.85497082  1  0.102468  -5e-06  0.098841  0.120802  -1.4e-05  1.030954  0.0
H  H82  1  0.84665206  0.23473268  0.35918712  1  0.10346  1.5e-05  0.103426  0.125181  -2e-06  1.018785  0.0
H  H83  1  0.51217015  0.12472539  0.35912098  1  0.106559  1.5e-05  0.103982  0.125248  -2e-06  1.018415  0.0
H  H84  1  0.48472413  0.59664474  0.85918188  1  0.103623  1.5e-05  0.103439  0.125177  -2e-06  1.018757  0.0
H  H85  1  0.37472194  0.26216827  0.85912299  1  0.106613  1.5e-05  0.103986  0.125264  -2e-06  1.018445  0.0
C  C86  1  0.15394349  0.83755469  0.93130094  1  0.480724  -0.005617  0.044129  0.093414  -0.006456  3.972599  -0.004
C  C87  1  0.77716788  0.09365818  0.93094332  1  0.484272  -0.005628  0.044434  0.092829  -0.006454  3.974438  -0.004
C  C88  1  0.08755791  0.90394563  0.43130006  1  0.480422  -0.005616  0.044156  0.093449  -0.006455  3.972634  -0.004
C  C89  1  0.34365246  0.52716433  0.43093852  1  0.484065  -0.005626  0.044515  0.092924  -0.006453  3.974418  -0.004
C  C90  1  0.05965265  0.84021822  0.88665805  1  -0.072071  0.005682  -0.09145  -0.192688  0.003109  3.98331  0.004
C  C91  1  0.82677271  0.04627730  0.88629875  1  -0.031887  0.005672  -0.091257  -0.191413  0.003118  3.984432  0.004
C  C92  1  0.09022032  0.80965503  0.38665857  1  -0.071433  0.005681  -0.091441  -0.192738  0.003109  3.983298  0.004
C  C93  1  0.29626913  0.57676734  0.38629487  1  -0.031844  0.005672  -0.091344  -0.191709  0.003118  3.984619  0.004
C  C94  1  0.07067542  0.94167179  0.87771298  1  -0.059562  -0.008504  0.00309  0.127251  -0.009239  3.98857  -0.005
C  C95  1  0.80707835  0.93601851  0.87762768  1  -0.061951  -0.008525  0.001831  0.123503  -0.009255  3.989964  -0.005
C  C96  1  0.19167407  0.82067612  0.37771418  1  -0.059514  -0.008503  0.003091  0.127322  -0.009237  3.988537  -0.005
C  C97  1  0.18601133  0.55707531  0.37762711  1  -0.061797  -0.008524  0.001836  0.123618  -0.009253  3.989913  -0.005
C  C98  1  0.17799454  0.03679337  0.91523949  1  -0.005324  0.006319  -0.079073  -0.174209  0.003452  3.920479  0.005
C  C99  1  0.73752836  0.87860268  0.91536844  1  -0.009738  0.006297  -0.077036  -0.170608  0.003445  3.920354  0.005
C  C100  1  0.28679581  0.92799326  0.41523841  1  -0.005635  0.006318  -0.079089  -0.174329  0.003452  3.920537  0.005
C  C101  1  0.12860066  0.48753043  0.41536937  1  -0.010006  0.006296  -0.077032  -0.170646  0.003445  3.920303  0.005
C  C102  1  0.26882858  0.02721267  0.95868154  1  0.509954  -0.005849  0.056101  0.118629  -0.006541  3.905137  -0.004
C  C103  1  0.69016211  0.93166749  0.95878089  1  0.499528  -0.005877  0.05813  0.118111  -0.006561  3.904916  -0.004
C  C104  1  0.27721638  0.01882890  0.45868038  1  0.509831  -0.005849  0.056173  0.118726  -0.00654  3.905016  -0.004
C  C105  1  0.18166331  0.44016222  0.45878066  1  0.499606  -0.005877  0.058085  0.118078  -0.006561  3.904793  -0.004
C  C106  1  0.97313566  0.94617037  0.82566136  1  0.018751  -0.001033  -0.071343  -0.076745  -0.00131  3.826982  0.0
C  C107  1  0.85260894  0.87939590  0.82564442  1  0.015301  -0.001034  -0.071421  -0.076532  -0.001309  3.826333  0.0
C  C108  1  0.19616971  0.72313436  0.32566149  1  0.018714  -0.001033  -0.071405  -0.076819  -0.00131  3.826976  0.0
C  C109  1  0.12939288  0.60260911  0.32564409  1  0.015132  -0.001034  -0.071417  -0.076524  -0.001308  3.8261  0.0
C  C110  1  0.92465578  0.87656816  0.73093374  1  0.006549  -0.00073  -0.073656  -0.079965  -0.000913  3.843588  0.0
C  C111  1  0.80641415  0.85412829  0.73091446  1  0.029515  -0.000719  -0.075578  -0.082034  -0.000911  3.845326  0.0
C  C112  1  0.12656807  0.67465493  0.23093439  1  0.006563  -0.00073  -0.073622  -0.079964  -0.000913  3.843522  0.0
C  C113  1  0.10413032  0.55641471  0.23091527  1  0.029367  -0.000719  -0.075557  -0.081961  -0.000911  3.845111  0.0
C  C114  1  0.97692711  0.93592497  0.67985927  1  -0.016015  -0.008078  0.002105  0.128552  -0.008805  3.987347  -0.005
C  C115  1  0.70300237  0.74374447  0.67983961  1  -0.034655  -0.008108  0.002669  0.129475  -0.00883  3.98742  -0.005
C  C116  1  0.18592360  0.72692748  0.17985909  1  -0.016177  -0.008078  0.002132  0.128565  -0.008805  3.987258  -0.005
C  C117  1  0.99374750  0.45300098  0.17983908  1  -0.034638  -0.008107  0.002638  0.129473  -0.008829  3.987324  -0.005
C  C118  1  0.08306399  0.94963553  0.68011955  1  -0.038969  0.005823  -0.086948  -0.185784  0.003232  3.946341  0.005
C  C119  1  0.59715515  0.73045162  0.68006572  1  -0.061968  0.005835  -0.086132  -0.18433  0.003233  3.947047  0.005
C  C120  1  0.19963234  0.83306158  0.18011968  1  -0.039125  0.005823  -0.08697  -0.18585  0.003232  3.946388  0.005
C  C121  1  0.98045996  0.34715638  0.18006584  1  -0.062336  0.005835  -0.086193  -0.184463  0.003233  3.947044  0.005
C  C122  1  0.13442254  0.01027544  0.63605702  1  0.498008  -0.004978  0.055969  0.103646  -0.005728  3.939757  -0.003
C  C123  1  0.50165452  0.62581831  0.63599639  1  0.496457  -0.005002  0.05383  0.100095  -0.005736  3.942555  -0.003
C  C124  1  0.26027382  0.88442311  0.13605836  1  0.497976  -0.004979  0.056  0.103724  -0.005729  3.939644  -0.003
C  C125  1  0.87582500  0.25165471  0.13599811  1  0.49685  -0.005001  0.053856  0.100121  -0.005735  3.942451  -0.003
C  C126  1  0.98449766  0.04439873  0.59189459  1  0.483977  -0.005663  0.053783  0.101374  -0.006327  3.946549  -0.004
C  C127  1  0.60728032  0.54728015  0.59191052  1  0.438862  -0.00564  0.050794  0.09981  -0.006357  3.948202  -0.004
C  C128  1  0.29439638  0.73449710  0.09189422  1  0.484014  -0.005663  0.053798  0.10129  -0.006327  3.946588  -0.004
C  C129  1  0.79728475  0.35727665  0.09190903  1  0.438491  -0.00564  0.050716  0.099768  -0.006356  3.948397  -0.004
C  C130  1  0.92750722  0.98472510  0.63439747  1  -0.063495  0.00615  -0.092671  -0.200476  0.003314  3.972299  0.005
C  C131  1  0.70684627  0.64938358  0.63442047  1  0.008254  0.006143  -0.092133  -0.199609  0.003318  3.973455  0.005
C  C132  1  0.23472315  0.67750538  0.13439662  1  -0.063185  0.006151  -0.092731  -0.200467  0.003314  3.972225  0.005
C  C133  1  0.89938773  0.45684433  0.13441862  1  0.008068  0.006143  -0.0921  -0.199581  0.003319  3.973394  0.005
C  C134  1  0.52091629  0.25533868  0.19936611  1  -0.044868  0.011768  -0.017378  -0.032471  0.007039  3.952902  0.009
C  C135  1  0.67855426  0.94390628  0.19940537  1  -0.041235  0.01174  -0.014983  -0.028886  0.007037  3.948065  0.009
C  C136  1  0.50533876  0.27091415  0.69936496  1  -0.044704  0.011768  -0.017363  -0.032388  0.007038  3.952849  0.009
C  C137  1  0.19390903  0.42855599  0.69940550  1  -0.041238  0.011741  -0.015053  -0.029015  0.007038  3.948007  0.009
C  C138  1  0.59374882  0.36891729  0.21451494  1  -0.045555  0.000619  -0.080386  -0.082311  6.8e-05  3.966788  0.0
C  C139  1  0.62089775  0.84549618  0.21458598  1  -0.088871  0.000607  -0.082316  -0.08596  6e-05  3.96704  0.0
C  C140  1  0.61891935  0.34374459  0.71451567  1  -0.045695  0.000619  -0.080376  -0.082293  6.8e-05  3.966793  0.0
C  C141  1  0.09549660  0.37089642  0.71458316  1  -0.088612  0.000606  -0.08235  -0.08598  5.9e-05  3.967033  0.0
C  C142  1  0.60707686  0.45483071  0.28116546  1  -0.052594  0.000577  -0.101392  -0.107264  0.000256  4.066546  0.0
C  C143  1  0.67420821  0.82634113  0.28129026  1  0.014687  0.000576  -0.099764  -0.105564  0.000256  4.066069  0.0
C  C144  1  0.70482953  0.35707098  0.78116517  1  -0.052717  0.000577  -0.101414  -0.107319  0.000256  4.066506  0.0
C  C145  1  0.07633826  0.42420593  0.78128842  1  0.014646  0.000576  -0.099734  -0.105539  0.000256  4.065983  0.0
C  C146  1  0.54808833  0.42783210  0.33307383  1  -0.050888  -5.1e-05  -0.08435  -0.090919  -0.000216  3.986962  0.0
C  C147  1  0.78508199  0.90529308  0.33321183  1  -0.122615  -5.7e-05  -0.08642  -0.092832  -0.000225  3.986918  0.0
C  C148  1  0.67782887  0.29808399  0.83307552  1  -0.051419  -5e-05  -0.084345  -0.090953  -0.000215  3.987007  0.0
C  C149  1  0.15528945  0.53507750  0.83320987  1  -0.122434  -5.8e-05  -0.086425  -0.092788  -0.000225  3.986964  0.0
C  C150  1  0.47369307  0.31472596  0.31810586  1  -0.039873  0.007572  -0.017499  -0.037625  0.004461  3.968596  0.006
C  C151  1  0.84445553  0.00344214  0.31822268  1  -0.007754  0.007607  -0.018014  -0.036855  0.004469  3.966485  0.006
C  C152  1  0.56472261  0.22369014  0.81810620  1  -0.039208  0.007572  -0.017453  -0.037521  0.004461  3.96854  0.006
C  C153  1  0.25343730  0.59445210  0.81822333  1  -0.007646  0.007608  -0.017968  -0.036812  0.004469  3.966385  0.006
C  C154  1  0.46046881  0.22904968  0.25102255  1  0.002969  0.001832  -0.072659  -0.101405  0.000812  3.930563  0.001
C  C155  1  0.79060037  0.02195126  0.25109659  1  0.026286  0.001807  -0.07511  -0.104638  0.000797  3.930935  0.001
C  C156  1  0.47904791  0.21046690  0.75102194  1  0.002668  0.001832  -0.072683  -0.10146  0.000812  3.930546  0.001
C  C157  1  0.27195154  0.54060076  0.75109668  1  0.026304  0.001807  -0.075081  -0.104538  0.000796  3.930805  0.001
C  C158  1  0.50950392  0.16356538  0.12828113  1  1.561726  0.003332  0.213308  0.576654  0.002653  4.183191  0.002
C  C159  1  0.61884684  0.96444804  0.12821089  1  1.56388  0.003294  0.210674  0.573456  0.002684  4.186216  0.002
C  C160  1  0.41356503  0.25950230  0.62828145  1  1.561666  0.003332  0.213277  0.576579  0.002653  4.183411  0.002
C  C161  1  0.21445002  0.36884759  0.62820914  1  1.564185  0.003293  0.210791  0.573597  0.002683  4.186204  0.002
C  C162  1  0.40889678  0.28821885  0.37418919  1  1.572285  -0.000209  0.207318  0.576629  -0.000508  4.177349  -0.001
C  C163  1  0.96528499  0.08616008  0.37437764  1  1.574775  -0.000222  0.21224  0.580227  -0.00051  4.17454  -0.001
C  C164  1  0.53821320  0.15889555  0.87418894  1  1.572522  -0.000209  0.207298  0.576592  -0.000506  4.177328  -0.001
C  C165  1  0.33615995  0.71528410  0.87437788  1  1.575034  -0.000222  0.212071  0.579889  -0.000511  4.174543  -0.001
C  C166  1  0.90593282  0.31546034  0.49644709  1  -0.18028  3.8e-05  -0.161394  -0.150881  3.1e-05  3.993359  0.0
C  C167  1  0.59010137  0.18116507  0.49638568  1  -0.170502  3.6e-05  -0.160246  -0.14809  3e-05  3.991175  0.0
C  C168  1  0.56545365  0.65593047  0.99644173  1  -0.180612  3.8e-05  -0.161468  -0.150859  3.1e-05  3.993385  0.0
C  C169  1  0.43116329  0.34010183  0.99638563  1  -0.170778  3.6e-05  -0.160191  -0.147904  3e-05  3.991009  0.0
C  C170  1  0.87544914  0.38678773  0.54660459  1  -0.146542  -1.4e-05  -0.164632  -0.151943  -2.1e-05  4.027217  0.0
C  C171  1  0.67076554  0.15998411  0.54651742  1  -0.170326  -1.4e-05  -0.165419  -0.154219  -2.1e-05  4.027559  0.0
C  C172  1  0.63678541  0.62545233  0.04660186  1  -0.146681  -1.4e-05  -0.164654  -0.151993  -2.1e-05  4.027274  0.0
C  C173  1  0.40998290  0.42076748  0.04651728  1  -0.170477  -1.4e-05  -0.165417  -0.154281  -2.1e-05  4.027568  0.0
C  C174  1  0.79438632  0.40415020  0.49310297  1  -0.171962  4.7e-05  -0.166895  -0.154736  2.9e-05  4.03195  0.0
C  C175  1  0.69839626  0.08922985  0.49299009  1  -0.180933  4.6e-05  -0.166315  -0.155231  2.9e-05  4.033506  0.0
C  C176  1  0.65415062  0.54439129  0.99310109  1  -0.171649  4.7e-05  -0.166927  -0.154838  2.9e-05  4.032056  0.0
C  C177  1  0.33922839  0.44839720  0.99298837  1  -0.181214  4.6e-05  -0.166364  -0.155274  2.9e-05  4.033481  0.0
C  C178  1  0.77471357  0.34362766  0.40986487  1  -0.162884  7e-06  -0.164407  -0.148973  -2e-06  4.004281  0.0
C  C179  1  0.63486346  0.06658558  0.40976995  1  -0.133253  7e-06  -0.163631  -0.148435  -2e-06  4.004645  0.0
C  C180  1  0.59362592  0.52471401  0.90986215  1  -0.162984  7e-06  -0.164403  -0.148872  -2e-06  4.004209  0.0
C  C181  1  0.31658434  0.38486316  0.90976950  1  -0.132855  7e-06  -0.163578  -0.148324  -2e-06  4.004596  0.0
C  C182  1  0.84375911  0.28901578  0.41203383  1  -0.181857  3.7e-05  -0.157926  -0.142549  1.4e-05  3.994593  0.0
C  C183  1  0.56791916  0.12330361  0.41196831  1  -0.16706  3.7e-05  -0.160132  -0.144243  1.4e-05  3.995536  0.0
C  C184  1  0.53900991  0.59375576  0.91202949  1  -0.181883  3.7e-05  -0.157846  -0.142482  1.4e-05  3.994441  0.0
C  C185  1  0.37330145  0.31791879  0.91196850  1  -0.167043  3.7e-05  -0.160195  -0.14435  1.4e-05  3.995569  0.0
N  N186  1  0.25720076  0.92928899  0.96656952  1  -1.205591  0.074426  -0.328053  -0.230983  0.043206  3.602555  0.067
N  N187  1  0.70947762  0.03737434  0.96644826  1  -1.211816  0.074422  -0.331805  -0.233431  0.043196  3.605366  0.067
N  N188  1  0.17929265  0.00720116  0.46656739  1  -1.205366  0.074428  -0.328118  -0.231038  0.043207  3.602424  0.067
N  N189  1  0.28737171  0.45947699  0.46644616  1  -1.211609  0.074419  -0.331796  -0.233396  0.043195  3.60531  0.067
N  N190  1  0.08607917  0.05683981  0.59258214  1  -1.205932  0.075781  -0.3264  -0.213332  0.043971  3.576874  0.067
N  N191  1  0.50641461  0.53568843  0.59254168  1  -1.199978  0.075768  -0.323965  -0.210717  0.043967  3.576722  0.067
N  N192  1  0.30683940  0.83607817  0.09258386  1  -1.205792  0.075787  -0.326427  -0.213311  0.043973  3.576847  0.067
N  N193  1  0.78569375  0.25641370  0.09254033  1  -1.199322  0.075769  -0.323923  -0.210773  0.043967  3.576947  0.067
O  O194  1  0.44956730  0.06176372  0.12087201  1  -1.151795  0.071732  -0.306515  -0.553506  0.039797  2.394717  0.066
O  O195  1  0.67137570  0.05881979  0.12074020  1  -1.151057  0.071832  -0.304961  -0.552085  0.039921  2.395239  0.066
O  O196  1  0.31176479  0.19956929  0.62087254  1  -1.151804  0.071728  -0.306515  -0.553482  0.039794  2.394899  0.066
O  O197  1  0.30882325  0.42137911  0.62073986  1  -1.151177  0.071836  -0.304989  -0.552083  0.039924  2.395415  0.066
O  O198  1  0.56014672  0.19513021  0.08044647  1  -1.162756  0.056893  -0.315004  -0.554961  0.031405  2.382151  0.051
O  O199  1  0.52038854  0.88501531  0.08036283  1  -1.168753  0.056843  -0.313784  -0.553618  0.031365  2.380751  0.051
O  O200  1  0.44513314  0.31014745  0.58044603  1  -1.162677  0.056902  -0.314957  -0.554921  0.031409  2.382157  0.051
O  O201  1  0.13501972  0.27039124  0.58036251  1  -1.168916  0.05684  -0.313796  -0.553642  0.031364  2.38077  0.051
O  O202  1  0.33134347  0.18811040  0.35527005  1  -1.177114  0.001987  -0.326137  -0.542903  0.000318  2.123917  0.001
O  O203  1  0.02373181  0.16776447  0.35571827  1  -1.174407  0.00195  -0.329096  -0.545736  0.000291  2.123575  0.001
O  O204  1  0.43810557  0.08134294  0.85527018  1  -1.177149  0.001987  -0.326197  -0.542974  0.000318  2.123899  0.001
O  O205  1  0.41776129  0.77372698  0.85572157  1  -1.174628  0.001949  -0.32904  -0.545575  0.00029  2.12378  0.001
O  O206  1  0.43790414  0.37289106  0.43806420  1  -1.156364  0.075433  -0.31354  -0.565641  0.042192  2.403884  0.07
O  O207  1  0.00031342  0.06507059  0.43805347  1  -1.162121  0.075483  -0.316057  -0.567325  0.042197  2.407855  0.07
O  O208  1  0.62288252  0.18790224  0.93806512  1  -1.156573  0.075432  -0.313509  -0.565621  0.042191  2.403867  0.07
O  O209  1  0.31506519  0.75030819  0.93805554  1  -1.162187  0.075493  -0.315942  -0.567153  0.042203  2.407577  0.07
O  O210  1  0.47477899  0.97464983  0.94935800  1  -1.232487  0.11518  -0.554873  -0.770985  0.066177  2.434295  0.104
O  O211  1  0.22465144  0.22477915  0.44935687  1  -1.246328  0.115221  -0.554899  -0.771  0.066179  2.434329  0.104
