# generated using pymatgen
data_CuH4(CO3)2
_symmetry_space_group_name_H-M   'P 1'
_cell_length_a   4.90633158
_cell_length_b   9.66233150
_cell_length_c   9.75954136
_cell_angle_alpha   90.00009695
_cell_angle_beta   89.99956484
_cell_angle_gamma   89.99842762
_symmetry_Int_Tables_number   1
_chemical_formula_structural   CuH4(CO3)2
_chemical_formula_sum   'Cu4 H16 C8 O24'
_cell_volume   462.66669439
_cell_formula_units_Z   4
loop_
 _symmetry_equiv_pos_site_id
 _symmetry_equiv_pos_as_xyz
  1  'x, y, z'
loop_
 _atom_site_type_symbol
 _atom_site_label
 _atom_site_symmetry_multiplicity
 _atom_site_fract_x
 _atom_site_fract_y
 _atom_site_fract_z
 _atom_site_occupancy
 _atom_site_pbe_cm5_charge
 _atom_site_pbe_ddec_charge
 _atom_site_pbe_ddec_spin_density
 _atom_site_pbe_ddec_sum_bond_order
 _atom_site_pbe_magmom
Cu  Cu0  1  0.49999487  0.74998288  0.87635139  1  0.699708  0.933038  0.773132  2.064552  0.63
Cu  Cu1  1  0.49999483  0.25002269  0.62365345  1  0.699729  0.932819  0.773177  2.064915  0.63
Cu  Cu2  1  0.50000393  0.24999038  0.12362483  1  0.699529  0.932779  0.772999  2.06457  0.629
Cu  Cu3  1  0.49999581  0.75001474  0.37638323  1  0.699571  0.93307  0.772953  2.064096  0.628
H  H4  1  0.07160467  0.87551100  0.76536050  1  0.308483  0.401507  0.000199  0.916634  0.0
H  H5  1  0.92839681  0.62445569  0.76531238  1  0.308535  0.401623  0.000198  0.916595  0.0
H  H6  1  0.07165329  0.12447797  0.73464604  1  0.308525  0.401597  0.0002  0.916604  0.0
H  H7  1  0.92835316  0.37553232  0.73468462  1  0.308561  0.401704  0.000199  0.916492  0.0
H  H8  1  0.92836764  0.12443535  0.23464749  1  0.308512  0.401614  0.000196  0.916656  0.0
H  H9  1  0.07168758  0.37555379  0.23460748  1  0.308553  0.401689  0.000197  0.916408  0.0
H  H10  1  0.92832104  0.87555946  0.26533326  1  0.308556  0.401666  0.000195  0.916558  0.0
H  H11  1  0.07165786  0.62446474  0.26538895  1  0.308501  0.401579  0.000195  0.916645  0.0
H  H12  1  0.20941617  0.77856839  0.65139643  1  0.301486  0.388165  0.000124  0.951259  0.0
H  H13  1  0.79059092  0.72140856  0.65136615  1  0.301494  0.38811  0.000124  0.951295  0.0
H  H14  1  0.20943262  0.22141723  0.84860481  1  0.301486  0.388156  0.000126  0.951309  0.0
H  H15  1  0.79056007  0.27857971  0.84863000  1  0.301559  0.388237  0.000126  0.951156  0.0
H  H16  1  0.79062950  0.22138935  0.34860951  1  0.301585  0.388267  0.000127  0.951099  0.0
H  H17  1  0.20942826  0.27860610  0.34857933  1  0.301624  0.388296  0.000127  0.951014  0.0
H  H18  1  0.79058860  0.77859018  0.15138576  1  0.30145  0.388165  0.000125  0.951256  0.0
H  H19  1  0.20939796  0.72141632  0.15141487  1  0.301494  0.388183  0.000125  0.951151  0.0
C  C20  1  0.63068268  0.01863659  0.95876671  1  0.211579  0.492063  -0.005679  4.167997  -0.005
C  C21  1  0.36928400  0.48135424  0.95875612  1  0.211295  0.491488  -0.005678  4.168245  -0.005
C  C22  1  0.63070599  0.98136367  0.54124212  1  0.211779  0.492343  -0.005669  4.168165  -0.005
C  C23  1  0.36928636  0.51865043  0.54124064  1  0.211608  0.492051  -0.005673  4.167909  -0.005
C  C24  1  0.36925293  0.98135219  0.04122489  1  0.211404  0.491923  -0.005682  4.167705  -0.005
C  C25  1  0.63073518  0.51864593  0.04120473  1  0.211379  0.491991  -0.00568  4.167887  -0.005
C  C26  1  0.36921536  0.01867272  0.45877612  1  0.211041  0.491448  -0.005669  4.168656  -0.005
C  C27  1  0.63078785  0.48134456  0.45879296  1  0.211192  0.491648  -0.005672  4.16839  -0.005
O  O28  1  0.73471640  0.92540855  0.88440629  1  -0.296593  -0.48908  0.048366  2.374082  0.072
O  O29  1  0.26525299  0.57458723  0.88439254  1  -0.296521  -0.488897  0.048396  2.374155  0.072
O  O30  1  0.73473199  0.07458893  0.61558626  1  -0.296767  -0.489283  0.048391  2.374294  0.072
O  O31  1  0.26525560  0.42542539  0.61560001  1  -0.29669  -0.489096  0.048397  2.374391  0.072
O  O32  1  0.26521106  0.07457713  0.11559043  1  -0.296544  -0.489061  0.048358  2.374055  0.072
O  O33  1  0.73478657  0.42542535  0.11555295  1  -0.296509  -0.489087  0.048342  2.373999  0.072
O  O34  1  0.26522604  0.92544849  0.38443812  1  -0.296459  -0.488967  0.048337  2.374542  0.072
O  O35  1  0.73476766  0.57456960  0.38444384  1  -0.296451  -0.489058  0.048323  2.374248  0.072
O  O36  1  0.27603922  0.85976223  0.02723474  1  -0.297275  -0.505133  0.049804  2.361799  0.074
O  O37  1  0.72394068  0.64022242  0.02720279  1  -0.297254  -0.504876  0.049842  2.361964  0.074
O  O38  1  0.27605561  0.14024665  0.47277630  1  -0.297066  -0.504763  0.049821  2.362454  0.074
O  O39  1  0.72395582  0.35976961  0.47279511  1  -0.297214  -0.504738  0.049832  2.362285  0.074
O  O40  1  0.72390454  0.14021620  0.97276710  1  -0.297348  -0.505028  0.049832  2.362097  0.074
O  O41  1  0.27606015  0.35977568  0.97274269  1  -0.297156  -0.504859  0.049798  2.362409  0.074
O  O42  1  0.72390242  0.85980009  0.52723373  1  -0.297417  -0.505142  0.049818  2.362604  0.074
O  O43  1  0.27608782  0.64022538  0.52724464  1  -0.297245  -0.505119  0.049796  2.362485  0.074
O  O44  1  0.24593713  0.84426344  0.72660993  1  -0.577382  -0.754013  0.020669  2.177995  0.03
O  O45  1  0.75407845  0.65572185  0.72657059  1  -0.577497  -0.754149  0.020617  2.178249  0.029
O  O46  1  0.24595198  0.15572364  0.77340534  1  -0.577423  -0.753989  0.020661  2.178142  0.03
O  O47  1  0.75405465  0.34427116  0.77342999  1  -0.577553  -0.754244  0.020636  2.178138  0.03
O  O48  1  0.75407797  0.15572017  0.27338782  1  -0.577526  -0.754213  0.020613  2.17812  0.029
O  O49  1  0.24599168  0.34427625  0.27335441  1  -0.577521  -0.754157  0.02066  2.177924  0.029
O  O50  1  0.75401625  0.84426722  0.22660777  1  -0.57741  -0.754186  0.020611  2.178095  0.029
O  O51  1  0.24596860  0.65572383  0.22664358  1  -0.577397  -0.754082  0.020639  2.177922  0.029
