# generated using pymatgen
data_CdH19C29(N2O)4
_symmetry_space_group_name_H-M   'P 1'
_cell_length_a   10.55827004
_cell_length_b   10.56234641
_cell_length_c   12.14511078
_cell_angle_alpha   96.35629725
_cell_angle_beta   100.29793538
_cell_angle_gamma   89.67951368
_symmetry_Int_Tables_number   1
_chemical_formula_structural   CdH19C29(N2O)4
_chemical_formula_sum   'Cd2 H38 C58 N16 O8'
_cell_volume   1324.27466514
_cell_formula_units_Z   2
loop_
 _symmetry_equiv_pos_site_id
 _symmetry_equiv_pos_as_xyz
  1  'x, y, z'
loop_
 _atom_site_type_symbol
 _atom_site_label
 _atom_site_symmetry_multiplicity
 _atom_site_fract_x
 _atom_site_fract_y
 _atom_site_fract_z
 _atom_site_occupancy
 _atom_site_hle17_bader_spin_density
 _atom_site_hle17_ddec_charge
 _atom_site_hle17_ddec_spin_density
 _atom_site_hle17_ddec_sum_bond_order
 _atom_site_hle17_magmom
 _atom_site_hse06_10hf_bader_spin_density
 _atom_site_hse06_10hf_ddec_charge
 _atom_site_hse06_10hf_ddec_spin_density
 _atom_site_hse06_10hf_ddec_sum_bond_order
 _atom_site_hse06_10hf_magmom
 _atom_site_hse06_bader_spin_density
 _atom_site_hse06_ddec_charge
 _atom_site_hse06_ddec_spin_density
 _atom_site_hse06_ddec_sum_bond_order
 _atom_site_hse06_magmom
 _atom_site_pbe_bader_spin_density
 _atom_site_pbe_cm5_charge
 _atom_site_pbe_ddec_charge
 _atom_site_pbe_ddec_spin_density
 _atom_site_pbe_ddec_sum_bond_order
 _atom_site_pbe_magmom
Cd  Cd0  1  0.35693352  0.03385027  0.10848629  1  0  1.019226  0  1.759924  0  0  0.798803  0  2.213985  0  0  0.854197  0  2.171434  0  0  0.795635  0.759319  0  2.2437  0
Cd  Cd1  1  0.64310077  0.96608516  0.89152607  1  0  1.019196  0  1.760078  0  0  0.798876  0  2.214021  0  0  0.85422  0  2.171537  0  0  0.795653  0.759386  0  2.243746  0
H  H2  1  0.59729225  0.92141118  0.26619925  1  0  0.29532  0  0.889484  0  0  0.278646  0  0.950656  0  0  0.286858  0  0.943671  0  0  0.322928  0.272854  0  0.955659  0
H  H3  1  0.40274198  0.07857369  0.73384883  1  0  0.295559  0  0.889292  0  0  0.278931  0  0.950488  0  0  0.287158  0  0.943464  0  0  0.322877  0.273126  0  0.955495  0
H  H4  1  0.41858461  0.32034715  0.21309703  1  0  0.292616  0  0.928945  0  0  0.273002  0  0.995978  0  0  0.280926  0  0.989858  0  0  0.31188  0.26732  0  1.000358  0
H  H5  1  0.58138591  0.67958944  0.78689244  1  0  0.292172  0  0.929422  0  0  0.272834  0  0.996212  0  0  0.280729  0  0.99011  0  0  0.311883  0.267168  0  1.000575  0
H  H6  1  0.97154205  0.41255132  0.83307291  1  0  0.258319  0  0.89317  0  0  0.252366  0  0.94377  0  0  0.256281  0  0.942961  0  0  0.325618  0.249134  0  0.944953  0
H  H7  1  0.02843128  0.58750203  0.16696918  1  0  0.258236  0  0.893239  0  0  0.252369  0  0.943733  0  0  0.256284  0  0.942928  0  0  0.325526  0.249139  0  0.944924  0
H  H8  1  0.89581031  0.42206367  0.59999061  1  0  0.276577  0  0.900959  0  0  0.276132  0  0.95021  0  0  0.279429  0  0.948851  0  0  0.310067  0.273632  0  0.951154  0
H  H9  1  0.10429240  0.57761254  0.39995512  1  0  0.276688  0  0.900606  0  0  0.276219  0  0.949897  0  0  0.27951  0  0.948541  0  0  0.31016  0.273731  0  0.950838  0
H  H10  1  0.02877307  0.34414007  0.64093273  1  0  0.277545  0  0.884062  0  0  0.280999  0  0.928695  0  0  0.283906  0  0.927161  0  0  0.311919  0.278176  0  0.93068  0
H  H11  1  0.97142080  0.65578959  0.35929925  1  0  0.277609  0  0.883768  0  0  0.281044  0  0.928453  0  0  0.28395  0  0.926907  0  0  0.311731  0.278216  0  0.930468  0
H  H12  1  0.41040107  0.36546750  0.49856427  1  0  0.108946  0  0.930965  0  0  0.118423  0  0.988767  0  0  0.122884  0  0.985789  0  0  0.108217  0.115232  0  0.99106  0
H  H13  1  0.58963406  0.63458148  0.50140118  1  0  0.108971  0  0.931197  0  0  0.118406  0  0.98903  0  0  0.12286  0  0.986061  0  0  0.108179  0.115213  0  0.991317  0
H  H14  1  0.55790031  0.44041438  0.67536088  1  0  0.113935  0  0.979912  0  0  0.119597  0  1.045708  0  0  0.124317  0  1.042257  0  0  0.10237  0.1161  0  1.04849  0
H  H15  1  0.44211607  0.55964286  0.32461776  1  0  0.113811  0  0.980414  0  0  0.11953  0  1.046137  0  0  0.124251  0  1.042684  0  0  0.102246  0.116036  0  1.048915  0
H  H16  1  0.83336460  0.15459352  0.59228259  1  0  0.094755  0  0.993889  0  0  0.102341  0  1.063905  0  0  0.105808  0  1.061774  0  0  0.099277  0.099918  0  1.065444  0
H  H17  1  0.16664207  0.84541196  0.40775505  1  0  0.09469  0  0.993776  0  0  0.102202  0  1.063869  0  0  0.105745  0  1.06165  0  0  0.099234  0.099762  0  1.06543  0
H  H18  1  0.59346557  0.22196941  0.79184648  1  0  0.097195  0  0.965469  0  0  0.105412  0  1.03185  0  0  0.10846  0  1.030248  0  0  0.103644  0.103209  0  1.032948  0
H  H19  1  0.40656580  0.77800726  0.20816312  1  0  0.097132  0  0.965447  0  0  0.105329  0  1.03189  0  0  0.108376  0  1.030283  0  0  0.103564  0.10313  0  1.032996  0
H  H20  1  0.87161157  0.51792531  0.94795963  1  0  0.064883  0  1.012389  0  0  0.072357  0  1.087074  0  0  0.074698  0  1.086566  0  0  0.088359  0.071001  0  1.087246  0
H  H21  1  0.12824553  0.48221904  0.05201620  1  0  0.064985  0  1.012676  0  0  0.07254  0  1.087239  0  0  0.074927  0  1.086684  0  0  0.088509  0.071181  0  1.08742  0
H  H22  1  0.76375446  0.54431820  0.11422150  1  0  0.09557  0  0.942367  0  0  0.105569  0  1.004819  0  0  0.109979  0  1.001179  0  0  0.100326  0.10266  0  1.006955  0
H  H23  1  0.23609668  0.45577043  0.88576231  1  0  0.095677  0  0.942508  0  0  0.105665  0  1.004966  0  0  0.110064  0  1.001352  0  0  0.100373  0.102758  0  1.0071  0
H  H24  1  0.35980140  0.90993911  0.84587169  1  0  0.080831  0  0.987375  0  0  0.083289  0  1.063306  0  0  0.086474  0  1.059927  0  0  0.114384  0.080746  0  1.066188  0
H  H25  1  0.64024103  0.09001539  0.15414086  1  0  0.080844  0  0.987268  0  0  0.083155  0  1.063447  0  0  0.08634  0  1.060067  0  0  0.11427  0.080597  0  1.066314  0
H  H26  1  0.23364464  0.75340420  0.69730795  1  0  0.110539  0  0.939429  0  0  0.121377  0  0.994058  0  0  0.124387  0  0.993934  0  0  0.111186  0.119256  0  0.994314  0
H  H27  1  0.76637722  0.24659038  0.30268355  1  0  0.110577  0  0.939355  0  0  0.121392  0  0.994011  0  0  0.1244  0  0.993887  0  0  0.11119  0.119265  0  0.994277  0
H  H28  1  0.02082507  0.67185811  0.72895837  1  0  0.103553  0  0.938702  0  0  0.110801  0  1.0028  0  0  0.115377  0  0.998286  0  0  0.106879  0.107485  0  1.005917  0
H  H29  1  0.97916667  0.32818349  0.27100662  1  0  0.103418  0  0.93874  0  0  0.110614  0  1.002946  0  0  0.115194  0  0.998426  0  0  0.106857  0.107296  0  1.006063  0
H  H30  1  0.85071270  0.68627574  0.84959270  1  0  0.115474  0  0.931559  0  0  0.129438  0  0.983981  0  0  0.13304  0  0.981985  0  0  0.111403  0.127132  0  0.985109  0
H  H31  1  0.14926946  0.31377687  0.15035993  1  0  0.115777  0  0.931183  0  0  0.129686  0  0.983678  0  0  0.133272  0  0.981712  0  0  0.111472  0.127372  0  0.984821  0
H  H32  1  0.78860608  0.74788653  0.03496068  1  0  0.10543  0  0.970345  0  0  0.113531  0  1.034274  0  0  0.11646  0  1.033561  0  0  0.103832  0.110703  0  1.036086  0
H  H33  1  0.21138727  0.25213967  0.96500676  1  0  0.105382  0  0.970082  0  0  0.113382  0  1.034107  0  0  0.116313  0  1.033389  0  0  0.103801  0.110536  0  1.035964  0
H  H34  1  0.83981431  0.86561738  0.23071938  1  0  0.109925  0  0.925115  0  0  0.120915  0  0.984748  0  0  0.125028  0  0.980753  0  0  0.111009  0.117776  0  0.987958  0
H  H35  1  0.16018495  0.13437132  0.76925253  1  0  0.109938  0  0.925244  0  0  0.120879  0  0.984912  0  0  0.124994  0  0.980913  0  0  0.11103  0.117742  0  0.988115  0
H  H36  1  0.98845853  0.01005334  0.37026246  1  0  0.127886  0  0.938889  0  0  0.137002  0  0.995177  0  0  0.141028  0  0.992935  0  0  0.113779  0.134024  0  0.997234  0
H  H37  1  0.01153630  0.98994467  0.62971739  1  0  0.127899  0  0.938941  0  0  0.136986  0  0.995237  0  0  0.141061  0  0.992937  0  0  0.113832  0.133961  0  0.997349  0
H  H38  1  0.19700578  0.08101013  0.31904903  1  0  0.098238  0  0.94317  0  0  0.10458  0  1.006725  0  0  0.107834  0  1.003797  0  0  0.119399  0.102106  0  1.008988  0
H  H39  1  0.80299183  0.91898107  0.68093367  1  0  0.098373  0  0.943138  0  0  0.104749  0  1.006671  0  0  0.107992  0  1.003774  0  0  0.119425  0.102276  0  1.008926  0
C  C40  1  0.50249673  0.31949109  0.52138772  1  0  -0.050923  0  3.706125  0  0  -0.073049  0  3.951793  0  0  -0.074601  0  3.969724  0  0  -0.075902  -0.072085  0  3.939857  0
C  C41  1  0.49753630  0.68053823  0.47859315  1  0  -0.050765  0  3.706569  0  0  -0.072823  0  3.952227  0  0  -0.074384  0  3.970191  0  0  -0.075782  -0.071843  0  3.940279  0
C  C42  1  0.58702366  0.36273007  0.61861749  1  0  -0.083607  0  3.70159  0  0  -0.103012  0  3.947078  0  0  -0.103152  0  3.964602  0  0  -0.078258  -0.102482  0  3.93516  0
C  C43  1  0.41299539  0.63730754  0.38137477  1  0  -0.083747  0  3.701807  0  0  -0.103273  0  3.947379  0  0  -0.103421  0  3.964909  0  0  -0.078193  -0.102732  0  3.935475  0
C  C44  1  0.70904486  0.30580396  0.64576142  1  0  -0.000413  0  3.823641  0  0  0.018242  0  4.061986  0  0  0.016314  0  4.084588  0  0  -0.015843  0.019759  0  4.045979  0
C  C45  1  0.29095112  0.69422784  0.35423674  1  0  -0.000337  0  3.823692  0  0  0.01833  0  4.062073  0  0  0.016426  0  4.084679  0  0  -0.015947  0.01984  0  4.046124  0
C  C46  1  0.74183462  0.20254498  0.57359789  1  0  -0.120396  0  3.717349  0  0  -0.154305  0  3.969184  0  0  -0.153496  0  3.986455  0  0  -0.088799  -0.154155  0  3.956893  0
C  C47  1  0.25816967  0.79745940  0.42641703  1  0  -0.120176  0  3.716825  0  0  -0.153994  0  3.968678  0  0  -0.153244  0  3.985906  0  0  -0.088665  -0.153815  0  3.956412  0
C  C48  1  0.65257602  0.15292423  0.47944647  1  0  -0.059041  0  3.768435  0  0  -0.044911  0  4.004177  0  0  -0.050372  0  4.02576  0  0  -0.013787  -0.041511  0  3.989074  0
C  C49  1  0.34743853  0.84709785  0.52058032  1  0  -0.058924  0  3.767779  0  0  -0.044982  0  4.003739  0  0  -0.050456  0  4.02536  0  0  -0.013862  -0.041586  0  3.988641  0
C  C50  1  0.53337771  0.21369271  0.45089120  1  0  -0.039246  0  3.742733  0  0  -0.025653  0  3.975353  0  0  -0.027254  0  3.995028  0  0  -0.007236  -0.02428  0  3.961397  0
C  C51  1  0.46664879  0.78632431  0.54911442  1  0  -0.039345  0  3.742624  0  0  -0.025823  0  3.975341  0  0  -0.02743  0  3.995031  0  0  -0.007197  -0.024441  0  3.961387  0
C  C52  1  0.44524588  0.16908606  0.34656500  1  0  0.445044  0  3.960184  0  0  0.401604  0  4.254072  0  0  0.426536  0  4.259937  0  0  0.192853  0.385292  0  4.248356  0
C  C53  1  0.55477347  0.83090982  0.65344442  1  0  0.444777  0  3.960299  0  0  0.401455  0  4.254122  0  0  0.426392  0  4.259982  0  0  0.192736  0.385144  0  4.248419  0
C  C54  1  0.68095104  0.03491258  0.41150073  1  0  0.478657  0  3.908174  0  0  0.433222  0  4.204301  0  0  0.460887  0  4.206716  0  0  0.213618  0.414571  0  4.20203  0
C  C55  1  0.31907560  0.96509415  0.58852506  1  0  0.478391  0  3.908149  0  0  0.433173  0  4.204079  0  0  0.460838  0  4.20651  0  0  0.213563  0.414524  0  4.201775  0
C  C56  1  0.62963554  0.29532324  0.86022541  1  0  -0.090962  0  3.685371  0  0  -0.122081  0  3.938927  0  0  -0.121428  0  3.958199  0  0  -0.082744  -0.12288  0  3.92671  0
C  C57  1  0.37034456  0.70468367  0.13977569  1  0  -0.090634  0  3.684649  0  0  -0.121783  0  3.938359  0  0  -0.12111  0  3.957621  0  0  -0.082579  -0.122573  0  3.92619  0
C  C58  1  0.73698934  0.37173679  0.85299601  1  0  0.00061  0  3.818276  0  0  0.013317  0  4.063481  0  0  0.007961  0  4.090186  0  0  -0.021616  0.016491  0  4.047094  0
C  C59  1  0.26296913  0.62831253  0.14702700  1  0  0.000223  0  3.817797  0  0  0.012868  0  4.063154  0  0  0.007425  0  4.090061  0  0  -0.021711  0.016091  0  4.046766  0
C  C60  1  0.78785166  0.45865617  0.94932910  1  0  -0.114765  0  3.750442  0  0  -0.137688  0  4.014537  0  0  -0.138498  0  4.035464  0  0  -0.100864  -0.138088  0  4.001621  0
C  C61  1  0.21203818  0.54144166  0.05065885  1  0  -0.11486  0  3.749407  0  0  -0.137823  0  4.013461  0  0  -0.138673  0  4.03438  0  0  -0.101233  -0.138202  0  4.000569  0
C  C62  1  0.72851538  0.47458293  0.04215354  1  0  -0.062372  0  3.747162  0  0  -0.087553  0  4.005181  0  0  -0.088293  0  4.025565  0  0  -0.088084  -0.087546  0  3.992744  0
C  C63  1  0.27137937  0.52548649  0.95782502  1  0  -0.06235  0  3.746377  0  0  -0.087593  0  4.004506  0  0  -0.088334  0  4.024935  0  0  -0.088034  -0.087578  0  3.992068  0
C  C64  1  0.61942037  0.40023664  0.04713438  1  0  -0.075972  0  3.762194  0  0  -0.062292  0  3.998756  0  0  -0.069062  0  4.024717  0  0  -0.019055  -0.058533  0  3.982781  0
C  C65  1  0.38050764  0.59977805  0.95284465  1  0  -0.07614  0  3.762911  0  0  -0.062595  0  3.999333  0  0  -0.06938  0  4.02533  0  0  -0.019008  -0.058803  0  3.983377  0
C  C66  1  0.57468375  0.30597239  0.95623724  1  0  -0.049945  0  3.800131  0  0  -0.035588  0  4.034459  0  0  -0.040417  0  4.057728  0  0  -0.016672  -0.032517  0  4.019327  0
C  C67  1  0.42528889  0.69401498  0.04374969  1  0  -0.050117  0  3.79976  0  0  -0.035895  0  4.034347  0  0  -0.040732  0  4.057624  0  0  -0.01697  -0.032823  0  4.01926  0
C  C68  1  0.48236419  0.20941358  0.97181704  1  0  0.446029  0  3.936719  0  0  0.402172  0  4.220722  0  0  0.428348  0  4.225789  0  0  0.192655  0.38464  0  4.216405  0
C  C69  1  0.51764725  0.79053661  0.02818730  1  0  0.446114  0  3.936439  0  0  0.402227  0  4.220531  0  0  0.428417  0  4.225587  0  0  0.192752  0.384696  0  4.216235  0
C  C70  1  0.55968460  0.41249114  0.14719859  1  0  0.473465  0  3.924781  0  0  0.426657  0  4.22397  0  0  0.452587  0  4.229656  0  0  0.20807  0.408925  0  4.220261  0
C  C71  1  0.44024416  0.58749794  0.85280129  1  0  0.472659  0  3.926583  0  0  0.426432  0  4.22527  0  0  0.452321  0  4.230992  0  0  0.207906  0.408704  0  4.221579  0
C  C72  1  0.79136679  0.35411689  0.75255794  1  0  0.124439  0  3.697854  0  0  0.108469  0  3.9591  0  0  0.118371  0  3.978909  0  0  0.110754  0.101639  0  3.946068  0
C  C73  1  0.20861820  0.64591895  0.24746306  1  0  0.124836  0  3.698247  0  0  0.108673  0  3.959667  0  0  0.118581  0  3.979483  0  0  0.110889  0.101881  0  3.946741  0
C  C74  1  0.27012604  0.86855984  0.85808731  1  0  0.148894  0  3.685991  0  0  0.109026  0  3.952665  0  0  0.119919  0  3.966269  0  0  0.049141  0.102255  0  3.943529  0
C  C75  1  0.72990136  0.13141612  0.14191586  1  0  0.149071  0  3.685882  0  0  0.109203  0  3.952736  0  0  0.120092  0  3.966346  0  0  0.049286  0.10245  0  3.943567  0
C  C76  1  0.19741092  0.78274172  0.77455798  1  0  -0.1034  0  3.718581  0  0  -0.117738  0  3.977618  0  0  -0.124109  0  3.995408  0  0  -0.081011  -0.114458  0  3.965551  0
C  C77  1  0.80260120  0.21725117  0.22542864  1  0  -0.103744  0  3.718723  0  0  -0.117991  0  3.977735  0  0  -0.124366  0  3.995536  0  0  -0.081067  -0.114708  0  3.965653  0
C  C78  1  0.08051297  0.73842776  0.79204588  1  0  -0.043056  0  3.673401  0  0  -0.069085  0  3.925284  0  0  -0.063378  0  3.938408  0  0  -0.063795  -0.07087  0  3.915611  0
C  C79  1  0.91948891  0.26158957  0.20792746  1  0  -0.042556  0  3.673376  0  0  -0.068698  0  3.925094  0  0  -0.062986  0  3.938214  0  0  -0.063714  -0.070495  0  3.915422  0
C  C80  1  0.03856765  0.77891162  0.89431838  1  0  0.026686  0  3.792119  0  0  0.04256  0  4.024485  0  0  0.039067  0  4.049055  0  0  -0.003803  0.043925  0  4.008873  0
C  C81  1  0.96143424  0.22110470  0.10565648  1  0  0.026216  0  3.792816  0  0  0.042511  0  4.024492  0  0  0.039021  0  4.049053  0  0  -0.004062  0.043883  0  4.008869  0
C  C82  1  0.91703627  0.74107938  0.91703386  1  0  -0.099239  0  3.736806  0  0  -0.123251  0  3.994032  0  0  -0.124135  0  4.012503  0  0  -0.085747  -0.121558  0  3.981609  0
C  C83  1  0.08296193  0.25895268  0.08292922  1  0  -0.099728  0  3.737198  0  0  -0.123845  0  3.994313  0  0  -0.124724  0  4.012775  0  0  -0.085896  -0.122148  0  3.981881  0
C  C84  1  0.88226782  0.77635102  0.01930441  1  0  -0.121578  0  3.753387  0  0  -0.14542  0  4.017911  0  0  -0.147331  0  4.036276  0  0  -0.09461  -0.143339  0  4.004325  0
C  C85  1  0.11772838  0.22366920  0.98066930  1  0  -0.12113  0  3.753249  0  0  -0.144834  0  4.017864  0  0  -0.146737  0  4.036236  0  0  -0.094481  -0.142769  0  4.004273  0
C  C86  1  0.96488274  0.85503307  0.10558593  1  0  0.020701  0  3.812607  0  0  0.033395  0  4.055845  0  0  0.031948  0  4.077986  0  0  -0.008665  0.035584  0  4.038858  0
C  C87  1  0.03511971  0.14496602  0.89438936  1  0  0.020737  0  3.812297  0  0  0.033438  0  4.055718  0  0  0.031972  0  4.077905  0  0  -0.008525  0.035633  0  4.038706  0
C  C88  1  0.93123797  0.89593751  0.21124018  1  0  -0.040206  0  3.674981  0  0  -0.072558  0  3.93776  0  0  -0.068951  0  3.952453  0  0  -0.066454  -0.075324  0  3.927529  0
C  C89  1  0.06876251  0.10405568  0.78873988  1  0  -0.040532  0  3.675323  0  0  -0.072781  0  3.938084  0  0  -0.069183  0  3.952808  0  0  -0.066522  -0.075536  0  3.927815  0
C  C90  1  0.01348644  0.97668706  0.28886307  1  0  -0.121045  0  3.721027  0  0  -0.133981  0  3.979549  0  0  -0.139727  0  3.997895  0  0  -0.081993  -0.130734  0  3.968658  0
C  C91  1  0.98651512  0.02331091  0.71111690  1  0  -0.120803  0  3.721268  0  0  -0.133698  0  3.97976  0  0  -0.139481  0  3.998079  0  0  -0.08201  -0.13042  0  3.968886  0
C  C92  1  0.13007249  0.01567064  0.26102472  1  0  0.156865  0  3.666325  0  0  0.121917  0  3.924527  0  0  0.130972  0  3.93965  0  0  0.060887  0.115743  0  3.915621  0
C  C93  1  0.86993281  0.98431950  0.73895977  1  0  0.156444  0  3.666826  0  0  0.121422  0  3.925036  0  0  0.130476  0  3.940169  0  0  0.060711  0.115255  0  3.916114  0
C  C94  1  0.12164492  0.86065628  0.97699293  1  0  0.132782  0  3.749887  0  0  0.127706  0  3.982234  0  0  0.132604  0  4.004703  0  0  0.116209  0.124303  0  3.966721  0
C  C95  1  0.87836242  0.13933761  0.02299313  1  0  0.132849  0  3.749704  0  0  0.127974  0  3.981797  0  0  0.132858  0  4.004298  0  0  0.116467  0.124556  0  3.966287  0
C  C96  1  0.08441059  0.89891060  0.08440978  1  0  0.120943  0  3.757435  0  0  0.111212  0  3.997552  0  0  0.115834  0  4.019649  0  0  0.107308  0.107716  0  3.982605  0
C  C97  1  0.91559468  0.10107859  0.91557459  1  0  0.121102  0  3.756831  0  0  0.110957  0  3.99744  0  0  0.115571  0  4.019571  0  0  0.107297  0.107468  0  3.982474  0
N  N98  1  0.47293044  0.06078181  0.28775420  1  0  -0.382409  0  3.164799  0  0  -0.323637  0  3.455674  0  0  -0.347707  0  3.474229  0  0  -0.288092  -0.306989  0  3.441186  0
N  N99  1  0.52709190  0.93921283  0.71226291  1  0  -0.382172  0  3.165797  0  0  -0.32343  0  3.456725  0  0  -0.347508  0  3.475317  0  0  -0.287972  -0.306798  0  3.442211  0
N  N100  1  0.58373378  0.99646436  0.32385208  1  0  -0.266364  0  3.419442  0  0  -0.216654  0  3.665192  0  0  -0.234225  0  3.6814  0  0  -0.301338  -0.204777  0  3.653639  0
N  N101  1  0.41630332  0.00353251  0.67618058  1  0  -0.26667  0  3.420203  0  0  -0.217174  0  3.665969  0  0  -0.234748  0  3.682187  0  0  -0.301383  -0.20524  0  3.654349  0
N  N102  1  0.43081498  0.22140028  0.06449864  1  0  -0.370499  0  3.208722  0  0  -0.304253  0  3.491219  0  0  -0.327049  0  3.509018  0  0  -0.277518  -0.288133  0  3.479218  0
N  N103  1  0.56919243  0.77854631  0.93549974  1  0  -0.37071  0  3.208481  0  0  -0.304298  0  3.491302  0  0  -0.327134  0  3.509073  0  0  -0.277571  -0.288178  0  3.479317  0
N  N104  1  0.46149219  0.32583137  0.14346907  1  0  -0.286794  0  3.382947  0  0  -0.237769  0  3.628843  0  0  -0.256973  0  3.647791  0  0  -0.305806  -0.224171  0  3.61548  0
N  N105  1  0.53847086  0.67411587  0.85651817  1  0  -0.285714  0  3.383383  0  0  -0.237461  0  3.629481  0  0  -0.256566  0  3.648395  0  0  -0.305858  -0.223877  0  3.616122  0
N  N106  1  0.91798255  0.38075245  0.75705258  1  0  -0.185679  0  3.420461  0  0  -0.136605  0  3.680011  0  0  -0.153316  0  3.69986  0  0  -0.320265  -0.125222  0  3.666592  0
N  N107  1  0.08200498  0.61932537  0.24299864  1  0  -0.185841  0  3.420314  0  0  -0.137079  0  3.680081  0  0  -0.153802  0  3.699947  0  0  -0.320467  -0.125631  0  3.666701  0
N  N108  1  0.97052691  0.41582680  0.66559666  1  0  -0.476038  0  2.928239  0  0  -0.476975  0  3.150243  0  0  -0.486838  0  3.155371  0  0  -0.500257  -0.469512  0  3.145621  0
N  N109  1  0.02951669  0.58407513  0.33444173  1  0  -0.476343  0  2.927434  0  0  -0.477268  0  3.149507  0  0  -0.487124  0  3.154654  0  0  -0.500299  -0.46981  0  3.144899  0
N  N110  1  0.23477479  0.90504739  0.95683874  1  0  -0.363217  0  3.264949  0  0  -0.285016  0  3.525105  0  0  -0.304709  0  3.543451  0  0  -0.328358  -0.271663  0  3.512228  0
N  N111  1  0.76524867  0.09493077  0.04315674  1  0  -0.363298  0  3.265071  0  0  -0.285105  0  3.525056  0  0  -0.3048  0  3.543404  0  0  -0.328477  -0.271756  0  3.512171  0
N  N112  1  0.16421392  0.97759891  0.16236661  1  0  -0.36182  0  3.272852  0  0  -0.28776  0  3.542148  0  0  -0.30779  0  3.561554  0  0  -0.329525  -0.274701  0  3.529308  0
N  N113  1  0.83579915  0.02239100  0.83762307  1  0  -0.361674  0  3.273049  0  0  -0.287468  0  3.54246  0  0  -0.307461  0  3.561787  0  0  -0.329454  -0.274413  0  3.529616  0
O  O114  1  0.34639853  0.23255787  0.30784463  1  0  -0.638335  0  1.904905  0  0  -0.597427  0  2.133491  0  0  -0.61948  0  2.125276  0  0  -0.3559  -0.581285  0  2.138375  0
O  O115  1  0.65362042  0.76742577  0.69215912  1  0  -0.638339  0  1.904635  0  0  -0.59752  0  2.133186  0  0  -0.619582  0  2.124976  0  0  -0.355997  -0.581377  0  2.138072  0
O  O116  1  0.78215917  0.97255265  0.43056199  1  0  -0.581449  0  1.868506  0  0  -0.546507  0  2.080663  0  0  -0.566617  0  2.074016  0  0  -0.337661  -0.531952  0  2.084591  0
O  O117  1  0.21786607  0.02746710  0.56947509  1  0  -0.581428  0  1.868069  0  0  -0.546541  0  2.080167  0  0  -0.566664  0  2.073541  0  0  -0.337729  -0.531988  0  2.084085  0
O  O118  1  0.45796889  0.10669050  0.90231408  1  0  -0.66504  0  2.023089  0  0  -0.600104  0  2.27919  0  0  -0.625845  0  2.269073  0  0  -0.349812  -0.581032  0  2.285313  0
O  O119  1  0.54209064  0.89325525  0.09769982  1  0  -0.66512  0  2.023115  0  0  -0.600074  0  2.279128  0  0  -0.625819  0  2.269007  0  0  -0.349818  -0.580952  0  2.285144  0
O  O120  1  0.59127169  0.49368399  0.23064376  1  0  -0.567633  0  1.885671  0  0  -0.532352  0  2.097758  0  0  -0.553011  0  2.093391  0  0  -0.333521  -0.518137  0  2.100268  0
O  O121  1  0.40864991  0.50630000  0.76933883  1  0  -0.56759  0  1.885942  0  0  -0.532449  0  2.097769  0  0  -0.553134  0  2.093431  0  0  -0.333548  -0.518217  0  2.100269  0
