# generated using pymatgen
data_CuH18C22(N2O3)2
_symmetry_space_group_name_H-M   'P 1'
_cell_length_a   10.00718753
_cell_length_b   10.48629321
_cell_length_c   11.25759900
_cell_angle_alpha   107.21002827
_cell_angle_beta   97.96904136
_cell_angle_gamma   92.91975214
_symmetry_Int_Tables_number   1
_chemical_formula_structural   CuH18C22(N2O3)2
_chemical_formula_sum   'Cu2 H36 C44 N8 O12'
_cell_volume   1112.27028754
_cell_formula_units_Z   2
loop_
 _symmetry_equiv_pos_site_id
 _symmetry_equiv_pos_as_xyz
  1  'x, y, z'
loop_
 _atom_site_type_symbol
 _atom_site_label
 _atom_site_symmetry_multiplicity
 _atom_site_fract_x
 _atom_site_fract_y
 _atom_site_fract_z
 _atom_site_occupancy
 _atom_site_pbe_cm5_charge
 _atom_site_pbe_ddec_charge
 _atom_site_pbe_ddec_spin_density
 _atom_site_pbe_ddec_sum_bond_order
 _atom_site_pbe_magmom
Cu  Cu0  1  0.86319258  0.15628822  0.51135550  1  0.744859  0.801454  -0.753099  2.223544  -0.565
Cu  Cu1  1  0.13682540  0.84369666  0.48863755  1  0.744947  0.80149  0.75312  2.223812  0.565
H  H2  1  0.27615646  0.41303132  0.06402709  1  0.313209  0.278868  1.9e-05  0.962993  0.0
H  H3  1  0.72384105  0.58696376  0.93597633  1  0.313191  0.278815  -1.9e-05  0.963119  0.0
H  H4  1  0.41327825  0.14287054  0.51368800  1  0.102875  0.119289  -0.000455  1.010404  0.0
H  H5  1  0.58673864  0.85712440  0.48631116  1  0.102998  0.11936  0.000456  1.010394  0.0
H  H6  1  0.49092440  0.83713022  0.21120668  1  0.324755  0.282593  3.3e-05  0.929544  0.0
H  H7  1  0.50906906  0.16287291  0.78879386  1  0.324725  0.282576  -3.3e-05  0.92959  0.0
H  H8  1  0.16598677  0.47023498  0.61490560  1  0.107321  0.112348  -0.000109  0.999762  0.0
H  H9  1  0.83402051  0.52975205  0.38511132  1  0.107336  0.112419  0.000109  0.999588  0.0
H  H10  1  0.37478598  0.63145309  0.69289048  1  0.097334  0.096245  -0.000157  1.011921  0.0
H  H11  1  0.62521633  0.36853498  0.30712686  1  0.097291  0.096231  0.000157  1.01173  0.0
H  H12  1  0.60166963  0.54750855  0.66794826  1  0.106124  0.114655  1.3e-05  0.990332  0.0
H  H13  1  0.39833579  0.45249552  0.33206144  1  0.106144  0.114696  -1.4e-05  0.990338  0.0
H  H14  1  0.00175172  0.38109990  0.70981598  1  0.128942  0.109357  -0.000965  1.010451  -0.001
H  H15  1  0.99825582  0.61890314  0.29018753  1  0.128949  0.109396  0.000964  1.010363  0.001
H  H16  1  0.31703356  0.63918497  0.20941364  1  0.107817  0.086246  -3.8e-05  1.035564  0.0
H  H17  1  0.68296819  0.36081209  0.79059094  1  0.107806  0.086235  3.8e-05  1.035733  0.0
H  H18  1  0.23332704  0.69849033  0.08909597  1  0.109233  0.084992  1e-06  1.011371  0.0
H  H19  1  0.76666671  0.30150881  0.91091243  1  0.1092  0.084992  -1e-06  1.011289  0.0
H  H20  1  0.11163989  0.25230983  0.03753588  1  0.119214  0.121151  -7.7e-05  0.977427  0.0
H  H21  1  0.88834584  0.74768835  0.96246661  1  0.119195  0.121137  7.7e-05  0.977442  0.0
H  H22  1  0.97929933  0.03112254  0.91613789  1  0.104726  0.10592  -0.00055  1.018749  -0.001
H  H23  1  0.02068617  0.96887262  0.08386108  1  0.104792  0.106036  0.000549  1.018794  0.001
H  H24  1  0.87162148  0.99456977  0.69223553  1  0.124857  0.107042  -0.001041  0.998934  -0.001
H  H25  1  0.12835975  0.00544147  0.30776450  1  0.12482  0.107017  0.001041  0.999014  0.001
H  H26  1  0.68773476  0.94422953  0.32435086  1  0.122844  0.102053  -0.001027  1.039643  -0.002
H  H27  1  0.31226232  0.05578660  0.67564664  1  0.122799  0.101955  0.001026  1.039734  0.002
H  H28  1  0.50735554  0.57951929  0.08989893  1  0.104856  0.075607  -1.2e-05  1.002919  0.0
H  H29  1  0.49264181  0.42048079  0.91009604  1  0.104849  0.075588  1.2e-05  1.002912  0.0
H  H30  1  0.42272991  0.62849233  0.96296350  1  0.112123  0.08995  1e-06  0.992021  0.0
H  H31  1  0.57725635  0.37150883  0.03703366  1  0.112132  0.089994  -1e-06  0.991978  0.0
H  H32  1  0.68324994  0.02215294  0.96709147  1  0.10881  0.106641  -7e-05  0.993827  0.0
H  H33  1  0.31675277  0.97784108  0.03290444  1  0.108729  0.106535  7e-05  0.993738  0.0
H  H34  1  0.82708209  0.24214616  0.08909256  1  0.107023  0.124209  -0.000432  1.063522  0.0
H  H35  1  0.17292889  0.75785479  0.91089223  1  0.107022  0.124217  0.000431  1.063553  0.0
H  H36  1  0.90404777  0.28713635  0.31915033  1  0.132566  0.116531  -0.00076  0.970119  -0.001
H  H37  1  0.09595560  0.71287069  0.68084031  1  0.132588  0.116576  0.000759  0.970062  0.001
C  C38  1  0.65868501  0.29402287  0.57102865  1  0.177127  0.527135  7.4e-05  4.281586  0.003
C  C39  1  0.34136332  0.70594576  0.42897076  1  0.176972  0.527251  -7.2e-05  4.28056  -0.003
C  C40  1  0.52124729  0.34070620  0.58881444  1  -0.026618  -0.040501  -0.006662  3.998246  -0.007
C  C41  1  0.47877240  0.65929473  0.41118232  1  -0.026573  -0.040387  0.006643  3.998947  0.007
C  C42  1  0.40479530  0.25009483  0.55216984  1  -0.088689  -0.12675  -0.001538  3.943064  -0.001
C  C43  1  0.59521451  0.74990918  0.44782983  1  -0.088699  -0.126656  0.001542  3.943104  0.001
C  C44  1  0.27672083  0.29688579  0.56171083  1  -0.025863  -0.042328  -0.006194  3.982732  -0.007
C  C45  1  0.72327585  0.70311131  0.43829390  1  -0.025877  -0.042439  0.006185  3.982986  0.007
C  C46  1  0.15348620  0.19707720  0.52285585  1  0.199195  0.568705  -0.00077  4.234619  0.002
C  C47  1  0.84650251  0.80290585  0.47712700  1  0.199264  0.568923  0.000772  4.234555  -0.002
C  C48  1  0.26606514  0.43463319  0.61099042  1  -0.077427  -0.074204  -0.000422  3.941076  0.0
C  C49  1  0.73394467  0.56536179  0.38900859  1  -0.0774  -0.074213  0.000421  3.940816  0.0
C  C50  1  0.38287718  0.52445423  0.65336069  1  -0.091352  -0.079006  -0.000457  4.012504  0.0
C  C51  1  0.61712521  0.47555291  0.34665915  1  -0.091338  -0.079123  0.000457  4.012303  0.0
C  C52  1  0.50978847  0.47829865  0.64077948  1  -0.081111  -0.087941  -0.001305  3.957059  -0.001
C  C53  1  0.49020903  0.52171551  0.35922909  1  -0.081004  -0.087874  0.001304  3.957306  0.001
C  C54  1  0.00276360  0.30490875  0.75766355  1  0.063448  0.084541  0.001301  3.874693  0.002
C  C55  1  0.99724032  0.69509732  0.24233757  1  0.063427  0.084514  -0.001302  3.874415  -0.002
C  C56  1  0.07077797  0.33284394  0.88087829  1  -0.00725  -0.066647  -0.003392  3.961765  -0.004
C  C57  1  0.92921709  0.66716622  0.11912884  1  -0.007195  -0.06657  0.003391  3.961781  0.004
C  C58  1  0.13862162  0.47208108  0.94101843  1  0.238763  0.465944  -0.000437  4.168815  0.0
C  C59  1  0.86138343  0.52791999  0.05899217  1  0.238699  0.465861  0.000437  4.168935  0.0
C  C60  1  0.30289257  0.62693003  0.10838372  1  -0.060425  -0.029414  -0.00011  3.900565  0.0
C  C61  1  0.69710695  0.37307407  0.89162066  1  -0.060381  -0.02946  0.00011  3.900802  0.0
C  C62  1  0.06320900  0.23363272  0.94040836  1  -0.056854  -0.043354  0.002602  3.940219  0.002
C  C63  1  0.93677760  0.76637348  0.05959555  1  -0.056928  -0.043343  -0.002602  3.940366  -0.002
C  C64  1  0.98922171  0.11102094  0.87357396  1  -0.086805  -0.136479  -0.003804  3.999411  -0.004
C  C65  1  0.01076626  0.88898522  0.12641947  1  -0.086882  -0.136688  0.003804  3.999442  0.004
C  C66  1  0.92773390  0.08937996  0.74971967  1  0.055053  0.098504  -0.000593  3.90713  0.0
C  C67  1  0.07225496  0.91062620  0.25027745  1  0.055135  0.09865  0.000593  3.906977  0.0
C  C68  1  0.71274994  0.00564001  0.26589579  1  0.051814  0.064354  7e-06  3.883927  0.001
C  C69  1  0.28725109  0.99436707  0.73410429  1  0.051978  0.064689  -7e-06  3.883581  -0.001
C  C70  1  0.67064291  0.96766167  0.13574900  1  -0.011802  -0.078289  -0.003742  3.99949  -0.004
C  C71  1  0.32934784  0.03233546  0.86425130  1  -0.011884  -0.078427  0.003741  3.999713  0.004
C  C72  1  0.59536565  0.83371298  0.06516667  1  0.237518  0.470314  -0.000704  4.170992  -0.001
C  C73  1  0.40462003  0.16628419  0.93483377  1  0.237375  0.470076  0.000704  4.171238  0.001
C  C74  1  0.43796000  0.64935413  0.06572806  1  -0.060839  -0.031213  -2.7e-05  3.920677  0.0
C  C75  1  0.56203657  0.35064897  0.93427028  1  -0.060869  -0.031229  2.7e-05  3.920788  0.0
C  C76  1  0.71323285  0.05168098  0.06911676  1  -0.061709  -0.046405  0.002744  3.940516  0.003
C  C77  1  0.28676018  0.94830708  0.93087520  1  -0.0616  -0.046307  -0.002743  3.940529  -0.003
C  C78  1  0.79394888  0.17034071  0.13455008  1  -0.084634  -0.134564  -0.003632  3.954822  -0.004
C  C79  1  0.20605262  0.82965030  0.86544128  1  -0.084589  -0.134426  0.00363  3.954946  0.004
C  C80  1  0.83579417  0.19876295  0.26394300  1  0.062742  0.105354  0.000885  3.884694  0.001
C  C81  1  0.16420418  0.80123814  0.73605595  1  0.062725  0.10531  -0.000885  3.88448  -0.001
N  N82  1  0.93552194  0.18516931  0.69289205  1  -0.342415  -0.211883  -0.053612  3.613297  -0.067
N  N83  1  0.06448122  0.81483978  0.30711156  1  -0.34242  -0.211978  0.053599  3.613095  0.067
N  N84  1  0.23833211  0.49283797  0.04108998  1  -0.415985  -0.344738  -0.000295  3.535077  0.0
N  N85  1  0.76166695  0.50716313  0.95891796  1  -0.415939  -0.344619  0.000295  3.534939  0.0
N  N86  1  0.79653887  0.11708347  0.32753560  1  -0.340011  -0.207171  -0.054238  3.610496  -0.068
N  N87  1  0.20346295  0.88291957  0.67245728  1  -0.340098  -0.207366  0.054226  3.610221  0.068
N  N88  1  0.50160369  0.78590775  0.12153414  1  -0.415988  -0.35322  -0.0001  3.538378  0.0
N  N89  1  0.49839394  0.21409635  0.87846640  1  -0.415895  -0.353101  0.0001  3.538162  0.0
O  O90  1  0.75775939  0.37850283  0.58513847  1  -0.331318  -0.557385  -0.000227  2.132301  -0.001
O  O91  1  0.24224494  0.62150818  0.41483739  1  -0.3313  -0.557414  0.000223  2.131915  0.001
O  O92  1  0.66709919  0.16535803  0.54201252  1  -0.342483  -0.556438  -0.079978  2.231896  -0.108
O  O93  1  0.33288107  0.83462714  0.45798742  1  -0.342567  -0.556646  0.080045  2.231277  0.108
O  O94  1  0.03969341  0.24159805  0.49355439  1  -0.327134  -0.563594  -0.070808  2.366655  -0.096
O  O95  1  0.96030304  0.75841206  0.50644138  1  -0.327168  -0.563665  0.070783  2.366535  0.096
O  O96  1  0.10032658  0.56397437  0.89926607  1  -0.296085  -0.497855  -0.000197  2.17391  0.0
O  O97  1  0.89967108  0.43602972  0.10073359  1  -0.296051  -0.497813  0.000197  2.174331  0.0
O  O98  1  0.62095965  0.76972418  0.95961461  1  -0.30884  -0.512211  -0.000858  2.100531  -0.001
O  O99  1  0.37903993  0.23027789  0.04038123  1  -0.308822  -0.512122  0.000857  2.100898  0.001
O  O100  1  0.16804261  0.07883241  0.52320620  1  -0.323542  -0.59846  -0.000911  2.348559  -0.001
O  O101  1  0.83197513  0.92116152  0.47679459  1  -0.323583  -0.598622  0.000909  2.348699  0.001
