# generated using pymatgen
data_HoH6C7O9
_symmetry_space_group_name_H-M   'P 1'
_cell_length_a   9.82556913
_cell_length_b   9.82520711
_cell_length_c   13.06419067
_cell_angle_alpha   95.40003736
_cell_angle_beta   108.93068192
_cell_angle_gamma   116.29594164
_symmetry_Int_Tables_number   1
_chemical_formula_structural   HoH6C7O9
_chemical_formula_sum   'Ho4 H24 C28 O36'
_cell_volume   1026.60399358
_cell_formula_units_Z   4
loop_
 _symmetry_equiv_pos_site_id
 _symmetry_equiv_pos_as_xyz
  1  'x, y, z'
loop_
 _atom_site_type_symbol
 _atom_site_label
 _atom_site_symmetry_multiplicity
 _atom_site_fract_x
 _atom_site_fract_y
 _atom_site_fract_z
 _atom_site_occupancy
 _atom_site_hle17_bader_spin_density
 _atom_site_hle17_ddec_charge
 _atom_site_hle17_ddec_spin_density
 _atom_site_hle17_ddec_sum_bond_order
 _atom_site_hle17_magmom
 _atom_site_hse06_10hf_bader_spin_density
 _atom_site_hse06_10hf_ddec_charge
 _atom_site_hse06_10hf_ddec_spin_density
 _atom_site_hse06_10hf_ddec_sum_bond_order
 _atom_site_hse06_10hf_magmom
 _atom_site_hse06_bader_spin_density
 _atom_site_hse06_ddec_charge
 _atom_site_hse06_ddec_spin_density
 _atom_site_hse06_ddec_sum_bond_order
 _atom_site_hse06_magmom
 _atom_site_pbe_bader_spin_density
 _atom_site_pbe_cm5_charge
 _atom_site_pbe_ddec_charge
 _atom_site_pbe_ddec_spin_density
 _atom_site_pbe_ddec_sum_bond_order
 _atom_site_pbe_magmom
Ho  Ho0  1  0.46110904  0.73618323  0.00330844  1  0  2.270379  0  1.644995  0  0  2.125249  0  2.125353  0  0  2.254701  0  1.928505  0  0  1.520272  2.089613  0  2.15591  0
Ho  Ho1  1  0.23276792  0.45777661  0.49659182  1  0  2.270704  0  1.646108  0  0  2.12532  0  2.126819  0  0  2.254888  0  1.929649  0  0  1.520158  2.08959  0  2.157542  0
Ho  Ho2  1  0.53889363  0.26381898  0.99669260  1  0  2.270384  0  1.64496  0  0  2.125285  0  2.125276  0  0  2.2547  0  1.928478  0  0  1.520274  2.089642  0  2.155844  0
Ho  Ho3  1  0.76723350  0.54222324  0.50341029  1  0  2.270656  0  1.646127  0  0  2.125241  0  2.126907  0  0  2.254849  0  1.929673  0  0  1.520122  2.08951  0  2.15763  0
H  H4  1  0.69099475  0.93465153  0.23337590  1  0  0.439467  0  0.813559  0  0  0.421487  0  0.868045  0  0  0.430491  0  0.855631  0  0  0.328445  0.414888  0  0.876027  0
H  H5  1  0.20166962  0.45776147  0.26656184  1  0  0.440168  0  0.812632  0  0  0.422267  0  0.867021  0  0  0.431263  0  0.854573  0  0  0.329108  0.415704  0  0.874945  0
H  H6  1  0.30900961  0.06535188  0.76662793  1  0  0.439533  0  0.813483  0  0  0.421557  0  0.867964  0  0  0.430561  0  0.855539  0  0  0.328466  0.414958  0  0.875947  0
H  H7  1  0.79832423  0.54223009  0.73343861  1  0  0.440092  0  0.812769  0  0  0.422203  0  0.867116  0  0  0.431201  0  0.854656  0  0  0.329101  0.415644  0  0.87503  0
H  H8  1  0.63697439  0.04982721  0.18141658  1  0  0.443012  0  0.848305  0  0  0.411666  0  0.912553  0  0  0.422969  0  0.896051  0  0  0.307205  0.403761  0  0.92425  0
H  H9  1  0.36879920  0.45578252  0.31866320  1  0  0.444171  0  0.847021  0  0  0.412736  0  0.911356  0  0  0.42405  0  0.894849  0  0  0.307485  0.40481  0  0.923072  0
H  H10  1  0.36302658  0.95017381  0.81858473  1  0  0.443049  0  0.848258  0  0  0.411688  0  0.912537  0  0  0.422989  0  0.896037  0  0  0.307195  0.403779  0  0.924236  0
H  H11  1  0.63119697  0.54421140  0.68133568  1  0  0.444137  0  0.847054  0  0  0.4127  0  0.911392  0  0  0.424012  0  0.894887  0  0  0.307483  0.404771  0  0.923112  0
H  H12  1  0.78501855  0.83957376  0.85247820  1  0  0.139059  0  0.949541  0  0  0.147625  0  1.008237  0  0  0.15147  0  1.005829  0  0  0.113373  0.144704  0  1.010126  0
H  H13  1  0.48686388  0.93230752  0.64723636  1  0  0.140887  0  0.947593  0  0  0.149018  0  1.006714  0  0  0.152972  0  1.004175  0  0  0.114807  0.146046  0  1.008658  0
H  H14  1  0.21498196  0.16042843  0.14752230  1  0  0.139009  0  0.949587  0  0  0.147574  0  1.008287  0  0  0.151418  0  1.005879  0  0  0.113345  0.144656  0  1.010176  0
H  H15  1  0.51313508  0.06768755  0.35275793  1  0  0.140875  0  0.94761  0  0  0.149064  0  1.006666  0  0  0.153022  0  1.00412  0  0  0.114842  0.146092  0  1.008613  0
H  H16  1  0.05424904  0.97766668  0.80163461  1  0  0.139062  0  0.939345  0  0  0.14834  0  0.997768  0  0  0.152432  0  0.994297  0  0  0.118611  0.145516  0  1.000036  0
H  H17  1  0.67575033  0.25236312  0.69812323  1  0  0.139769  0  0.937596  0  0  0.148972  0  0.996248  0  0  0.153064  0  0.992767  0  0  0.119261  0.146144  0  0.998513  0
H  H18  1  0.94574438  0.02233426  0.19835870  1  0  0.139107  0  0.939289  0  0  0.148331  0  0.997779  0  0  0.152424  0  0.994307  0  0  0.118603  0.14551  0  1.000045  0
H  H19  1  0.32424691  0.74763081  0.30187746  1  0  0.139804  0  0.937495  0  0  0.148969  0  0.996202  0  0  0.153058  0  0.99273  0  0  0.119262  0.146145  0  0.998465  0
H  H20  1  0.23348660  0.53266612  0.08167228  1  0  0.431908  0  0.818331  0  0  0.410568  0  0.878802  0  0  0.419941  0  0.868786  0  0  0.322547  0.403488  0  0.887592  0
H  H21  1  0.95108081  0.15169706  0.41822031  1  0  0.433003  0  0.818553  0  0  0.411566  0  0.879266  0  0  0.420986  0  0.869152  0  0  0.323157  0.404449  0  0.888146  0
H  H22  1  0.76651544  0.46733492  0.91833082  1  0  0.43188  0  0.818343  0  0  0.410536  0  0.878826  0  0  0.419908  0  0.868812  0  0  0.322515  0.403455  0  0.887617  0
H  H23  1  0.04891475  0.84830394  0.58178120  1  0  0.433007  0  0.818579  0  0  0.411566  0  0.879299  0  0  0.420987  0  0.869182  0  0  0.323152  0.404449  0  0.888177  0
H  H24  1  0.39051400  0.51720679  0.13930268  1  0  0.429323  0  0.86399  0  0  0.396404  0  0.935955  0  0  0.407854  0  0.919185  0  0  0.300211  0.388134  0  0.948196  0
H  H25  1  0.87789755  0.25104751  0.36061538  1  0  0.42907  0  0.864771  0  0  0.396245  0  0.936258  0  0  0.40767  0  0.91953  0  0  0.300045  0.387981  0  0.948488  0
H  H26  1  0.60948805  0.48279424  0.86069813  1  0  0.429245  0  0.864013  0  0  0.396355  0  0.936014  0  0  0.407806  0  0.919242  0  0  0.300172  0.388084  0  0.948256  0
H  H27  1  0.12210373  0.74895824  0.63938785  1  0  0.429104  0  0.864642  0  0  0.396244  0  0.936239  0  0  0.40767  0  0.919509  0  0  0.300037  0.387981  0  0.948467  0
C  C28  1  0.74024441  0.08674570  0.96855038  1  0  0.709689  0  3.908638  0  0  0.665021  0  4.193709  0  0  0.70158  0  4.184888  0  0  0.234072  0.640338  0  4.202103  0
C  C29  1  0.61814528  0.77158273  0.53128558  1  0  0.707743  0  3.909091  0  0  0.662504  0  4.19481  0  0  0.698994  0  4.186159  0  0  0.233791  0.637878  0  4.203067  0
C  C30  1  0.25975780  0.91325768  0.03145062  1  0  0.709784  0  3.908555  0  0  0.665089  0  4.193666  0  0  0.701649  0  4.184842  0  0  0.234074  0.640405  0  4.202062  0
C  C31  1  0.38185445  0.22841591  0.46871220  1  0  0.707742  0  3.909489  0  0  0.662475  0  4.195186  0  0  0.698966  0  4.186534  0  0  0.233789  0.63785  0  4.203441  0
C  C32  1  0.07470719  0.19863391  0.88121789  1  0  0.067597  0  3.657624  0  0  0.056909  0  3.933561  0  0  0.058205  0  3.946015  0  0  0.068858  0.056238  0  3.924407  0
C  C33  1  0.81732454  0.19332832  0.61867739  1  0  0.067535  0  3.661145  0  0  0.056865  0  3.93726  0  0  0.058097  0  3.949754  0  0  0.068531  0.056316  0  3.927972  0
C  C34  1  0.92528346  0.80136580  0.11877007  1  0  0.067376  0  3.65787  0  0  0.056736  0  3.933727  0  0  0.058035  0  3.946176  0  0  0.068764  0.056059  0  3.924582  0
C  C35  1  0.18267473  0.80667152  0.38132418  1  0  0.067571  0  3.661199  0  0  0.056922  0  3.937257  0  0  0.058148  0  3.949758  0  0  0.068556  0.056371  0  3.927973  0
C  C36  1  0.86751882  0.96494326  0.86872512  1  0  -0.129697  0  3.713229  0  0  -0.163739  0  3.981579  0  0  -0.165408  0  3.999826  0  0  -0.097374  -0.162008  0  3.96852  0
C  C37  1  0.59607288  0.99858795  0.63107645  1  0  -0.131056  0  3.712703  0  0  -0.164706  0  3.980499  0  0  -0.166472  0  3.998665  0  0  -0.097813  -0.16292  0  3.967489  0
C  C38  1  0.13248015  0.03506007  0.13127126  1  0  -0.129663  0  3.71305  0  0  -0.163698  0  3.981388  0  0  -0.165364  0  3.999632  0  0  -0.097343  -0.161971  0  3.968333  0
C  C39  1  0.40392408  0.00140948  0.36891903  1  0  -0.131082  0  3.712859  0  0  -0.164814  0  3.98064  0  0  -0.166577  0  3.998796  0  0  -0.097891  -0.163028  0  3.96763  0
C  C40  1  0.23037942  0.33566157  0.89273910  1  0  0.700607  0  3.912562  0  0  0.649846  0  4.212394  0  0  0.686563  0  4.203665  0  0  0.231313  0.624661  0  4.22173  0
C  C41  1  0.94280227  0.33756708  0.60720313  1  0  0.702286  0  3.912802  0  0  0.651764  0  4.212198  0  0  0.688531  0  4.203443  0  0  0.232133  0.626523  0  4.22155  0
C  C42  1  0.76961538  0.66433584  0.10725509  1  0  0.700598  0  3.912737  0  0  0.649856  0  4.212513  0  0  0.686571  0  4.203788  0  0  0.231305  0.624676  0  4.221847  0
C  C43  1  0.05719978  0.66243396  0.39279998  1  0  0.702221  0  3.913011  0  0  0.651723  0  4.212349  0  0  0.688489  0  4.2036  0  0  0.232116  0.626483  0  4.221699  0
C  C44  1  0.00789051  0.03742601  0.84274755  1  0  -0.115406  0  3.695081  0  0  -0.151749  0  3.968109  0  0  -0.152162  0  3.984476  0  0  -0.088997  -0.150977  0  3.956545  0
C  C45  1  0.69450243  0.16492370  0.65709442  1  0  -0.117562  0  3.698145  0  0  -0.153802  0  3.971003  0  0  -0.154244  0  3.987508  0  0  -0.090209  -0.152994  0  3.959286  0
C  C46  1  0.99210229  0.96257373  0.15724477  1  0  -0.115413  0  3.695065  0  0  -0.151722  0  3.968061  0  0  -0.15214  0  3.984435  0  0  -0.088992  -0.150947  0  3.956497  0
C  C47  1  0.30549638  0.83507731  0.34290559  1  0  -0.117554  0  3.698179  0  0  -0.153778  0  3.971075  0  0  -0.154223  0  3.98759  0  0  -0.090194  -0.152975  0  3.959361  0
C  C48  1  0.33598832  0.67988193  0.73647943  1  0  0.575417  0  3.883599  0  0  0.529027  0  4.179275  0  0  0.559091  0  4.177201  0  0  0.224245  0.508412  0  4.185876  0
C  C49  1  0.44309454  0.59946458  0.76335354  1  0  0.576469  0  3.882328  0  0  0.53079  0  4.176855  0  0  0.56084  0  4.174779  0  0  0.225934  0.510207  0  4.183428  0
C  C50  1  0.66401959  0.32011796  0.26352351  1  0  0.57556  0  3.883567  0  0  0.529103  0  4.17933  0  0  0.559163  0  4.177262  0  0  0.224228  0.508486  0  4.18593  0
C  C51  1  0.55690516  0.40052585  0.23664981  1  0  0.576299  0  3.882461  0  0  0.530728  0  4.176855  0  0  0.560781  0  4.174774  0  0  0.225939  0.510145  0  4.183425  0
C  C52  1  0.85663106  0.08558407  0.92157431  1  0  0.076812  0  3.666786  0  0  0.07198  0  3.927561  0  0  0.07314  0  3.939826  0  0  0.072367  0.071521  0  3.917825  0
C  C53  1  0.66397935  0.93493313  0.57828706  1  0  0.078356  0  3.662558  0  0  0.074334  0  3.922607  0  0  0.075549  0  3.934869  0  0  0.072869  0.073864  0  3.912853  0
C  C54  1  0.14336837  0.91441809  0.07842134  1  0  0.076798  0  3.666901  0  0  0.071974  0  3.927713  0  0  0.07313  0  3.939982  0  0  0.072332  0.071521  0  3.917979  0
C  C55  1  0.33601963  0.06507020  0.42170855  1  0  0.078352  0  3.662666  0  0  0.074414  0  3.922609  0  0  0.075632  0  3.934869  0  0  0.072857  0.073945  0  3.912852  0
O  O56  1  0.64495354  0.95794040  0.98237721  1  0  -0.777331  0  2.125422  0  0  -0.728834  0  2.397906  0  0  -0.769222  0  2.383682  0  0  -0.419749  -0.709965  0  2.405782  0
O  O57  1  0.47549731  0.66249339  0.51742444  1  0  -0.777107  0  2.125576  0  0  -0.728633  0  2.398458  0  0  -0.76899  0  2.384339  0  0  -0.419463  -0.709745  0  2.406267  0
O  O58  1  0.35505175  0.04206065  0.01762440  1  0  -0.777345  0  2.125464  0  0  -0.728863  0  2.398008  0  0  -0.769246  0  2.383787  0  0  -0.419738  -0.709984  0  2.405872  0
O  O59  1  0.52450149  0.33750765  0.48258016  1  0  -0.777087  0  2.125683  0  0  -0.72861  0  2.398589  0  0  -0.768983  0  2.38447  0  0  -0.419441  -0.709725  0  2.406397  0
O  O60  1  0.74095128  0.21577551  0.99116880  1  0  -0.703718  0  2.01192  0  0  -0.658126  0  2.260761  0  0  -0.692579  0  2.241283  0  0  -0.413906  -0.64135  0  2.270614  0
O  O61  1  0.72458695  0.74968724  0.50868422  1  0  -0.702724  0  2.012654  0  0  -0.656589  0  2.261474  0  0  -0.691056  0  2.242045  0  0  -0.413163  -0.639789  0  2.27126  0
O  O62  1  0.25905479  0.78422909  0.00883554  1  0  -0.703794  0  2.011845  0  0  -0.658189  0  2.26071  0  0  -0.69265  0  2.241229  0  0  -0.413896  -0.641416  0  2.270565  0
O  O63  1  0.27541432  0.25031022  0.49131310  1  0  -0.702736  0  2.012846  0  0  -0.656607  0  2.261672  0  0  -0.691064  0  2.242244  0  0  -0.413156  -0.639806  0  2.271457  0
O  O64  1  0.33283603  0.75415231  0.81957694  1  0  -0.653581  0  2.101906  0  0  -0.596955  0  2.337341  0  0  -0.630299  0  2.325945  0  0  -0.351521  -0.58021  0  2.343322  0
O  O65  1  0.43421246  0.51317200  0.68025724  1  0  -0.654564  0  2.10175  0  0  -0.597859  0  2.336771  0  0  -0.631197  0  2.325324  0  0  -0.352081  -0.581094  0  2.342752  0
O  O66  1  0.66717034  0.24584874  0.18042494  1  0  -0.653642  0  2.101905  0  0  -0.597012  0  2.337373  0  0  -0.630354  0  2.325979  0  0  -0.351487  -0.580268  0  2.343354  0
O  O67  1  0.56578338  0.48681723  0.31974585  1  0  -0.654496  0  2.101755  0  0  -0.597825  0  2.336737  0  0  -0.631171  0  2.325285  0  0  -0.352115  -0.581058  0  2.342712  0
O  O68  1  0.34135463  0.30603637  0.88456605  1  0  -0.752475  0  2.045477  0  0  -0.69771  0  2.303835  0  0  -0.736428  0  2.287808  0  0  -0.420612  -0.678819  0  2.312241  0
O  O69  1  0.92140854  0.45674257  0.61555627  1  0  -0.752706  0  2.045532  0  0  -0.697909  0  2.30361  0  0  -0.736664  0  2.287559  0  0  -0.420607  -0.678995  0  2.312024  0
O  O70  1  0.65864108  0.69395871  0.11543127  1  0  -0.752436  0  2.045523  0  0  -0.697674  0  2.303862  0  0  -0.7364  0  2.287839  0  0  -0.420592  -0.678778  0  2.312255  0
O  O71  1  0.07859320  0.54326202  0.38444930  1  0  -0.752675  0  2.045716  0  0  -0.697884  0  2.303773  0  0  -0.736634  0  2.287731  0  0  -0.420581  -0.678971  0  2.312185  0
O  O72  1  0.98130585  0.22917635  0.92802121  1  0  -0.175545  0  2.40329  0  0  -0.110624  0  2.620497  0  0  -0.124065  0  2.625903  0  0  -0.10935  -0.101356  0  2.616332  0
O  O73  1  0.80116377  0.05318625  0.57188741  1  0  -0.175573  0  2.401361  0  0  -0.111421  0  2.618958  0  0  -0.124871  0  2.624373  0  0  -0.110457  -0.102153  0  2.614757  0
O  O74  1  0.01869067  0.77083049  0.07197096  1  0  -0.175393  0  2.403604  0  0  -0.110501  0  2.620811  0  0  -0.123939  0  2.626217  0  0  -0.109271  -0.101241  0  2.616656  0
O  O75  1  0.19883844  0.94681710  0.42810977  1  0  -0.175606  0  2.401437  0  0  -0.111472  0  2.618991  0  0  -0.124919  0  2.624402  0  0  -0.110447  -0.102203  0  2.614788  0
O  O76  1  0.24738744  0.47239267  0.91345380  1  0  -0.72006  0  2.032907  0  0  -0.674956  0  2.287226  0  0  -0.709312  0  2.269204  0  0  -0.387534  -0.658296  0  2.297032  0
O  O77  1  0.05878268  0.33394512  0.58638661  1  0  -0.721136  0  2.032684  0  0  -0.676103  0  2.287182  0  0  -0.710498  0  2.26914  0  0  -0.388336  -0.659417  0  2.297024  0
O  O78  1  0.75261755  0.52761191  0.08654797  1  0  -0.720002  0  2.033021  0  0  -0.67492  0  2.287326  0  0  -0.709268  0  2.269308  0  0  -0.387511  -0.658258  0  2.297129  0
O  O79  1  0.94122122  0.66605947  0.41361795  1  0  -0.721151  0  2.032749  0  0  -0.676123  0  2.287235  0  0  -0.710525  0  2.269194  0  0  -0.388359  -0.659435  0  2.297076  0
O  O80  1  0.26399727  0.67046502  0.63401360  1  0  -0.669258  0  2.098723  0  0  -0.618433  0  2.341484  0  0  -0.652364  0  2.331845  0  0  -0.336293  -0.601562  0  2.347945  0
O  O81  1  0.53611150  0.62984734  0.86580491  1  0  -0.669413  0  2.099412  0  0  -0.618953  0  2.342008  0  0  -0.652893  0  2.33238  0  0  -0.336999  -0.602059  0  2.348433  0
O  O82  1  0.73600878  0.32953133  0.36598941  1  0  -0.669248  0  2.098623  0  0  -0.61844  0  2.341465  0  0  -0.652376  0  2.331823  0  0  -0.336287  -0.601568  0  2.347924  0
O  O83  1  0.46389392  0.37014782  0.13419864  1  0  -0.669358  0  2.09943  0  0  -0.618933  0  2.341989  0  0  -0.652865  0  2.33235  0  0  -0.336977  -0.60204  0  2.348417  0
O  O84  1  0.59521828  0.93821871  0.18343235  1  0  -0.873951  0  1.843548  0  0  -0.828321  0  2.030102  0  0  -0.855795  0  1.993962  0  0  -0.615164  -0.815592  0  2.049974  0
O  O85  1  0.25512320  0.41191270  0.31655211  1  0  -0.875917  0  1.842178  0  0  -0.830365  0  2.028951  0  0  -0.857855  0  1.992726  0  0  -0.616047  -0.817635  0  2.048923  0
O  O86  1  0.40478639  0.06178114  0.81656749  1  0  -0.874051  0  1.843436  0  0  -0.828417  0  2.029979  0  0  -0.855883  0  1.99383  0  0  -0.615167  -0.815683  0  2.049857  0
O  O87  1  0.74487343  0.58808005  0.68344757  1  0  -0.875806  0  1.842298  0  0  -0.83025  0  2.029092  0  0  -0.857747  0  1.992854  0  0  -0.616042  -0.817522  0  2.049059  0
O  O88  1  0.35015665  0.59393841  0.13530861  1  0  -0.851385  0  1.825954  0  0  -0.804755  0  2.010146  0  0  -0.83086  0  1.977537  0  0  -0.601439  -0.791337  0  2.03013  0
O  O89  1  0.95861833  0.21471615  0.36453540  1  0  -0.852332  0  1.826376  0  0  -0.805945  0  2.010066  0  0  -0.832085  0  1.977479  0  0  -0.60169  -0.7925  0  2.030098  0
O  O90  1  0.64984415  0.40606027  0.86469403  1  0  -0.851291  0  1.825984  0  0  -0.804694  0  2.010173  0  0  -0.830794  0  1.977569  0  0  -0.601375  -0.791273  0  2.030159  0
O  O91  1  0.04138528  0.78529198  0.63547009  1  0  -0.852352  0  1.826262  0  0  -0.805924  0  2.010042  0  0  -0.832069  0  1.977454  0  0  -0.601658  -0.792481  0  2.030072  0
