# generated using pymatgen
data_H4PdC8N4(OF)2
_symmetry_space_group_name_H-M   'P 1'
_cell_length_a   16.35933158
_cell_length_b   16.35932598
_cell_length_c   16.35933664
_cell_angle_alpha   90.00011067
_cell_angle_beta   90.00012910
_cell_angle_gamma   89.99989159
_symmetry_Int_Tables_number   1
_chemical_formula_structural   H4PdC8N4(OF)2
_chemical_formula_sum   'H48 Pd12 C96 N48 O24 F24'
_cell_volume   4378.21062448
_cell_formula_units_Z   12
loop_
 _symmetry_equiv_pos_site_id
 _symmetry_equiv_pos_as_xyz
  1  'x, y, z'
loop_
 _atom_site_type_symbol
 _atom_site_label
 _atom_site_symmetry_multiplicity
 _atom_site_fract_x
 _atom_site_fract_y
 _atom_site_fract_z
 _atom_site_occupancy
 _atom_site_pbe_bader_charge
 _atom_site_pbe_bader_spin_density
 _atom_site_pbe_cm5_charge
 _atom_site_pbe_ddec_charge
 _atom_site_pbe_ddec_spin_density
 _atom_site_pbe_ddec_sum_bond_order
 _atom_site_pbe_magmom
H  H0  1  0.91804688  0.07327744  0.23911105  1  0.15466  0  0.137146  0.141275  0  0.947754  0
H  H1  1  0.58195518  0.42672447  0.23911101  1  0.154649  0  0.137143  0.141312  0  0.947759  0
H  H2  1  0.58195493  0.07327656  0.26088844  1  0.154673  0  0.137149  0.141315  0  0.947787  0
H  H3  1  0.91804657  0.42672234  0.26088978  1  0.15465  0  0.13717  0.141323  0  0.947763  0
H  H4  1  0.23911351  0.91804806  0.07327552  1  0.155047  0  0.137112  0.141315  0  0.94776  0
H  H5  1  0.23911178  0.58195265  0.42672290  1  0.154656  0  0.137152  0.141305  0  0.947778  0
H  H6  1  0.26088916  0.58195595  0.07327522  1  0.15462  0  0.137149  0.141338  0  0.947741  0
H  H7  1  0.26088680  0.91804716  0.42672508  1  0.155028  0  0.137137  0.141311  0  0.947734  0
H  H8  1  0.07327397  0.23911336  0.91804610  1  0.155009  0  0.137129  0.141298  0  0.947736  0
H  H9  1  0.42672263  0.23911209  0.58195218  1  0.154662  0  0.137152  0.141334  0  0.947755  0
H  H10  1  0.07327724  0.26088899  0.58195425  1  0.154662  0  0.13716  0.141311  0  0.947783  0
H  H11  1  0.42672421  0.26088898  0.91804652  1  0.154654  0  0.137156  0.141296  0  0.947761  0
H  H12  1  0.57327694  0.41804798  0.76088887  1  0.154658  0  0.137141  0.141297  0  0.947703  0
H  H13  1  0.92672079  0.08195372  0.76089200  1  0.154543  0  0.137159  0.141284  0  0.947802  0
H  H14  1  0.57327723  0.08195159  0.73911138  1  0.154659  0  0.137148  0.141291  0  0.947721  0
H  H15  1  0.92672473  0.41804640  0.73911394  1  0.155042  0  0.137138  0.141303  0  0.947776  0
H  H16  1  0.41804371  0.73910919  0.92672214  1  0.154748  0  0.137163  0.141283  0  0.947809  0
H  H17  1  0.08195317  0.73911100  0.57327772  1  0.15466  0  0.137165  0.141302  0  0.947787  0
H  H18  1  0.08195294  0.76088791  0.92672178  1  0.154678  0  0.137159  0.141268  0  0.947776  0
H  H19  1  0.41804573  0.76088909  0.57327567  1  0.154645  0  0.137131  0.141305  0  0.947783  0
H  H20  1  0.73911165  0.57327667  0.08195275  1  0.154657  0  0.137144  0.141268  0  0.947798  0
H  H21  1  0.73911231  0.92672370  0.41804618  1  0.154663  0  0.137141  0.141295  0  0.947766  0
H  H22  1  0.76088982  0.57327697  0.41804648  1  0.154637  0  0.137147  0.141303  0  0.947776  0
H  H23  1  0.76088666  0.92672519  0.08195251  1  0.155024  0  0.137128  0.141314  0  0.947738  0
H  H24  1  0.08195443  0.92672343  0.76088881  1  0.154664  0  0.137165  0.14133  0  0.947767  0
H  H25  1  0.41804735  0.57327457  0.76088579  1  0.155057  0  0.13712  0.141311  0  0.947749  0
H  H26  1  0.41804699  0.92672187  0.73911080  1  0.154577  0  0.137158  0.141265  0  0.947772  0
H  H27  1  0.08195535  0.57327609  0.73911130  1  0.15465  0  0.137146  0.141336  0  0.947751  0
H  H28  1  0.76088963  0.08195526  0.92672372  1  0.15464  0  0.137157  0.141326  0  0.947759  0
H  H29  1  0.76088953  0.41804701  0.57327695  1  0.154639  0  0.137158  0.141311  0  0.947762  0
H  H30  1  0.73911153  0.41804493  0.92672402  1  0.154659  0  0.137135  0.14128  0  0.947811  0
H  H31  1  0.73911084  0.08195189  0.57327721  1  0.154655  0  0.13714  0.141283  0  0.947732  0
H  H32  1  0.92672367  0.76088935  0.08195498  1  0.154652  0  0.137148  0.14132  0  0.947761  0
H  H33  1  0.57327440  0.76088512  0.41804767  1  0.155043  0  0.137152  0.141346  0  0.947704  0
H  H34  1  0.92672345  0.73911189  0.41804683  1  0.154653  0  0.137149  0.141291  0  0.947791  0
H  H35  1  0.57327587  0.73911128  0.08195334  1  0.154639  0  0.137151  0.141325  0  0.94776  0
H  H36  1  0.42672314  0.58195290  0.23911221  1  0.154661  0  0.137141  0.14128  0  0.947808  0
H  H37  1  0.07327623  0.91804471  0.23910969  1  0.154633  0  0.137149  0.141302  0  0.947778  0
H  H38  1  0.42672468  0.91804623  0.26088909  1  0.154622  0  0.137132  0.141313  0  0.947727  0
H  H39  1  0.07327658  0.58195142  0.26088592  1  0.154682  0  0.137111  0.141242  0  0.947754  0
H  H40  1  0.58195332  0.26088863  0.07327649  1  0.154657  0  0.137166  0.141346  0  0.947746  0
H  H41  1  0.91804569  0.26088927  0.42672336  1  0.15465  0  0.137152  0.141298  0  0.94777  0
H  H42  1  0.91804592  0.23911113  0.07327746  1  0.154666  0  0.137152  0.141279  0  0.947776  0
H  H43  1  0.58195313  0.23911362  0.42672479  1  0.155044  0  0.13712  0.141277  0  0.94776  0
H  H44  1  0.26088843  0.42672299  0.91804832  1  0.15464  0  0.13714  0.141345  0  0.94776  0
H  H45  1  0.26088838  0.07327656  0.58195428  1  0.154672  0  0.137143  0.141286  0  0.947784  0
H  H46  1  0.23911088  0.42672391  0.58195399  1  0.154632  0  0.137133  0.141303  0  0.94778  0
H  H47  1  0.23911037  0.07327691  0.91804551  1  0.154662  0  0.137169  0.141313  0  0.947759  0
Pd  Pd48  1  0.75000041  0.25000152  0.50000119  1  0.787437  0  0.918136  0.416012  0  3.204758  0
Pd  Pd49  1  0.75000046  0.24999920  0.00000109  1  0.787414  0  0.918053  0.416041  0  3.204628  0
Pd  Pd50  1  0.50000105  0.74999949  0.25000042  1  0.787311  0  0.918014  0.415977  0  3.204657  0
Pd  Pd51  1  0.00000018  0.74999997  0.24999925  1  0.787451  0  0.917888  0.415953  0  3.204761  0
Pd  Pd52  1  0.24999958  0.50000031  0.74999878  1  0.787446  0  0.917894  0.415895  0  3.204729  0
Pd  Pd53  1  0.25000067  0.00000049  0.75000013  1  0.787445  0  0.917904  0.415969  0  3.204781  0
Pd  Pd54  1  0.24999845  0.75000058  0.49999989  1  0.787443  0  0.918245  0.416187  0  3.20443  0
Pd  Pd55  1  0.25000034  0.74999949  0.00000039  1  0.787424  0  0.917879  0.415874  0  3.20473  0
Pd  Pd56  1  0.50000087  0.25000016  0.75000065  1  0.787477  0  0.917991  0.415992  0  3.204546  0
Pd  Pd57  1  0.99999990  0.25000030  0.75000122  1  0.7874  0  0.917912  0.415887  0  3.204886  0
Pd  Pd58  1  0.75000111  0.49999996  0.24999924  1  0.787443  0  0.918002  0.416048  0  3.204625  0
Pd  Pd59  1  0.74999880  0.99999978  0.24999911  1  0.787442  0  0.918032  0.416059  0  3.204661  0
C  C60  1  0.71041259  0.39018347  0.60692371  1  0.550595  0  0.049004  0.013086  0  3.938951  0
C  C61  1  0.78958907  0.10981671  0.60692353  1  0.550453  0  0.049007  0.013195  0  3.939015  0
C  C62  1  0.78958974  0.39018367  0.89307843  1  0.550632  0  0.049002  0.013179  0  3.939224  0
C  C63  1  0.71041073  0.10981462  0.89307807  1  0.550548  0  0.049104  0.013145  0  3.938999  0
C  C64  1  0.60692187  0.71040866  0.39018345  1  0.550096  0  0.048995  0.013028  0  3.939075  0
C  C65  1  0.60692210  0.78958891  0.10981641  1  0.550635  0  0.049039  0.013043  0  3.939018  0
C  C66  1  0.89307652  0.78958891  0.39018446  1  0.550598  0  0.049042  0.01321  0  3.939169  0
C  C67  1  0.89307689  0.71041056  0.10981482  1  0.550606  0  0.049041  0.013146  0  3.938893  0
C  C68  1  0.39018487  0.60692324  0.71040942  1  0.550238  0  0.049105  0.013094  0  3.938937  0
C  C69  1  0.10981532  0.60692236  0.78958896  1  0.550586  0  0.049076  0.013131  0  3.939089  0
C  C70  1  0.39018163  0.89307631  0.78958833  1  0.550541  0  0.049024  0.013198  0  3.938964  0
C  C71  1  0.10981496  0.89307589  0.71041060  1  0.550617  0  0.049013  0.013119  0  3.938931  0
C  C72  1  0.89018515  0.21041041  0.39307705  1  0.550612  0  0.049074  0.013302  0  3.939017  0
C  C73  1  0.60981604  0.28959058  0.39307742  1  0.550272  0  0.049035  0.013073  0  3.938874  0
C  C74  1  0.89018475  0.28958882  0.10692493  1  0.550612  0  0.049068  0.01324  0  3.938884  0
C  C75  1  0.60981701  0.21041162  0.10692332  1  0.550625  0  0.049019  0.013054  0  3.93903  0
C  C76  1  0.21041016  0.10692411  0.60981541  1  0.550627  0  0.04907  0.013206  0  3.938888  0
C  C77  1  0.28958914  0.10692308  0.89018322  1  0.550641  0  0.048987  0.013131  0  3.939038  0
C  C78  1  0.28958916  0.39307825  0.60981455  1  0.550586  0  0.049051  0.013141  0  3.939056  0
C  C79  1  0.21041021  0.39307859  0.89018402  1  0.550644  0  0.049037  0.012977  0  3.939133  0
C  C80  1  0.10692256  0.89018478  0.28958852  1  0.550649  0  0.049051  0.013167  0  3.939056  0
C  C81  1  0.10692396  0.60981618  0.21041022  1  0.550631  0  0.049092  0.013274  0  3.938858  0
C  C82  1  0.39307902  0.89018504  0.21041081  1  0.550593  0  0.049123  0.013215  0  3.939071  0
C  C83  1  0.39307632  0.60981599  0.28958857  1  0.550623  0  0.049022  0.013106  0  3.938914  0
C  C84  1  0.28958933  0.60981496  0.39307676  1  0.550617  0  0.049037  0.013201  0  3.938933  0
C  C85  1  0.21041040  0.89018355  0.39307694  1  0.550256  0  0.049059  0.013155  0  3.938958  0
C  C86  1  0.21041095  0.60981598  0.10692142  1  0.550609  0  0.049036  0.013068  0  3.939183  0
C  C87  1  0.28959057  0.89018504  0.10692300  1  0.550243  0  0.04909  0.013066  0  3.939029  0
C  C88  1  0.39307760  0.28958978  0.60981579  1  0.550628  0  0.048995  0.013063  0  3.939172  0
C  C89  1  0.39307615  0.21041075  0.89018405  1  0.550628  0  0.049056  0.01323  0  3.938929  0
C  C90  1  0.10692295  0.21041075  0.60981662  1  0.550605  0  0.048978  0.013067  0  3.939113  0
C  C91  1  0.10692197  0.28959093  0.89018625  1  0.550247  0  0.049081  0.013154  0  3.938837  0
C  C92  1  0.60981643  0.39307824  0.28958921  1  0.550569  0  0.049071  0.01318  0  3.939104  0
C  C93  1  0.89018355  0.39307607  0.21041211  1  0.550616  0  0.049019  0.013146  0  3.939046  0
C  C94  1  0.60981662  0.10692335  0.21041091  1  0.550631  0  0.04898  0.013027  0  3.939037  0
C  C95  1  0.89018329  0.10692377  0.28958864  1  0.550635  0  0.04901  0.013227  0  3.938993  0
C  C96  1  0.10981677  0.78958864  0.60692342  1  0.550614  0  0.048997  0.013138  0  3.939143  0
C  C97  1  0.39018405  0.71041029  0.60692121  1  0.550625  0  0.049076  0.013194  0  3.93919  0
C  C98  1  0.10981656  0.71041083  0.89307614  1  0.550632  0  0.049015  0.013161  0  3.938982  0
C  C99  1  0.39018307  0.78958865  0.89307653  1  0.550487  0  0.049034  0.013189  0  3.939117  0
C  C100  1  0.78958870  0.89307554  0.39018444  1  0.550821  0  0.049034  0.013221  0  3.939022  0
C  C101  1  0.71040911  0.89307779  0.10981541  1  0.550273  0  0.049087  0.013084  0  3.938958  0
C  C102  1  0.71041031  0.60692202  0.39018530  1  0.550629  0  0.04908  0.013186  0  3.938999  0
C  C103  1  0.78958927  0.60692351  0.10981583  1  0.550615  0  0.049047  0.013248  0  3.938974  0
C  C104  1  0.89307692  0.10981488  0.71041134  1  0.550694  0  0.049054  0.013192  0  3.938881  0
C  C105  1  0.89307735  0.39018347  0.78959025  1  0.550275  0  0.048988  0.013104  0  3.939075  0
C  C106  1  0.60692350  0.10981706  0.78958904  1  0.550473  0  0.049028  0.013163  0  3.938926  0
C  C107  1  0.60692498  0.39018428  0.71041128  1  0.55062  0  0.049027  0.013124  0  3.93887  0
C  C108  1  0.62665075  0.27187429  0.62665046  1  1.720347  0  0.283429  0.554124  0  4.176479  0
C  C109  1  0.66799952  0.43111985  0.66799830  1  0.498289  0  0.076127  0.150717  0  4.136565  0
C  C110  1  0.87335158  0.22812348  0.62665192  1  1.720201  0  0.283453  0.554099  0  4.176349  0
C  C111  1  0.83200228  0.06887984  0.66799692  1  0.498249  0  0.076046  0.150634  0  4.136731  0
C  C112  1  0.87334998  0.27187552  0.87335023  1  1.72017  0  0.283507  0.554274  0  4.176286  0
C  C113  1  0.83200029  0.43111925  0.83200025  1  0.496284  0  0.07609  0.150649  0  4.136825  0
C  C114  1  0.62665229  0.22812517  0.87335235  1  1.720347  0  0.283448  0.554049  0  4.176446  0
C  C115  1  0.66799760  0.06888015  0.83200277  1  0.496269  0  0.076069  0.150664  0  4.136655  0
C  C116  1  0.62664879  0.62664835  0.27187542  1  1.720304  0  0.283397  0.554007  0  4.176592  0
C  C117  1  0.66799781  0.66799858  0.43112035  1  0.498268  0  0.076072  0.150681  0  4.136639  0
C  C118  1  0.62665034  0.87334857  0.22812510  1  1.72026  0  0.283467  0.554114  0  4.176387  0
C  C119  1  0.66799785  0.83200193  0.06887965  1  0.496252  0  0.076083  0.150786  0  4.136496  0
C  C120  1  0.87334934  0.87335082  0.27187715  1  1.720164  0  0.283497  0.554221  0  4.176503  0
C  C121  1  0.83200068  0.83200029  0.43112069  1  0.496265  0  0.076053  0.150561  0  4.136896  0
C  C122  1  0.87335075  0.62665052  0.22812331  1  1.720247  0  0.28353  0.554248  0  4.176321  0
C  C123  1  0.83200227  0.66799685  0.06887968  1  0.498232  0  0.076042  0.150582  0  4.136735  0
C  C124  1  0.27187491  0.62665147  0.62665102  1  1.720199  0  0.283463  0.554263  0  4.176269  0
C  C125  1  0.43111981  0.66799903  0.66799827  1  0.496249  0  0.076031  0.150674  0  4.136675  0
C  C126  1  0.22812340  0.62665053  0.87334740  1  1.72018  0  0.283496  0.554142  0  4.176479  0
C  C127  1  0.06888087  0.66799831  0.83200084  1  0.496263  0  0.076047  0.150629  0  4.136748  0
C  C128  1  0.27187496  0.87334769  0.87334952  1  1.720236  0  0.283459  0.554094  0  4.176383  0
C  C129  1  0.43111740  0.83200167  0.83200080  1  0.49837  0  0.076015  0.150699  0  4.136766  0
C  C130  1  0.22812411  0.87335055  0.62664998  1  1.720257  0  0.28348  0.55416  0  4.176325  0
C  C131  1  0.06887992  0.83200246  0.66799618  1  0.498248  0  0.076057  0.150604  0  4.136756  0
C  C132  1  0.77187719  0.12664971  0.37335109  1  1.720246  0  0.283493  0.554302  0  4.17641  0
C  C133  1  0.93112016  0.16799780  0.33200184  1  0.498234  0  0.076042  0.150607  0  4.136761  0
C  C134  1  0.72812639  0.37334879  0.37334823  1  1.720379  0  0.283461  0.554204  0  4.176337  0
C  C135  1  0.56888149  0.33200185  0.33200098  1  0.498279  0  0.076096  0.150733  0  4.13657  0
C  C136  1  0.77187668  0.37334974  0.12664940  1  1.72025  0  0.283495  0.554232  0  4.176414  0
C  C137  1  0.93111982  0.33200196  0.16799901  1  0.496215  0  0.076065  0.15067  0  4.136675  0
C  C138  1  0.72812635  0.12665135  0.12665155  1  1.720292  0  0.283448  0.554118  0  4.176384  0
C  C139  1  0.56888146  0.16799982  0.16799906  1  0.496275  0  0.076123  0.150757  0  4.136599  0
C  C140  1  0.12664952  0.12665006  0.72812331  1  1.720247  0  0.283543  0.554213  0  4.176398  0
C  C141  1  0.16799695  0.16799875  0.56887978  1  0.49623  0  0.076055  0.150665  0  4.136729  0
C  C142  1  0.37335158  0.12664925  0.77187597  1  1.72017  0  0.283416  0.554055  0  4.176514  0
C  C143  1  0.33200162  0.16799834  0.93111959  1  0.496232  0  0.07607  0.150617  0  4.136731  0
C  C144  1  0.37334763  0.37335008  0.72812383  1  1.720182  0  0.283524  0.554275  0  4.17622  0
C  C145  1  0.33200350  0.33200413  0.56887951  1  0.498274  0  0.076072  0.15063  0  4.136662  0
C  C146  1  0.12665178  0.37334608  0.77187532  1  1.720171  0  0.283498  0.554196  0  4.176319  0
C  C147  1  0.16799721  0.33200280  0.93112201  1  0.498238  0  0.076077  0.150722  0  4.136674  0
C  C148  1  0.12664973  0.77187678  0.37334854  1  1.72025  0  0.283483  0.554152  0  4.176326  0
C  C149  1  0.16800086  0.93111860  0.33199927  1  0.496467  0  0.076036  0.15065  0  4.13691  0
C  C150  1  0.12665194  0.72812413  0.12664962  1  1.72019  0  0.283516  0.554223  0  4.176314  0
C  C151  1  0.16800040  0.56888102  0.16799899  1  0.496284  0  0.076067  0.150624  0  4.136758  0
C  C152  1  0.37334902  0.77187692  0.12665178  1  1.720197  0  0.283497  0.554245  0  4.176237  0
C  C153  1  0.33200126  0.93112012  0.16799953  1  0.498257  0  0.076045  0.150644  0  4.136723  0
C  C154  1  0.37334934  0.72812475  0.37334939  1  1.72026  0  0.283456  0.554252  0  4.176333  0
C  C155  1  0.33200179  0.56887919  0.33200155  1  0.498258  0  0.076117  0.150751  0  4.136473  0
N  N156  1  0.69025106  0.31326832  0.58771134  1  -1.124272  0  -0.373734  -0.267638  0  3.609786  0
N  N157  1  0.80975362  0.18673060  0.58771135  1  -1.124193  0  -0.373728  -0.267766  0  3.609915  0
N  N158  1  0.80975142  0.31327036  0.91229065  1  -1.124338  0  -0.373853  -0.267991  0  3.609906  0
N  N159  1  0.69025155  0.18673042  0.91229101  1  -1.124256  0  -0.3738  -0.267645  0  3.609845  0
N  N160  1  0.58770953  0.69024579  0.31326953  1  -1.124166  0  -0.373676  -0.26759  0  3.609906  0
N  N161  1  0.58771050  0.80974998  0.18673090  1  -1.12436  0  -0.373747  -0.267666  0  3.609921  0
N  N162  1  0.91228869  0.80975040  0.31327001  1  -1.124299  0  -0.373742  -0.267797  0  3.609945  0
N  N163  1  0.91228928  0.69025147  0.18673054  1  -1.124325  0  -0.373743  -0.26773  0  3.609801  0
N  N164  1  0.31326974  0.58771101  0.69024774  1  -1.124398  0  -0.373713  -0.267625  0  3.609688  0
N  N165  1  0.18672987  0.58770942  0.80974938  1  -1.124311  0  -0.373791  -0.26776  0  3.609946  0
N  N166  1  0.31326774  0.91228929  0.80975228  1  -1.124287  0  -0.37375  -0.267728  0  3.609827  0
N  N167  1  0.18673065  0.91228930  0.69025096  1  -1.124292  0  -0.373747  -0.267745  0  3.60976  0
N  N168  1  0.81326945  0.19025074  0.41229043  1  -1.124311  0  -0.373937  -0.26812  0  3.61  0
N  N169  1  0.68673177  0.30975151  0.41228857  1  -1.124573  0  -0.373727  -0.267579  0  3.609709  0
N  N170  1  0.81326959  0.30974924  0.08771015  1  -1.12433  0  -0.373789  -0.267809  0  3.609906  0
N  N171  1  0.68673152  0.19024810  0.08771112  1  -1.12446  0  -0.373762  -0.267704  0  3.609873  0
N  N172  1  0.19024868  0.08771131  0.68672986  1  -1.1244  0  -0.373766  -0.267793  0  3.609841  0
N  N173  1  0.30975126  0.08770948  0.81326874  1  -1.124339  0  -0.373729  -0.26773  0  3.609889  0
N  N174  1  0.30974898  0.41229058  0.68672969  1  -1.124298  0  -0.373771  -0.267766  0  3.609878  0
N  N175  1  0.19024852  0.41228837  0.81327014  1  -1.124398  0  -0.373734  -0.267632  0  3.609798  0
N  N176  1  0.08770915  0.81327028  0.30974939  1  -1.124575  0  -0.373773  -0.267789  0  3.609888  0
N  N177  1  0.08771219  0.68673072  0.19024747  1  -1.124392  0  -0.373754  -0.26777  0  3.609779  0
N  N178  1  0.41228952  0.81326985  0.19025163  1  -1.124277  0  -0.37388  -0.267939  0  3.609933  0
N  N179  1  0.41228916  0.68673052  0.30975207  1  -1.124395  0  -0.373734  -0.267679  0  3.609685  0
N  N180  1  0.30974902  0.68673072  0.41228912  1  -1.124291  0  -0.373877  -0.268037  0  3.609815  0
N  N181  1  0.19024769  0.81326905  0.41228911  1  -1.124424  0  -0.37378  -0.267718  0  3.609828  0
N  N182  1  0.19025111  0.68672991  0.08770981  1  -1.124326  0  -0.373747  -0.267697  0  3.610003  0
N  N183  1  0.30975159  0.81326985  0.08771068  1  -1.124403  0  -0.37374  -0.267661  0  3.609741  0
N  N184  1  0.41228872  0.30975203  0.68672971  1  -1.124379  0  -0.373788  -0.267812  0  3.609786  0
N  N185  1  0.41228959  0.19024784  0.81326957  1  -1.124322  0  -0.373758  -0.267773  0  3.609869  0
N  N186  1  0.08770956  0.19024986  0.68673106  1  -1.124362  0  -0.373733  -0.267705  0  3.609832  0
N  N187  1  0.08771020  0.30974879  0.81326993  1  -1.1243  0  -0.373793  -0.26779  0  3.609879  0
N  N188  1  0.68673095  0.41229047  0.30974906  1  -1.124233  0  -0.37383  -0.267927  0  3.610025  0
N  N189  1  0.81326960  0.41228841  0.19024741  1  -1.124411  0  -0.373767  -0.267802  0  3.609874  0
N  N190  1  0.68673173  0.08771097  0.19025002  1  -1.124366  0  -0.373705  -0.267612  0  3.609805  0
N  N191  1  0.81326943  0.08771036  0.30975256  1  -1.124406  0  -0.373793  -0.267907  0  3.609893  0
N  N192  1  0.18673124  0.80975136  0.58771125  1  -1.124431  0  -0.373746  -0.267666  0  3.609865  0
N  N193  1  0.31326953  0.69025059  0.58771006  1  -1.124277  0  -0.373874  -0.267995  0  3.609987  0
N  N194  1  0.18673050  0.69024797  0.91228909  1  -1.124409  0  -0.373712  -0.267623  0  3.609751  0
N  N195  1  0.31326856  0.80974849  0.91228996  1  -1.124265  0  -0.373774  -0.267741  0  3.609918  0
N  N196  1  0.80975079  0.91229079  0.31327061  1  -1.124556  0  -0.373796  -0.267902  0  3.609993  0
N  N197  1  0.69024943  0.91228834  0.18673111  1  -1.12441  0  -0.373775  -0.26768  0  3.609789  0
N  N198  1  0.69025049  0.58771029  0.31326955  1  -1.124288  0  -0.373811  -0.267872  0  3.609922  0
N  N199  1  0.80975218  0.58771067  0.18673093  1  -1.124409  0  -0.373776  -0.267807  0  3.609807  0
N  N200  1  0.91228971  0.18673060  0.69025352  1  -1.124291  0  -0.373752  -0.267646  0  3.609732  0
N  N201  1  0.91229095  0.31326833  0.80975177  1  -1.124354  0  -0.373696  -0.267667  0  3.609801  0
N  N202  1  0.58771179  0.18673102  0.80975311  1  -1.124309  0  -0.373723  -0.267674  0  3.609847  0
N  N203  1  0.58771215  0.31326974  0.69024900  1  -1.12451  0  -0.373764  -0.267723  0  3.609772  0
O  O204  1  0.60607477  0.20182495  0.60607374  1  -1.153061  0  -0.341213  -0.551687  0  2.104723  0
O  O205  1  0.89392568  0.29817339  0.60607232  1  -1.152998  0  -0.341268  -0.551707  0  2.104618  0
O  O206  1  0.89392548  0.20182618  0.89392620  1  -1.153019  0  -0.341287  -0.55178  0  2.104629  0
O  O207  1  0.60607194  0.29817394  0.89392597  1  -1.153048  0  -0.341239  -0.551684  0  2.104695  0
O  O208  1  0.60607270  0.60607288  0.20182547  1  -1.153069  0  -0.341199  -0.551576  0  2.10465  0
O  O209  1  0.60607254  0.89392591  0.29817256  1  -1.153018  0  -0.34123  -0.551674  0  2.104669  0
O  O210  1  0.89392771  0.89392615  0.20182913  1  -1.152952  0  -0.341275  -0.551709  0  2.10468  0
O  O211  1  0.89392626  0.60607209  0.29817261  1  -1.152993  0  -0.341274  -0.55175  0  2.10462  0
O  O212  1  0.20182559  0.60607426  0.60607490  1  -1.153019  0  -0.341285  -0.551788  0  2.104573  0
O  O213  1  0.29817093  0.60607384  0.89392714  1  -1.152943  0  -0.341266  -0.551723  0  2.104719  0
O  O214  1  0.20182503  0.89392809  0.89392365  1  -1.153045  0  -0.341241  -0.551699  0  2.104574  0
O  O215  1  0.29817461  0.89392405  0.60607223  1  -1.153035  0  -0.341238  -0.551691  0  2.10458  0
O  O216  1  0.70182608  0.10607316  0.39392457  1  -1.152997  0  -0.341259  -0.551745  0  2.104614  0
O  O217  1  0.79817449  0.39392478  0.39392618  1  -1.15305  0  -0.34125  -0.551727  0  2.104592  0
O  O218  1  0.70182549  0.39392704  0.10607515  1  -1.153015  0  -0.341255  -0.551729  0  2.104629  0
O  O219  1  0.79817505  0.10607401  0.10607254  1  -1.153049  0  -0.34125  -0.551714  0  2.104571  0
O  O220  1  0.10607298  0.10607289  0.79817134  1  -1.152978  0  -0.34131  -0.551755  0  2.104708  0
O  O221  1  0.39392632  0.10607313  0.70182546  1  -1.153045  0  -0.341234  -0.551649  0  2.104645  0
O  O222  1  0.39392921  0.39392616  0.79817133  1  -1.152954  0  -0.341275  -0.551749  0  2.104598  0
O  O223  1  0.10607443  0.39392879  0.70182908  1  -1.152945  0  -0.341237  -0.551709  0  2.104635  0
O  O224  1  0.10607441  0.70182748  0.39392692  1  -1.152975  0  -0.341259  -0.551707  0  2.104603  0
O  O225  1  0.10607338  0.79817347  0.10607548  1  -1.152993  0  -0.341268  -0.55175  0  2.104633  0
O  O226  1  0.39392447  0.70182693  0.10607327  1  -1.152955  0  -0.341281  -0.551761  0  2.104575  0
O  O227  1  0.39392593  0.79817409  0.39392611  1  -1.153023  0  -0.341269  -0.551779  0  2.104657  0
F  F228  1  0.68670378  0.50969827  0.68670332  1  -0.617636  0  -0.102146  -0.134506  0  1.35307  0
F  F229  1  0.81329162  0.99030475  0.68670881  1  -0.62169  0  -0.102098  -0.13451  0  1.353121  0
F  F230  1  0.81329405  0.50969644  0.81329478  1  -0.622076  0  -0.102111  -0.134486  0  1.353118  0
F  F231  1  0.68670530  0.99030255  0.81329754  1  -0.617993  0  -0.102136  -0.134524  0  1.353056  0
F  F232  1  0.68670280  0.68670173  0.50969875  1  -0.618008  0  -0.102149  -0.134505  0  1.353024  0
F  F233  1  0.68670016  0.81329787  0.99030088  1  -0.618366  0  -0.102166  -0.134568  0  1.352965  0
F  F234  1  0.81329404  0.81329423  0.50969780  1  -0.622479  0  -0.102109  -0.134459  0  1.35321  0
F  F235  1  0.81329470  0.68670635  0.99030396  1  -0.622063  0  -0.102106  -0.134476  0  1.353114  0
F  F236  1  0.50969882  0.68670207  0.68670145  1  -0.618368  0  -0.102139  -0.134518  0  1.353057  0
F  F237  1  0.99030295  0.68670357  0.81329270  1  -0.622086  0  -0.102113  -0.134499  0  1.353082  0
F  F238  1  0.50969273  0.81328809  0.81329106  1  -0.621727  0  -0.102047  -0.134538  0  1.353124  0
F  F239  1  0.99030330  0.81329607  0.68670578  1  -0.617994  0  -0.102105  -0.134468  0  1.353091  0
F  F240  1  0.00969678  0.18670725  0.31329468  1  -0.617979  0  -0.102118  -0.134503  0  1.353121  0
F  F241  1  0.49030187  0.31329820  0.31329718  1  -0.617602  0  -0.10215  -0.134525  0  1.352988  0
F  F242  1  0.00969591  0.31329303  0.18670715  1  -0.621683  0  -0.102092  -0.134481  0  1.353131  0
F  F243  1  0.49030307  0.18670301  0.18670329  1  -0.622053  0  -0.102131  -0.134507  0  1.353044  0
F  F244  1  0.18670605  0.18670603  0.49030450  1  -0.622059  0  -0.102087  -0.13448  0  1.353172  0
F  F245  1  0.31329381  0.18670728  0.00969591  1  -0.621668  0  -0.1021  -0.134466  0  1.353114  0
F  F246  1  0.31329606  0.31329793  0.49030110  1  -0.618383  0  -0.102152  -0.134496  0  1.353  0
F  F247  1  0.18669989  0.31329819  0.00970017  1  -0.618387  0  -0.102148  -0.134522  0  1.353144  0
F  F248  1  0.18670540  0.00969612  0.31329287  1  -0.622077  0  -0.102078  -0.134469  0  1.353217  0
F  F249  1  0.18670725  0.49030260  0.18670263  1  -0.62208  0  -0.102128  -0.134497  0  1.353117  0
F  F250  1  0.31329907  0.00969955  0.18670292  1  -0.618369  0  -0.10215  -0.134503  0  1.353065  0
F  F251  1  0.31329753  0.49030077  0.31329715  1  -0.618028  0  -0.10216  -0.134535  0  1.353045  0
