# generated using pymatgen
data_CaH6C5(NO3)2
_symmetry_space_group_name_H-M   'P 1'
_cell_length_a   6.80289247
_cell_length_b   6.79452435
_cell_length_c   19.04650220
_cell_angle_alpha   90.00106562
_cell_angle_beta   90.00014341
_cell_angle_gamma   100.15812093
_symmetry_Int_Tables_number   1
_chemical_formula_structural   CaH6C5(NO3)2
_chemical_formula_sum   'Ca4 H24 C20 N8 O24'
_cell_volume   866.57531945
_cell_formula_units_Z   4
loop_
 _symmetry_equiv_pos_site_id
 _symmetry_equiv_pos_as_xyz
  1  'x, y, z'
loop_
 _atom_site_type_symbol
 _atom_site_label
 _atom_site_symmetry_multiplicity
 _atom_site_fract_x
 _atom_site_fract_y
 _atom_site_fract_z
 _atom_site_occupancy
 _atom_site_pbe_bader_charge
 _atom_site_pbe_bader_spin_density
 _atom_site_pbe_cm5_charge
 _atom_site_pbe_ddec_charge
 _atom_site_pbe_ddec_spin_density
 _atom_site_pbe_ddec_sum_bond_order
 _atom_site_pbe_magmom
Ca  Ca0  1  0.55489836  0.74551143  0.88391528  1  1.639334  0  0.884453  1.370224  0  1.455295  0
Ca  Ca1  1  0.44510471  0.75449804  0.38392279  1  1.639221  0  0.884384  1.370244  0  1.45542  0
Ca  Ca2  1  0.44509991  0.25448723  0.11608357  1  1.639324  0  0.884466  1.370246  0  1.455232  0
Ca  Ca3  1  0.55490360  0.24549916  0.61607921  1  1.639237  0  0.884377  1.370269  0  1.455327  0
H  H4  1  0.02134479  0.89435854  0.63087087  1  0.147477  0  0.149035  0.110169  0  0.957851  0
H  H5  1  0.97864110  0.60563730  0.13088056  1  0.147562  0  0.149047  0.110165  0  0.958029  0
H  H6  1  0.97866256  0.10564164  0.36913008  1  0.14742  0  0.149026  0.110183  0  0.957829  0
H  H7  1  0.02136703  0.39436736  0.86912511  1  0.147464  0  0.149031  0.110133  0  0.957977  0
H  H8  1  0.72179423  0.95685488  0.02886013  1  0.648276  0  0.304452  0.401666  0  0.930736  0
H  H9  1  0.27820318  0.54312599  0.52885804  1  0.648146  0  0.304443  0.401681  0  0.93071  0
H  H10  1  0.27820180  0.04313928  0.97113924  1  0.648212  0  0.304437  0.401659  0  0.93074  0
H  H11  1  0.72179267  0.45687564  0.47114606  1  0.648187  0  0.30446  0.40173  0  0.930661  0
H  H12  1  0.83101869  0.82521532  0.97666399  1  0.64386  0  0.307608  0.384098  0  0.944266  0
H  H13  1  0.16896935  0.67477745  0.47666535  1  0.643989  0  0.307621  0.384102  0  0.944228  0
H  H14  1  0.16897491  0.17478183  0.02333224  1  0.644024  0  0.307626  0.384126  0  0.944214  0
H  H15  1  0.83102484  0.32523165  0.52333875  1  0.643836  0  0.307664  0.384155  0  0.944139  0
H  H16  1  0.61545002  0.31701592  0.89628450  1  0.630404  0  0.302636  0.396065  0  0.930897  0
H  H17  1  0.38454319  0.18298629  0.39628617  1  0.630366  0  0.302614  0.39606  0  0.930905  0
H  H18  1  0.38454211  0.68298121  0.10371488  1  0.630597  0  0.302652  0.396066  0  0.930879  0
H  H19  1  0.61545526  0.81700489  0.60371005  1  0.630376  0  0.30264  0.39607  0  0.930885  0
H  H20  1  0.46859374  0.34974304  0.95468267  1  0.638947  0  0.304218  0.395762  0  0.935523  0
H  H21  1  0.53139630  0.15026689  0.45468425  1  0.639126  0  0.304231  0.395814  0  0.935454  0
H  H22  1  0.53139225  0.65025258  0.04531566  1  0.638978  0  0.304208  0.395807  0  0.935433  0
H  H23  1  0.46859046  0.84973322  0.54531565  1  0.639083  0  0.304234  0.395818  0  0.935478  0
H  H24  1  0.86709173  0.79385845  0.75099527  1  0.568141  0  0.312703  0.285944  0  1.016344  0
H  H25  1  0.13289912  0.70614250  0.25100185  1  0.568049  0  0.312688  0.28587  0  1.016554  0
H  H26  1  0.13290974  0.20614171  0.24900463  1  0.568129  0  0.312721  0.285946  0  1.016371  0
H  H27  1  0.86710434  0.29386065  0.74900225  1  0.568147  0  0.312699  0.285923  0  1.016553  0
C  C28  1  0.53197696  0.10665357  0.78209589  1  1.622034  0  0.23076  0.594357  0  4.220419  0
C  C29  1  0.46802746  0.39334526  0.28208691  1  1.62204  0  0.230955  0.594653  0  4.219896  0
C  C30  1  0.46802988  0.89334362  0.21790558  1  1.622054  0  0.23082  0.594477  0  4.220323  0
C  C31  1  0.53197177  0.60665041  0.71791036  1  1.622001  0  0.230893  0.594644  0  4.219793  0
C  C32  1  0.33026646  0.00858964  0.75882789  1  0.439253  0  0.08376  -0.02454  0  4.010846  0
C  C33  1  0.66972337  0.49141144  0.25883719  1  0.391031  0  0.083689  -0.024741  0  4.011231  0
C  C34  1  0.66973303  0.99140753  0.24117148  1  0.439267  0  0.083694  -0.024686  0  4.010767  0
C  C35  1  0.33027559  0.50858274  0.74116324  1  0.391157  0  0.083641  -0.024895  0  4.010801  0
C  C36  1  0.15866065  0.91442929  0.79453623  1  0.369021  0  0.096236  -0.006352  0  3.903919  0
C  C37  1  0.84133431  0.58557448  0.29454355  1  0.416901  0  0.096204  -0.006231  0  3.903742  0
C  C38  1  0.84134333  0.08557685  0.20546419  1  0.369082  0  0.096263  -0.006243  0  3.903844  0
C  C39  1  0.15865090  0.41441666  0.70545478  1  0.416863  0  0.096319  -0.006121  0  3.903752  0
C  C40  1  0.10167441  0.91982101  0.68026779  1  1.013694  0  0.161249  0.181062  0  3.944449  0
C  C41  1  0.89832735  0.58017936  0.18027186  1  1.013604  0  0.161154  0.180988  0  3.94419  0
C  C42  1  0.89832732  0.08018064  0.31973369  1  1.013712  0  0.161203  0.180983  0  3.944424  0
C  C43  1  0.10168199  0.41982382  0.81972804  1  1.013528  0  0.161133  0.180926  0  3.944087  0
C  C44  1  0.10828315  0.86416903  0.86938210  1  1.607222  0  0.23033  0.591951  0  4.252861  0
C  C45  1  0.89173088  0.63586545  0.36938869  1  1.607228  0  0.230307  0.591848  0  4.25271  0
C  C46  1  0.89171270  0.13583261  0.13061780  1  1.607345  0  0.230357  0.591891  0  4.252964  0
C  C47  1  0.10827457  0.36414070  0.63061437  1  1.607154  0  0.230334  0.591873  0  4.252777  0
N  N48  1  0.29021887  0.01093145  0.68775589  1  -1.259831  0  -0.377872  -0.411596  0  3.444052  0
N  N49  1  0.70977107  0.48906600  0.18776655  1  -1.259333  0  -0.377811  -0.411459  0  3.443874  0
N  N50  1  0.70978484  0.98907320  0.31224768  1  -1.259841  0  -0.377828  -0.411473  0  3.443845  0
N  N51  1  0.29024095  0.51093570  0.81223965  1  -1.259255  0  -0.377764  -0.4113  0  3.443557  0
N  N52  1  0.01779473  0.86272875  0.74296847  1  -1.279754  0  -0.360442  -0.217524  0  3.644983  0
N  N53  1  0.98220617  0.63728545  0.24297636  1  -1.279574  0  -0.36037  -0.217466  0  3.644919  0
N  N54  1  0.98220847  0.13727291  0.25703248  1  -1.279777  0  -0.360454  -0.217584  0  3.645047  0
N  N55  1  0.01779678  0.36271472  0.75702302  1  -1.279692  0  -0.360399  -0.217468  0  3.644978  0
O  O56  1  0.92519137  0.82609800  0.88600679  1  -1.192503  0  -0.333659  -0.595843  0  2.23031  0
O  O57  1  0.07481512  0.67394890  0.38601261  1  -1.192586  0  -0.333651  -0.595774  0  2.230497  0
O  O58  1  0.07480595  0.17390364  0.11399311  1  -1.1924  0  -0.333711  -0.595868  0  2.230357  0
O  O59  1  0.92520070  0.32606626  0.61398676  1  -1.192516  0  -0.333589  -0.595735  0  2.230625  0
O  O60  1  0.63859111  0.20660086  0.73428273  1  -1.209394  0  -0.356969  -0.594285  0  2.31741  0
O  O61  1  0.36141068  0.29340251  0.23429092  1  -1.209857  0  -0.357001  -0.594177  0  2.317914  0
O  O62  1  0.36141425  0.79339632  0.26571927  1  -1.209499  0  -0.356951  -0.594285  0  2.317405  0
O  O63  1  0.63859443  0.70659318  0.76571003  1  -1.209796  0  -0.357051  -0.594269  0  2.31781  0
O  O64  1  0.70207723  0.83165774  0.99995856  1  -1.302292  0  -0.59798  -0.796961  0  2.019276  0
O  O65  1  0.29791233  0.66832527  0.49995991  1  -1.302322  0  -0.597989  -0.796939  0  2.019265  0
O  O66  1  0.29791931  0.16833941  0.00003976  1  -1.302432  0  -0.597961  -0.796951  0  2.019239  0
O  O67  1  0.70208524  0.33167786  0.50004314  1  -1.302204  0  -0.598062  -0.797045  0  2.01922  0
O  O68  1  0.58697225  0.42162525  0.92905777  1  -1.287522  0  -0.623203  -0.819557  0  1.938133  0
O  O69  1  0.41302046  0.07838392  0.42905880  1  -1.287631  0  -0.623211  -0.819589  0  1.938082  0
O  O70  1  0.41301866  0.57837338  0.07094213  1  -1.287738  0  -0.62321  -0.819605  0  1.937972  0
O  O71  1  0.58697211  0.92160724  0.57093953  1  -1.287624  0  -0.623232  -0.819616  0  1.938059  0
O  O72  1  0.25149395  0.85922028  0.91267462  1  -1.220028  0  -0.365272  -0.633917  0  2.255582  0
O  O73  1  0.74849818  0.64078553  0.41268529  1  -1.220083  0  -0.365177  -0.633867  0  2.255378  0
O  O74  1  0.74849611  0.14076489  0.08732686  1  -1.220231  0  -0.365228  -0.633822  0  2.255573  0
O  O75  1  0.25151237  0.35921616  0.58731828  1  -1.220018  0  -0.365249  -0.633917  0  2.255092  0
O  O76  1  0.59255597  0.09015844  0.84447394  1  -1.216315  0  -0.352046  -0.610849  0  2.223878  0
O  O77  1  0.40743748  0.40984670  0.34448401  1  -1.2159  0  -0.352162  -0.611168  0  2.22278  0
O  O78  1  0.40744333  0.90984619  0.15552912  1  -1.216222  0  -0.352071  -0.61085  0  2.22376  0
O  O79  1  0.59256590  0.59014749  0.65551536  1  -1.215925  0  -0.352098  -0.611079  0  2.222786  0
