# generated using pymatgen
data_CuH16C13N2O5
_symmetry_space_group_name_H-M   'P 1'
_cell_length_a   7.96504337
_cell_length_b   8.68824329
_cell_length_c   10.74858204
_cell_angle_alpha   98.91270758
_cell_angle_beta   96.27494238
_cell_angle_gamma   94.49977278
_symmetry_Int_Tables_number   1
_chemical_formula_structural   CuH16C13N2O5
_chemical_formula_sum   'Cu2 H32 C26 N4 O10'
_cell_volume   726.98780489
_cell_formula_units_Z   2
loop_
 _symmetry_equiv_pos_site_id
 _symmetry_equiv_pos_as_xyz
  1  'x, y, z'
loop_
 _atom_site_type_symbol
 _atom_site_label
 _atom_site_symmetry_multiplicity
 _atom_site_fract_x
 _atom_site_fract_y
 _atom_site_fract_z
 _atom_site_occupancy
 _atom_site_hle17_ddec_charge
 _atom_site_hle17_ddec_spin_density
 _atom_site_hle17_ddec_sum_bond_order
 _atom_site_hle17_magmom
 _atom_site_hse06_10hf_ddec_charge
 _atom_site_hse06_10hf_ddec_spin_density
 _atom_site_hse06_10hf_ddec_sum_bond_order
 _atom_site_hse06_10hf_magmom
 _atom_site_hse06_ddec_charge
 _atom_site_hse06_ddec_spin_density
 _atom_site_hse06_ddec_sum_bond_order
 _atom_site_hse06_magmom
 _atom_site_pbe_cm5_charge
 _atom_site_pbe_ddec_charge
 _atom_site_pbe_ddec_spin_density
 _atom_site_pbe_ddec_sum_bond_order
 _atom_site_pbe_magmom
Cu  Cu0  1  0.46093293  0.47572254  0.11084993  1  0.831853  -0.663368  1.907658  -0.479  0.816212  -0.795891  2.320569  -0.632  0.921874  -0.88701  2.235393  -0.734  0.676787  0.748817  -0.686384  2.3792  -0.534
Cu  Cu1  1  0.53906860  0.52425614  0.88915936  1  0.831835  0.663376  1.907772  0.479  0.816211  0.795895  2.320704  0.632  0.921864  0.887015  2.235563  0.734  0.676775  0.748847  0.68638  2.379258  0.534
H  H2  1  0.53122106  0.21431083  0.69173201  1  0.28487  0.000137  0.953826  0.0  0.267148  0.000142  1.020651  0.0  0.274929  5.9e-05  1.015584  0.0  0.300096  0.261621  0.00016  1.024495  0.0
H  H3  1  0.46877093  0.78568529  0.30827379  1  0.284865  -0.000136  0.954026  0.0  0.267139  -0.000142  1.020842  0.0  0.274923  -5.9e-05  1.015769  0.0  0.300071  0.261613  -0.00016  1.024688  0.0
H  H4  1  0.63501285  0.31589744  0.31338064  1  0.09444  2.3e-05  0.955262  0.0  0.099727  3.2e-05  1.023846  0.0  0.104356  5.1e-05  1.019102  0.0  0.118616  0.096095  1.6e-05  1.027766  0.0
H  H5  1  0.36497719  0.68410313  0.68661247  1  0.094459  -2.3e-05  0.955205  0.0  0.099718  -3.1e-05  1.023828  0.0  0.104347  -5e-05  1.019083  0.0  0.118617  0.096082  -1.6e-05  1.027749  0.0
H  H6  1  0.29743228  0.23030765  0.58805344  1  0.10624  0.000102  0.943759  0.0  0.119588  0.000116  1.001131  0.0  0.123638  6.3e-05  0.99738  0.0  0.115219  0.116401  0.000136  1.004379  0.0
H  H7  1  0.70256887  0.76970365  0.41195116  1  0.106391  -9.8e-05  0.943811  0.0  0.119703  -0.000116  1.001198  0.0  0.123742  -6.4e-05  0.997449  0.0  0.115321  0.11652  -0.000136  1.004446  0.0
H  H8  1  0.08623903  0.37393014  0.47459197  1  0.108583  1.3e-05  0.937468  0.0  0.122104  8e-06  0.988177  0.0  0.126043  8e-06  0.986772  0.0  0.111892  0.119034  9e-06  0.989947  0.0
H  H9  1  0.91374788  0.62606601  0.52541618  1  0.108567  -1.9e-05  0.937461  0.0  0.122051  -9e-06  0.988217  0.0  0.125986  -8e-06  0.986815  0.0  0.111872  0.118983  -9e-06  0.989985  0.0
H  H10  1  0.16623108  0.49132253  0.28737340  1  0.079517  4.2e-05  0.930513  0.0  0.092679  4.3e-05  0.986416  0.0  0.095978  4.3e-05  0.983509  0.0  0.119206  0.090355  3.8e-05  0.988148  0.0
H  H11  1  0.83375021  0.50866769  0.71262986  1  0.079471  -4.4e-05  0.930533  0.0  0.092628  -4.3e-05  0.986439  0.0  0.095943  -4.3e-05  0.983509  0.0  0.119179  0.090302  -3.8e-05  0.988164  0.0
H  H12  1  0.80660102  0.00778049  0.64262453  1  0.097637  2.7e-05  0.952164  0.0  0.116761  -5e-06  1.017097  0.0  0.117484  -7e-06  1.016984  0.0  0.104892  0.116075  5e-06  1.017245  0.0
H  H13  1  0.19337921  0.99221072  0.35736852  1  0.097622  -2.7e-05  0.952189  0.0  0.116788  5e-06  1.017078  0.0  0.117501  7e-06  1.016973  0.0  0.104914  0.116108  -5e-06  1.017227  0.0
H  H14  1  0.69220372  0.02598234  0.77792833  1  0.091049  -2.3e-05  0.92845  0.0  0.116201  -1.2e-05  0.985467  0.0  0.116501  -1.2e-05  0.985835  0.0  0.103791  0.115909  -1.3e-05  0.985204  0.0
H  H15  1  0.30779457  0.97401241  0.22206483  1  0.091101  2.1e-05  0.928282  0.0  0.116236  1.2e-05  0.985332  0.0  0.116538  1.2e-05  0.98569  0.0  0.103826  0.11595  1.3e-05  0.985069  0.0
H  H16  1  0.84686959  0.17890808  0.76143498  1  0.075567  5.4e-05  0.955205  0.0  0.097074  5.4e-05  1.02238  0.0  0.097869  2.5e-05  1.021219  0.0  0.094042  0.096529  8.2e-05  1.023135  0.0
H  H17  1  0.15312804  0.82108096  0.23856585  1  0.075568  -5.5e-05  0.955202  0.0  0.09707  -5.4e-05  1.022384  0.0  0.097863  -2.5e-05  1.02122  0.0  0.094016  0.096529  -8.2e-05  1.02314  0.0
H  H18  1  0.02705844  0.75907178  0.03587380  1  0.097535  0.001009  0.942514  0.001  0.112985  0.000693  1.002649  0.001  0.11444  0.000474  1.002902  0.001  0.097595  0.111667  0.000856  1.002621  0.001
H  H19  1  0.97294681  0.24091581  0.96410984  1  0.097584  -0.001004  0.942508  -0.001  0.112928  -0.000693  1.002705  -0.001  0.114378  -0.000474  1.00296  -0.001  0.097526  0.111611  -0.000856  1.002669  -0.001
H  H20  1  0.96020548  0.61251347  0.90492758  1  0.118774  0.000149  0.949522  0.0  0.128979  6.7e-05  1.014762  0.0  0.131041  -1e-06  1.014146  0.0  0.103132  0.127249  3.8e-05  1.015369  0.0
H  H21  1  0.03979785  0.38749288  0.09506083  1  0.118811  -0.000143  0.949582  0.0  0.128937  -6.7e-05  1.014855  0.0  0.131005  0.0  1.014225  0.0  0.103085  0.127207  -3.8e-05  1.015469  0.0
H  H22  1  0.11425470  0.77275845  0.76485356  1  0.076442  9.7e-05  0.936581  0.0  0.092715  7e-05  0.999551  0.0  0.093286  4.2e-05  0.99972  0.0  0.092112  0.092189  0.000107  0.999539  0.0
H  H23  1  0.88573714  0.22724670  0.23513371  1  0.076568  -9.9e-05  0.936614  0.0  0.092783  -7e-05  0.999571  0.0  0.093353  -4.2e-05  0.999742  0.0  0.092117  0.092258  -0.000108  0.999565  0.0
H  H24  1  0.95395398  0.86996606  0.83564854  1  0.062744  -0.000829  0.945078  -0.001  0.080855  -0.000517  1.00855  -0.001  0.080404  -0.00031  1.010577  0.0  0.088623  0.081003  -0.000543  1.007243  -0.001
H  H25  1  0.04606202  0.13005603  0.16437067  1  0.062841  0.000828  0.945109  0.001  0.080892  0.000517  1.008553  0.001  0.080441  0.00031  1.01058  0.0  0.088624  0.081044  0.000543  1.00725  0.001
H  H26  1  0.16780364  0.02393812  0.00429937  1  0.061145  -0.00026  0.963119  0.0  0.078947  -0.000191  1.028005  0.0  0.0798  -0.00012  1.028397  0.0  0.087098  0.078101  -0.000233  1.028258  0.0
H  H27  1  0.83219376  0.97607167  0.99568519  1  0.061109  0.00026  0.963022  0.0  0.078937  0.000191  1.027962  0.0  0.079793  0.00012  1.028354  0.0  0.087086  0.078092  0.000233  1.028209  0.0
H  H28  1  0.33081884  0.91976227  0.94458534  1  0.068723  -0.000226  0.927843  0.0  0.08974  -0.000111  0.981661  0.0  0.089928  -7.9e-05  0.982682  0.0  0.089564  0.089527  -7.8e-05  0.981058  0.0
H  H29  1  0.66919834  0.08025859  0.05543011  1  0.068678  0.000225  0.927755  0.0  0.089747  0.000111  0.981584  0.0  0.089939  7.9e-05  0.982605  0.0  0.089538  0.089536  7.7e-05  0.98098  0.0
H  H30  1  0.29479872  0.02981707  0.74489299  1  0.120067  -0.000789  0.937989  -0.001  0.131608  -0.000491  0.999932  -0.001  0.133928  -0.000335  0.999188  0.0  0.1026  0.129617  -0.000501  1.000918  -0.001
H  H31  1  0.70523106  0.97020109  0.25509997  1  0.120206  0.000787  0.937995  0.001  0.131671  0.00049  1.000023  0.001  0.133994  0.000335  0.999274  0.0  0.102605  0.12968  0.000501  1.001012  0.001
H  H32  1  0.11590654  0.11807750  0.78933177  1  0.101389  -0.000185  0.925829  0.0  0.11905  -0.000171  0.982265  0.0  0.120337  -0.000117  0.982499  0.0  0.104141  0.118595  -0.000174  0.98155  0.0
H  H33  1  0.88410549  0.88191621  0.21066711  1  0.101442  0.000182  0.925732  0.0  0.119089  0.000171  0.982188  0.0  0.120378  0.000117  0.982421  0.0  0.10419  0.118641  0.000174  0.981467  0.0
C  C34  1  0.51556384  0.32887197  0.35274987  1  0.116468  0.00032  3.666087  0.0  0.082892  0.000291  3.914865  0.0  0.0915  0.000291  3.931417  0.0  0.052712  0.07781  0.000289  3.903839  0.0
C  C35  1  0.48443247  0.67112873  0.64725031  1  0.116425  -0.000321  3.66622  0.0  0.082863  -0.000291  3.914983  0.0  0.091467  -0.000291  3.931533  0.0  0.052668  0.07778  -0.000289  3.90395  0.0
C  C36  1  0.48600935  0.26470369  0.46084074  1  -0.102421  -0.000212  3.749689  0.0  -0.07547  -0.000105  3.984386  0.0  -0.086416  -0.000111  4.008046  0.0  -0.007794  -0.069191  -9.9e-05  3.968195  0.0
C  C37  1  0.51398396  0.73529232  0.53915864  1  -0.102486  0.000225  3.749794  0.0  -0.075417  0.000104  3.984409  0.0  -0.086358  0.000109  4.008072  0.0  -0.007807  -0.069141  9.9e-05  3.968217  0.0
C  C38  1  0.32876597  0.28067972  0.50587197  1  -0.007681  0.000361  3.675274  0.0  -0.037415  0.000316  3.920593  0.0  -0.03028  0.000248  3.934401  0.0  -0.056326  -0.041864  0.00042  3.911632  0.0
C  C39  1  0.67122910  0.71933388  0.49413143  1  -0.00792  -0.000388  3.675622  0.0  -0.037647  -0.000316  3.920939  0.0  -0.0305  -0.000247  3.934733  0.0  -0.056445  -0.042103  -0.00042  3.911994  0.0
C  C40  1  0.21072080  0.36153423  0.44307331  1  -0.125205  -0.000199  3.735905  0.0  -0.133016  -9.7e-05  3.982928  0.0  -0.14079  -0.000109  4.001986  0.0  -0.079765  -0.128602  -8.8e-05  3.970826  0.0
C  C41  1  0.78926575  0.63846996  0.55692642  1  -0.12505  0.000224  3.736007  0.0  -0.132832  9.8e-05  3.983001  0.0  -0.140605  0.000108  4.002067  0.0  -0.079696  -0.128422  8.8e-05  3.970903  0.0
C  C42  1  0.25334287  0.42467467  0.33797916  1  0.132096  0.000363  3.706053  0.0  0.101732  0.000314  3.968562  0.0  0.110688  0.000285  3.985462  0.0  0.049765  0.096601  0.000356  3.956235  0.0
C  C43  1  0.74665344  0.57532602  0.66202009  1  0.132101  -0.000366  3.706069  0.0  0.101757  -0.000315  3.968563  0.0  0.110697  -0.000286  3.985463  0.0  0.049763  0.096629  -0.000356  3.956229  0.0
C  C44  1  0.62607783  0.18220365  0.51894214  1  0.520683  3e-06  3.895664  0.0  0.468634  1.6e-05  4.191756  0.0  0.497014  1.4e-05  4.194367  0.0  0.22857  0.449928  1.8e-05  4.187801  0.0
C  C45  1  0.37392239  0.81781119  0.48106464  1  0.520814  -2e-06  3.895776  0.0  0.468603  -1.4e-05  4.192109  0.0  0.496975  -1.5e-05  4.19473  0.0  0.228513  0.4499  -1.8e-05  4.18815  0.0
C  C46  1  0.74803837  0.08925320  0.70918182  1  -0.105664  4.6e-05  3.699502  0.0  -0.208879  1.1e-05  3.961956  0.0  -0.203923  -1.2e-05  3.971277  0.0  -0.139756  -0.211575  1.3e-05  3.954643  0.0
C  C47  1  0.25195415  0.91074749  0.29081802  1  -0.10568  -3.9e-05  3.699373  0.0  -0.208878  -1.1e-05  3.961787  0.0  -0.203933  1.2e-05  3.971164  0.0  -0.139751  -0.211579  -1.3e-05  3.954477  0.0
C  C48  1  0.22255221  0.62681901  0.96834444  1  0.694398  0.000575  3.789647  0.001  0.66121  0.000563  4.088356  0.001  0.702507  0.00056  4.081651  0.001  0.217934  0.632785  0.00054  4.092766  0.001
C  C49  1  0.77745392  0.37317807  0.03164780  1  0.694642  -0.000559  3.789211  -0.001  0.661404  -0.000564  4.087923  -0.001  0.702699  -0.000563  4.081217  -0.001  0.218005  0.632961  -0.000543  4.092362  -0.001
C  C50  1  0.06199171  0.70602775  0.94396892  1  -0.258556  0.000872  3.663483  0.001  -0.297815  0.000675  3.913788  0.001  -0.306177  0.000398  3.922877  0.0  -0.163811  -0.290297  0.000434  3.90632  0.0
C  C51  1  0.93802076  0.29396931  0.05602107  1  -0.258714  -0.000899  3.663748  -0.001  -0.297709  -0.000669  3.913652  -0.001  -0.306064  -0.000395  3.922732  0.0  -0.163664  -0.290185  -0.00043  3.906185  0.0
C  C52  1  0.07884029  0.82722594  0.85635887  1  -0.089506  -0.000176  3.693638  0.0  -0.133949  -0.00018  3.961235  0.0  -0.133941  -0.000183  3.97657  0.0  -0.168755  -0.133668  -0.000546  3.950195  -0.001
C  C53  1  0.92117265  0.17277582  0.14363263  1  -0.089812  0.000186  3.693967  0.0  -0.134058  0.00018  3.961313  0.0  -0.134045  0.000182  3.976649  0.0  -0.168759  -0.133775  0.000546  3.950281  0.001
C  C54  1  0.20894969  0.96425492  0.91662764  1  -0.082751  0.001918  3.693098  0.002  -0.123028  0.000937  3.952786  0.001  -0.122719  0.00058  3.966542  0.001  -0.169477  -0.123777  0.001035  3.943941  0.001
C  C55  1  0.79106245  0.03575155  0.08336619  1  -0.08251  -0.001918  3.692692  -0.002  -0.122997  -0.000937  3.952579  -0.001  -0.122704  -0.000579  3.966362  -0.001  -0.169475  -0.123751  -0.001035  3.943729  -0.001
C  C56  1  0.23819516  0.08218155  0.82836326  1  -0.256346  7.4e-05  3.656783  0.0  -0.294004  6.8e-05  3.904417  0.0  -0.302406  -2.1e-05  3.913599  0.0  -0.159254  -0.286933  -0.000211  3.897028  0.0
C  C57  1  0.76181671  0.91782264  0.17163401  1  -0.256449  -6.9e-05  3.656727  0.0  -0.294153  -6.7e-05  3.904468  0.0  -0.302547  2.1e-05  3.913642  0.0  -0.15931  -0.287073  0.000213  3.897069  0.0
C  C58  1  0.34279095  0.23277097  0.89194024  1  0.693199  0.000784  3.795976  0.001  0.656669  0.00016  4.098707  0.0  0.697631  6.8e-05  4.091624  0.0  0.217166  0.628988  9.5e-05  4.102415  0.0
C  C59  1  0.65720308  0.76723344  0.10807226  1  0.692708  -0.000775  3.796777  -0.001  0.656498  -0.000157  4.09902  0.0  0.697465  -6.7e-05  4.09194  0.0  0.217159  0.62881  -9.6e-05  4.102734  0.0
N  N60  1  0.40289488  0.40778165  0.29253847  1  -0.311934  0.001026  3.230889  0.0  -0.265631  0.00065  3.524013  0.0  -0.287575  0.000716  3.539894  0.0  -0.335091  -0.251979  0.000515  3.513677  0.0
N  N61  1  0.59709857  0.59221549  0.70745826  1  -0.311991  -0.001026  3.230979  0.0  -0.26569  -0.000651  3.524062  0.0  -0.287641  -0.000715  3.539972  0.0  -0.335077  -0.252048  -0.000516  3.513714  0.0
N  N62  1  0.61717992  0.16024720  0.63989549  1  -0.394184  0.000187  3.342854  0.0  -0.328196  9.6e-05  3.598869  0.0  -0.351294  1.8e-05  3.611007  0.0  -0.429873  -0.312141  0.000202  3.588219  0.0
N  N63  1  0.38280922  0.83974532  0.36010499  1  -0.394249  -0.000194  3.342965  0.0  -0.328252  -9.6e-05  3.599105  0.0  -0.351349  -1.9e-05  3.611235  0.0  -0.429825  -0.312199  -0.000203  3.588462  0.0
O  O64  1  0.25113665  0.58132600  0.07550584  1  -0.582941  -0.077542  2.07765  -0.102  -0.559705  -0.052936  2.358549  -0.077  -0.604557  -0.041433  2.351588  -0.064  -0.315393  -0.530542  -0.056166  2.36375  -0.078
O  O65  1  0.74886442  0.41865953  0.92449395  1  -0.582992  0.077524  2.077746  0.102  -0.559744  0.052929  2.358654  0.077  -0.604571  0.041429  2.35165  0.064  -0.315458  -0.530582  0.05616  2.363859  0.078
O  O66  1  0.31571169  0.61057912  0.87918454  1  -0.576858  0.073709  2.110433  0.097  -0.549118  0.050482  2.386005  0.073  -0.595109  0.039538  2.379368  0.06  -0.311155  -0.519539  0.052881  2.391378  0.074
O  O67  1  0.68429387  0.38941348  0.12081831  1  -0.57701  -0.073717  2.110226  -0.097  -0.549298  -0.050483  2.385839  -0.073  -0.595303  -0.039538  2.379202  -0.06  -0.311165  -0.519706  -0.052878  2.391235  -0.074
O  O68  1  0.34623635  0.27240175  0.01089672  1  -0.568414  -0.068568  2.08092  -0.091  -0.545025  -0.047875  2.359448  -0.069  -0.589148  -0.03805  2.35305  -0.058  -0.306361  -0.515442  -0.049153  2.363315  -0.069
O  O69  1  0.65375704  0.72758394  0.98911359  1  -0.568362  0.068571  2.08114  0.091  -0.545099  0.047871  2.359556  0.069  -0.589224  0.038046  2.353155  0.058  -0.306399  -0.515512  0.049153  2.363413  0.069
O  O70  1  0.41661207  0.31188756  0.81867344  1  -0.599787  0.071543  2.130661  0.095  -0.570243  0.051236  2.40649  0.075  -0.615019  0.040772  2.399478  0.063  -0.314153  -0.541422  0.051095  2.41217  0.072
O  O71  1  0.58338743  0.68810872  0.18134047  1  -0.599582  -0.071546  2.130999  -0.095  -0.570081  -0.051237  2.406591  -0.075  -0.614856  -0.04077  2.399578  -0.063  -0.314112  -0.541259  -0.051091  2.412284  -0.072
O  O72  1  0.74254533  0.13868570  0.45711738  1  -0.571091  0.000132  1.883401  0.0  -0.531933  8.8e-05  2.100459  0.0  -0.551738  4.5e-05  2.094559  0.0  -0.318572  -0.517862  0.000191  2.10383  0.0
O  O73  1  0.25746546  0.86132093  0.54288659  1  -0.57108  -0.000135  1.88368  0.0  -0.53188  -8.9e-05  2.100847  0.0  -0.551675  -4.2e-05  2.094947  0.0  -0.31854  -0.51781  -0.000191  2.104213  0.0
