# generated using pymatgen
data_SrH4C(N3O2)2
_symmetry_space_group_name_H-M   'P 1'
_cell_length_a   6.52469087
_cell_length_b   8.80738510
_cell_length_c   13.41832661
_cell_angle_alpha   84.83338617
_cell_angle_beta   75.92983926
_cell_angle_gamma   68.26299703
_symmetry_Int_Tables_number   1
_chemical_formula_structural   SrH4C(N3O2)2
_chemical_formula_sum   'Sr4 H16 C4 N24 O16'
_cell_volume   694.77219127
_cell_formula_units_Z   4
loop_
 _symmetry_equiv_pos_site_id
 _symmetry_equiv_pos_as_xyz
  1  'x, y, z'
loop_
 _atom_site_type_symbol
 _atom_site_label
 _atom_site_symmetry_multiplicity
 _atom_site_fract_x
 _atom_site_fract_y
 _atom_site_fract_z
 _atom_site_occupancy
 _atom_site_hle17_bader_spin_density
 _atom_site_hle17_ddec_charge
 _atom_site_hle17_ddec_spin_density
 _atom_site_hle17_ddec_sum_bond_order
 _atom_site_hle17_magmom
 _atom_site_hse06_10hf_bader_spin_density
 _atom_site_hse06_10hf_ddec_charge
 _atom_site_hse06_10hf_ddec_spin_density
 _atom_site_hse06_10hf_ddec_sum_bond_order
 _atom_site_hse06_10hf_magmom
 _atom_site_hse06_bader_spin_density
 _atom_site_hse06_ddec_charge
 _atom_site_hse06_ddec_spin_density
 _atom_site_hse06_ddec_sum_bond_order
 _atom_site_hse06_magmom
 _atom_site_pbe_bader_spin_density
 _atom_site_pbe_cm5_charge
 _atom_site_pbe_ddec_charge
 _atom_site_pbe_ddec_spin_density
 _atom_site_pbe_ddec_sum_bond_order
 _atom_site_pbe_magmom
Sr  Sr0  1  0.76058602  0.84145409  0.85900697  1  0  1.545309  0  1.161056  0  0  1.378072  0  1.553069  0  0  1.417016  0  1.509053  0  0  0.996913  1.349718  0  1.58414  0
Sr  Sr1  1  0.46102244  0.15849559  0.14098747  1  0  1.545251  0  1.160994  0  0  1.378704  0  1.551922  0  0  1.417641  0  1.507836  0  0  0.997601  1.350225  0  1.583058  0
Sr  Sr2  1  0.36957029  0.34149536  0.64098964  1  0  1.544884  0  1.161838  0  0  1.37857  0  1.552355  0  0  1.417524  0  1.50826  0  0  0.997288  1.350097  0  1.583502  0
Sr  Sr3  1  0.35196496  0.65852221  0.35899516  1  0  1.544866  0  1.161259  0  0  1.379152  0  1.550961  0  0  1.418037  0  1.507019  0  0  0.997401  1.35067  0  1.582118  0
H  H4  1  0.41001855  0.71940930  0.79436652  1  0  0.433785  0  0.828281  0  0  0.401572  0  0.908732  0  0  0.411328  0  0.896172  0  0  0.320761  0.394588  0  0.917314  0
H  H5  1  0.92382383  0.28066576  0.20571241  1  0  0.433857  0  0.827974  0  0  0.40151  0  0.908736  0  0  0.411271  0  0.89632  0  0  0.320212  0.394522  0  0.91729  0
H  H6  1  0.95435472  0.21934700  0.70572177  1  0  0.433746  0  0.827862  0  0  0.401654  0  0.908092  0  0  0.411398  0  0.895996  0  0  0.320431  0.394692  0  0.916644  0
H  H7  1  0.87943847  0.78057215  0.29431832  1  0  0.433799  0  0.827775  0  0  0.401443  0  0.908369  0  0  0.411213  0  0.896199  0  0  0.320404  0.394462  0  0.916902  0
H  H8  1  0.44565152  0.86089052  0.71644912  1  0  0.383861  0  0.941229  0  0  0.336624  0  1.031924  0  0  0.348064  0  1.015652  0  0  0.295747  0.328592  0  1.043335  0
H  H9  1  0.02303677  0.13909308  0.28354700  1  0  0.384173  0  0.941189  0  0  0.336839  0  1.032009  0  0  0.348289  0  1.015723  0  0  0.295884  0.328798  0  1.043423  0
H  H10  1  0.91204579  0.36091870  0.78356427  1  0  0.38389  0  0.941363  0  0  0.336536  0  1.032275  0  0  0.347973  0  1.016004  0  0  0.295686  0.328505  0  1.043685  0
H  H11  1  0.05653635  0.63903245  0.21646885  1  0  0.384274  0  0.940901  0  0  0.336934  0  1.031796  0  0  0.348376  0  1.015522  0  0  0.295708  0.328895  0  1.04321  0
H  H12  1  0.15463866  0.95907666  0.84590891  1  0  0.428232  0  0.869233  0  0  0.400774  0  0.926577  0  0  0.411809  0  0.910283  0  0  0.2978  0.392933  0  0.938159  0
H  H13  1  0.95944493  0.04094824  0.15421774  1  0  0.427757  0  0.869471  0  0  0.400075  0  0.927432  0  0  0.411081  0  0.911154  0  0  0.297969  0.392257  0  0.938996  0
H  H14  1  0.75067459  0.45898786  0.65407934  1  0  0.427392  0  0.870046  0  0  0.399674  0  0.927811  0  0  0.410703  0  0.911535  0  0  0.298032  0.39184  0  0.939374  0
H  H15  1  0.86364174  0.54095938  0.34574893  1  0  0.428162  0  0.86936  0  0  0.400108  0  0.927959  0  0  0.41117  0  0.911591  0  0  0.297533  0.392252  0  0.939559  0
H  H16  1  0.94579430  0.10606580  0.91184874  1  0  0.391299  0  0.928805  0  0  0.347041  0  1.015254  0  0  0.358486  0  0.998584  0  0  0.293738  0.338968  0  1.026996  0
H  H17  1  0.96360536  0.89396915  0.08825879  1  0  0.391402  0  0.928744  0  0  0.347235  0  1.01507  0  0  0.358675  0  0.998415  0  0  0.29419  0.339165  0  1.026807  0
H  H18  1  0.60782423  0.60601350  0.58815371  1  0  0.391162  0  0.928909  0  0  0.346836  0  1.01548  0  0  0.358279  0  0.998818  0  0  0.293376  0.338759  0  1.027229  0
H  H19  1  0.80174032  0.39402090  0.41171964  1  0  0.390804  0  0.929898  0  0  0.346237  0  1.016705  0  0  0.357691  0  1.000022  0  0  0.293213  0.338156  0  1.02845  0
C  C20  1  0.25261986  0.47236668  0.94269303  1  0  0.44117  0  3.828167  0  0  0.407586  0  4.131139  0  0  0.42171  0  4.143657  0  0  0.32234  0.397884  0  4.122953  0
C  C21  1  0.66774308  0.52763079  0.05733558  1  0  0.441841  0  3.826709  0  0  0.407018  0  4.131432  0  0  0.421278  0  4.143474  0  0  0.322518  0.397391  0  4.123118  0
C  C22  1  0.94559373  0.97243135  0.55728679  1  0  0.439794  0  3.828993  0  0  0.407088  0  4.13054  0  0  0.421368  0  4.142533  0  0  0.323235  0.397401  0  4.122323  0
C  C23  1  0.47490109  0.02760946  0.44271776  1  0  0.441561  0  3.828448  0  0  0.408434  0  4.130403  0  0  0.422558  0  4.142915  0  0  0.323254  0.398648  0  4.122617  0
N  N24  1  0.33552692  0.37379938  0.85683318  1  0  -0.402237  0  2.906637  0  0  -0.41004  0  3.193527  0  0  -0.420167  0  3.197223  0  0  -0.219769  -0.402928  0  3.19113  0
N  N25  1  0.56604079  0.62623545  0.14319072  1  0  -0.403071  0  2.907399  0  0  -0.410107  0  3.194793  0  0  -0.414967  0  3.204194  0  0  -0.220139  -0.403025  0  3.1924  0
N  N26  1  0.94252773  0.87380883  0.64314479  1  0  -0.402342  0  2.906675  0  0  -0.410083  0  3.192916  0  0  -0.414648  0  3.202511  0  0  -0.220117  -0.402993  0  3.190512  0
N  N27  1  0.45903258  0.12619356  0.35684737  1  0  -0.402796  0  2.907246  0  0  -0.404975  0  3.199459  0  0  -0.414909  0  3.20334  0  0  -0.219689  -0.402826  0  3.191788  0
N  N28  1  0.23960696  0.43495422  0.04378857  1  0  -0.398046  0  3.003677  0  0  -0.369562  0  3.290549  0  0  -0.38211  0  3.304814  0  0  -0.268388  -0.361001  0  3.281111  0
N  N29  1  0.71846377  0.56504798  0.95624093  1  0  -0.398117  0  3.002923  0  0  -0.369329  0  3.290244  0  0  -0.381888  0  3.304541  0  0  -0.26819  -0.360793  0  3.280774  0
N  N30  1  0.03364954  0.93503161  0.45619290  1  0  -0.397328  0  3.004556  0  0  -0.369195  0  3.291341  0  0  -0.381737  0  3.305629  0  0  -0.269015  -0.360631  0  3.28187  0
N  N31  1  0.42458141  0.06503115  0.54379942  1  0  -0.398533  0  3.002844  0  0  -0.370201  0  3.289805  0  0  -0.382764  0  3.304082  0  0  -0.268146  -0.361662  0  3.280336  0
N  N32  1  0.09724168  0.69919639  0.02362685  1  0  -0.102812  0  3.097646  0  0  -0.077592  0  3.382253  0  0  -0.079467  0  3.395174  0  0  -0.087997  -0.076071  0  3.37355  0
N  N33  1  0.81997456  0.30082055  0.97640405  1  0  -0.104168  0  3.099951  0  0  -0.079099  0  3.384479  0  0  -0.080979  0  3.397376  0  0  -0.088302  -0.077562  0  3.375762  0
N  N34  1  0.87091062  0.19926070  0.47636231  1  0  -0.101383  0  3.097562  0  0  -0.075893  0  3.381957  0  0  -0.077768  0  3.394854  0  0  -0.087281  -0.074356  0  3.373192  0
N  N35  1  0.54653610  0.80078492  0.52363225  1  0  -0.104861  0  3.099402  0  0  -0.079592  0  3.384034  0  0  -0.08148  0  3.396965  0  0  -0.088151  -0.078063  0  3.375309  0
N  N36  1  0.14013835  0.58030629  0.09155736  1  0  -0.077643  0  3.099833  0  0  -0.045484  0  3.380913  0  0  -0.048795  0  3.394237  0  0  -0.080236  -0.043077  0  3.372029  0
N  N37  1  0.81203408  0.41970063  0.90847158  1  0  -0.0776  0  3.100356  0  0  -0.045184  0  3.381122  0  0  -0.04847  0  3.394417  0  0  -0.079718  -0.04279  0  3.372258  0
N  N38  1  0.98180385  0.08038248  0.40842658  1  0  -0.078734  0  3.101136  0  0  -0.0468  0  3.382409  0  0  -0.050101  0  3.395725  0  0  -0.079874  -0.044392  0  3.373476  0
N  N39  1  0.47057593  0.91967023  0.59156322  1  0  -0.076144  0  3.098967  0  0  -0.044136  0  3.38  0  0  -0.047448  0  3.393338  0  0  -0.080472  -0.041733  0  3.371101  0
N  N40  1  0.16393535  0.63642589  0.92898301  1  0  -0.382678  0  2.995777  0  0  -0.351226  0  3.283192  0  0  -0.364222  0  3.296041  0  0  -0.233387  -0.342276  0  3.274555  0
N  N41  1  0.72924851  0.36359405  0.07104405  1  0  -0.381349  0  2.994216  0  0  -0.349487  0  3.281859  0  0  -0.362457  0  3.294776  0  0  -0.233532  -0.34057  0  3.273172  0
N  N42  1  0.84305704  0.13646923  0.57100416  1  0  -0.381845  0  2.994867  0  0  -0.351012  0  3.282425  0  0  -0.36401  0  3.295348  0  0  -0.234103  -0.342065  0  3.273759  0
N  N43  1  0.55030173  0.86356838  0.42899867  1  0  -0.380874  0  2.995136  0  0  -0.349709  0  3.282394  0  0  -0.36269  0  3.295262  0  0  -0.233237  -0.34079  0  3.273687  0
N  N44  1  0.43539878  0.21786174  0.86629675  1  0  0.61411  0  4.058113  0  0  0.667804  0  4.309552  0  0  0.691079  0  4.320918  0  0  0.10196  0.652041  0  4.301616  0
N  N45  1  0.51950623  0.78214403  0.13370353  1  0  0.614431  0  4.056393  0  0  0.667187  0  4.308545  0  0  0.674757  0  4.34362  0  0  0.101828  0.651407  0  4.300606  0
N  N46  1  0.05168361  0.71787403  0.63366044  1  0  0.613092  0  4.056752  0  0  0.666956  0  4.308483  0  0  0.673652  0  4.344007  0  0  0.102369  0.651195  0  4.300537  0
N  N47  1  0.40307314  0.28211774  0.36629606  1  0  0.613947  0  4.058137  0  0  0.651068  0  4.333708  0  0  0.673874  0  4.345931  0  0  0.099799  0.650006  0  4.304019  0
O  O48  1  0.98821789  0.01742152  0.86130207  1  0  -0.898646  0  1.854867  0  0  -0.83976  0  2.052086  0  0  -0.859036  0  2.017583  0  0  -0.647732  -0.826028  0  2.076246  0
O  O49  1  0.86680196  0.98253490  0.13884783  1  0  -0.898237  0  1.854478  0  0  -0.839484  0  2.051215  0  0  -0.858735  0  2.016847  0  0  -0.64863  -0.825757  0  2.075272  0
O  O50  1  0.59965579  0.51733953  0.63867336  1  0  -0.897354  0  1.855293  0  0  -0.838265  0  2.052709  0  0  -0.857565  0  2.018244  0  0  -0.647598  -0.824503  0  2.076846  0
O  O51  1  0.75555148  0.48260167  0.36113708  1  0  -0.898231  0  1.854551  0  0  -0.839029  0  2.05216  0  0  -0.858252  0  2.017645  0  0  -0.647412  -0.825257  0  2.076314  0
O  O52  1  0.47113696  0.14015460  0.94912598  1  0  -0.550305  0  1.87741  0  0  -0.515372  0  2.102937  0  0  -0.534321  0  2.09786  0  0  -0.237758  -0.501992  0  2.106253  0
O  O53  1  0.56075738  0.85977388  0.05087829  1  0  -0.550268  0  1.876645  0  0  -0.514743  0  2.102386  0  0  -0.528455  0  2.103845  0  0  -0.237704  -0.501368  0  2.105743  0
O  O54  1  0.17039429  0.64018535  0.55083142  1  0  -0.549099  0  1.875911  0  0  -0.514888  0  2.102  0  0  -0.528298  0  2.103633  0  0  -0.238088  -0.501504  0  2.105317  0
O  O55  1  0.36150274  0.35977190  0.44909892  1  0  -0.550297  0  1.877421  0  0  -0.509928  0  2.109658  0  0  -0.528735  0  2.10483  0  0  -0.236697  -0.501443  0  2.106854  0
O  O56  1  0.50705226  0.13269590  0.78303051  1  0  -0.55821  0  1.805703  0  0  -0.527337  0  2.030944  0  0  -0.547833  0  2.025861  0  0  -0.246507  -0.512792  0  2.034173  0
O  O57  1  0.42236473  0.86740573  0.21691998  1  0  -0.558154  0  1.804397  0  0  -0.527423  0  2.030252  0  0  -0.542803  0  2.031605  0  0  -0.24676  -0.512854  0  2.033482  0
O  O58  1  0.03978841  0.63263103  0.71688741  1  0  -0.558603  0  1.805762  0  0  -0.527348  0  2.030249  0  0  -0.542497  0  2.031892  0  0  -0.246963  -0.512773  0  2.033411  0
O  O59  1  0.38924203  0.36731846  0.28305334  1  0  -0.558761  0  1.806526  0  0  -0.522297  0  2.037959  0  0  -0.542676  0  2.033189  0  0  -0.246627  -0.512462  0  2.035169  0
O  O60  1  0.43551185  0.82268701  0.79049438  1  0  -0.867164  0  1.923419  0  0  -0.803582  0  2.135706  0  0  -0.824008  0  2.104679  0  0  -0.607528  -0.789006  0  2.156895  0
O  O61  1  0.04865896  0.17732880  0.20950591  1  0  -0.867601  0  1.923239  0  0  -0.803743  0  2.135618  0  0  -0.824243  0  2.104671  0  0  -0.607091  -0.789095  0  2.156864  0
O  O62  1  0.97598980  0.32263804  0.70954192  1  0  -0.866863  0  1.923305  0  0  -0.803288  0  2.13542  0  0  -0.823712  0  2.104872  0  0  -0.607479  -0.788715  0  2.156609  0
O  O63  1  0.00812350  0.67726710  0.29051271  1  0  -0.867501  0  1.92334  0  0  -0.803537  0  2.135849  0  0  -0.824054  0  2.10514  0  0  -0.606875  -0.78891  0  2.157054  0
