# generated using pymatgen
data_Cu2Mo4H12C16N4O13
_symmetry_space_group_name_H-M   'P 1'
_cell_length_a   8.29976179
_cell_length_b   11.80916364
_cell_length_c   12.52769351
_cell_angle_alpha   114.84012315
_cell_angle_beta   96.35719212
_cell_angle_gamma   98.87369714
_symmetry_Int_Tables_number   1
_chemical_formula_structural   Cu2Mo4H12C16N4O13
_chemical_formula_sum   'Cu4 Mo8 H24 C32 N8 O26'
_cell_volume   1079.64120149
_cell_formula_units_Z   2
loop_
 _symmetry_equiv_pos_site_id
 _symmetry_equiv_pos_as_xyz
  1  'x, y, z'
loop_
 _atom_site_type_symbol
 _atom_site_label
 _atom_site_symmetry_multiplicity
 _atom_site_fract_x
 _atom_site_fract_y
 _atom_site_fract_z
 _atom_site_occupancy
 _atom_site_hle17_bader_spin_density
 _atom_site_hle17_ddec_charge
 _atom_site_hle17_ddec_spin_density
 _atom_site_hle17_ddec_sum_bond_order
 _atom_site_hle17_magmom
 _atom_site_hse06_10hf_bader_charge
 _atom_site_hse06_10hf_bader_spin_density
 _atom_site_hse06_10hf_ddec_charge
 _atom_site_hse06_10hf_ddec_spin_density
 _atom_site_hse06_10hf_ddec_sum_bond_order
 _atom_site_hse06_10hf_magmom
 _atom_site_hse06_bader_spin_density
 _atom_site_hse06_ddec_charge
 _atom_site_hse06_ddec_spin_density
 _atom_site_hse06_ddec_sum_bond_order
 _atom_site_hse06_magmom
 _atom_site_pbe_bader_spin_density
 _atom_site_pbe_cm5_charge
 _atom_site_pbe_ddec_charge
 _atom_site_pbe_ddec_spin_density
 _atom_site_pbe_ddec_sum_bond_order
 _atom_site_pbe_magmom
Cu  Cu0  1  0.19528127  0.48898977  0.09450664  1  0  0.618673  0  1.641929  0  0.765486  0  0.501307  0  2.11413  0  0  0.49626  0  2.066793  0  0  0.560971  0.5086  0  2.142807  0
Cu  Cu1  1  0.80471737  0.51100740  0.90549147  1  0  0.618708  0  1.641986  0  0.765453  0  0.501282  0  2.114194  0  0  0.496261  0  2.066875  0  0  0.561036  0.5086  0  2.143064  0
Cu  Cu2  1  0.24904738  0.08360188  0.53133626  1  0  0.607877  0  1.536968  0  0.73207  0  0.485492  0  1.980401  0  0  0.485298  0  1.935491  0  0  0.549259  0.490085  0  2.008145  0
Cu  Cu3  1  0.75095314  0.91639336  0.46866441  1  0  0.607905  0  1.536941  0  0.732095  0  0.485555  0  1.980388  0  0  0.48537  0  1.935553  0  0  0.549264  0.490117  0  2.008067  0
Mo  Mo4  1  0.18091697  0.36767378  0.47760079  1  0  2.27761  0  3.993601  0  2.720606  0  2.293186  0  4.496833  0  0  2.39706  0  4.463465  0  0  1.54448  2.2223  0  4.519447  0
Mo  Mo5  1  0.81908345  0.63232914  0.52240371  1  0  2.277551  0  3.993575  0  2.720379  0  2.293118  0  4.496823  0  0  2.396991  0  4.463461  0  0  1.544415  2.222203  0  4.519446  0
Mo  Mo6  1  0.57370225  0.36179166  0.48540519  1  0  2.218223  0  4.077252  0  2.674896  0  2.220508  0  4.596623  0  0  2.323726  0  4.55985  0  0  1.510187  2.14474  0  4.629049  0
Mo  Mo7  1  0.42629668  0.63821032  0.51459884  1  0  2.218197  0  4.077129  0  2.67492  0  2.220488  0  4.596503  0  0  2.323708  0  4.559721  0  0  1.510187  2.144716  0  4.628926  0
Mo  Mo8  1  0.43257794  0.32085330  0.22209018  1  0  2.206976  0  4.002547  0  2.652673  0  2.198008  0  4.545001  0  0  2.298384  0  4.508339  0  0  1.515467  2.125017  0  4.576265  0
Mo  Mo9  1  0.56741525  0.67914200  0.77790362  1  0  2.206967  0  4.002395  0  2.652534  0  2.198011  0  4.544829  0  0  2.298385  0  4.508181  0  0  1.515436  2.125011  0  4.576117  0
Mo  Mo10  1  0.16142178  0.67186857  0.76504471  1  0  2.243452  0  3.949745  0  2.696394  0  2.246354  0  4.467367  0  0  2.344653  0  4.433043  0  0  1.539038  2.177121  0  4.49436  0
Mo  Mo11  1  0.83858091  0.32813816  0.23495267  1  0  2.243404  0  3.949663  0  2.696243  0  2.246333  0  4.467271  0  0  2.344626  0  4.432951  0  0  1.539064  2.177092  0  4.494262  0
H  H12  1  0.01331072  0.25844205  0.03135411  1  0  0.106568  0  1.025885  0  0.147563  0  0.112876  0  1.096326  0  0  0.11699  0  1.093029  0  0  0.103698  0.109851  0  1.09887  0
H  H13  1  0.98668808  0.74156376  0.96864504  1  0  0.106525  0  1.025975  0  0.147373  0  0.112857  0  1.096398  0  0  0.116973  0  1.0931  0  0  0.103707  0.109866  0  1.098911  0
H  H14  1  0.87507482  0.02802292  0.94472817  1  0  0.118741  0  0.94564  0  0.14489  0  0.128332  0  1.003817  0  0  0.131422  0  1.002567  0  0  0.108958  0.126115  0  1.00477  0
H  H15  1  0.12491492  0.97198489  0.05527435  1  0  0.118905  0  0.94555  0  0.144686  0  0.128468  0  1.00373  0  0  0.131554  0  1.002481  0  0  0.109041  0.12625  0  1.004701  0
H  H16  1  0.92753279  0.87431610  0.75088634  1  0  0.101549  0  0.971236  0  0.122324  0  0.106633  0  1.038022  0  0  0.109471  0  1.036231  0  0  0.104688  0.104389  0  1.039615  0
H  H17  1  0.07245302  0.12569079  0.24911395  1  0  0.101579  0  0.971148  0  0.121932  0  0.106674  0  1.03791  0  0  0.109513  0  1.036115  0  0  0.104691  0.104433  0  1.039503  0
H  H18  1  0.11485887  0.94938867  0.64083844  1  0  0.091554  0  0.982862  0  0.076312  0  0.100454  0  1.054303  0  0  0.10452  0  1.050149  0  0  0.099608  0.097363  0  1.057556  0
H  H19  1  0.88513651  0.05060950  0.35916702  1  0  0.091514  0  0.982784  0  0.076284  0  0.100423  0  1.054248  0  0  0.104489  0  1.050097  0  0  0.099584  0.097335  0  1.057499  0
H  H20  1  0.40807865  0.34892883  0.70676183  1  0  0.110401  0  0.943602  0  0.143839  0  0.115258  0  1.009438  0  0  0.118574  0  1.005905  0  0  0.123366  0.112638  0  1.012367  0
H  H21  1  0.59192856  0.65106060  0.29323458  1  0  0.110313  0  0.943637  0  0.143721  0  0.11524  0  1.009381  0  0  0.118556  0  1.005846  0  0  0.123369  0.112619  0  1.012309  0
H  H22  1  0.36836934  0.49977031  0.90294681  1  0  0.098819  0  0.975121  0  0.135346  0  0.109905  0  1.034537  0  0  0.113678  0  1.030708  0  0  0.11794  0.107061  0  1.037588  0
H  H23  1  0.63164686  0.50022480  0.09705248  1  0  0.098865  0  0.97511  0  0.135222  0  0.109976  0  1.034496  0  0  0.113748  0  1.030666  0  0  0.11799  0.107132  0  1.037556  0
H  H24  1  0.43511560  0.09163099  0.36984580  1  0  0.106809  0  1.017205  0  0.157095  0  0.111759  0  1.087808  0  0  0.115801  0  1.083941  0  0  0.099284  0.10865  0  1.090984  0
H  H25  1  0.56488968  0.90836805  0.63015510  1  0  0.106786  0  1.017319  0  0.157051  0  0.111766  0  1.087887  0  0  0.115805  0  1.084022  0  0  0.099289  0.108648  0  1.091054  0
H  H26  1  0.56683388  0.05737976  0.19253146  1  0  0.110363  0  0.957782  0  0.136689  0  0.117136  0  1.020798  0  0  0.120305  0  1.019078  0  0  0.106205  0.114751  0  1.022296  0
H  H27  1  0.43316449  0.94261646  0.80746785  1  0  0.110378  0  0.957726  0  0.136674  0  0.117121  0  1.020771  0  0  0.12029  0  1.019052  0  0  0.106172  0.114735  0  1.022267  0
H  H28  1  0.51078939  0.84176146  0.02151455  1  0  0.105716  0  0.990206  0  0.128881  0  0.113491  0  1.052752  0  0  0.116652  0  1.050861  0  0  0.104577  0.111195  0  1.054106  0
H  H29  1  0.48920926  0.15823572  0.97848515  1  0  0.105802  0  0.990157  0  0.128851  0  0.113551  0  1.052739  0  0  0.116713  0  1.050846  0  0  0.104599  0.111261  0  1.054097  0
H  H30  1  0.32905694  0.65679487  0.02899608  1  0  0.089057  0  1.000401  0  0.079663  0  0.09495  0  1.078492  0  0  0.100097  0  1.073149  0  0  0.096914  0.091175  0  1.08238  0
H  H31  1  0.67094356  0.34320037  0.97100298  1  0  0.089045  0  1.000478  0  0.079744  0  0.094955  0  1.07855  0  0  0.100104  0  1.07321  0  0  0.096918  0.091175  0  1.082459  0
H  H32  1  0.04167448  0.60817786  0.30771670  1  0  0.116014  0  0.982529  0  0.201495  0  0.123649  0  1.042808  0  0  0.126727  0  1.040543  0  0  0.121616  0.121459  0  1.044524  0
H  H33  1  0.95832600  0.39181738  0.69228077  1  0  0.116015  0  0.982532  0  0.201952  0  0.123658  0  1.042794  0  0  0.126733  0  1.040529  0  0  0.12162  0.12147  0  1.044525  0
H  H34  1  0.07803689  0.82505136  0.47069269  1  0  0.080056  0  0.989265  0  0.125497  0  0.088774  0  1.058249  0  0  0.092308  0  1.05328  0  0  0.114705  0.086122  0  1.062077  0
H  H35  1  0.92196361  0.17494388  0.52930717  1  0  0.080057  0  0.989218  0  0.125281  0  0.088703  0  1.058297  0  0  0.092239  0  1.053328  0  0  0.114711  0.086062  0  1.062124  0
C  C36  1  0.13794618  0.23557290  0.88438727  1  0  0.165217  0  3.722791  0  0.401829  0  0.165077  0  3.955772  0  0  0.166031  0  3.979989  0  0  0.109329  0.164239  0  3.939966  0
C  C37  1  0.86205389  0.76442906  0.11561204  1  0  0.165165  0  3.722914  0  0.401185  0  0.165035  0  3.955894  0  0  0.165987  0  3.980112  0  0  0.109272  0.164184  0  3.940102  0
C  C38  1  0.03329570  0.18990206  0.94575485  1  0  -0.128077  0  3.704927  0  -0.016021  0  -0.149581  0  3.953852  0  0  -0.152757  0  3.974053  0  0  -0.085925  -0.147519  0  3.9407  0
C  C39  1  0.96669772  0.81010188  0.05424639  1  0  -0.12803  0  3.704776  0  -0.015768  0  -0.149571  0  3.953713  0  0  -0.152746  0  3.97391  0  0  -0.085934  -0.147525  0  3.940536  0
C  C40  1  0.95775037  0.06202508  0.89760534  1  0  -0.021509  0  3.671769  0  -0.016886  0  -0.037719  0  3.919758  0  0  -0.040289  0  3.941175  0  0  -0.068755  -0.0361  0  3.905549  0
C  C41  1  0.04224413  0.93798653  0.10239661  1  0  -0.021692  0  3.671528  0  -0.016638  0  -0.037898  0  3.919569  0  0  -0.040464  0  3.940981  0  0  -0.068851  -0.036301  0  3.905389  0
C  C42  1  0.98683939  0.97492006  0.78716300  1  0  0.007539  0  3.677544  0  0.010561  0  -0.007933  0  3.926013  0  0  -0.006988  0  3.945628  0  0  -0.068803  -0.008614  0  3.913138  0
C  C43  1  0.01315410  0.02508004  0.21283831  1  0  0.0076  0  3.677727  0  0.010929  0  -0.007833  0  3.926096  0  0  -0.00689  0  3.945715  0  0  -0.068744  -0.008514  0  3.913236  0
C  C44  1  0.08923895  0.01631176  0.72521641  1  0  -0.151166  0  3.737958  0  -0.083945  0  -0.174105  0  3.993761  0  0  -0.179207  0  4.014066  0  0  -0.092141  -0.170932  0  3.980669  0
C  C45  1  0.91076416  0.98368826  0.27478153  1  0  -0.151178  0  3.738166  0  -0.083943  0  -0.174137  0  3.993975  0  0  -0.179244  0  4.014289  0  0  -0.092142  -0.17096  0  3.980881  0
C  C46  1  0.16498470  0.14694444  0.77042620  1  0  0.148922  0  3.774632  0  0.472174  0  0.151553  0  4.003515  0  0  0.152928  0  4.030031  0  0  0.106945  0.150531  0  3.986123  0
C  C47  1  0.83501731  0.85305176  0.22957414  1  0  0.148988  0  3.774632  0  0.472766  0  0.151585  0  4.003535  0  0  0.152958  0  4.030056  0  0  0.106958  0.150566  0  3.986159  0
C  C48  1  0.33195256  0.31312525  0.75623911  1  0  0.110021  0  3.620204  0  0.516597  0  0.079436  0  3.874183  0  0  0.085548  0  3.885534  0  0  0.054876  0.074989  0  3.86758  0
C  C49  1  0.66805724  0.68687279  0.24375930  1  0  0.110136  0  3.620361  0  0.516295  0  0.079545  0  3.874288  0  0  0.085658  0  3.885634  0  0  0.054897  0.075098  0  3.867717  0
C  C50  1  0.30899386  0.39920080  0.86901399  1  0  0.080962  0  3.645506  0  0.552121  0  0.047943  0  3.904694  0  0  0.053715  0  3.913334  0  0  0.047394  0.043645  0  3.899928  0
C  C51  1  0.69100997  0.60079346  0.13098411  1  0  0.080802  0  3.645476  0  0.552055  0  0.04767  0  3.904779  0  0  0.053441  0  3.913419  0  0  0.047262  0.043364  0  3.900068  0
C  C52  1  0.31259637  0.89468122  0.30178770  1  0  0.165999  0  3.745757  0  0.44516  0  0.16791  0  3.975157  0  0  0.170467  0  3.997566  0  0  0.110053  0.166024  0  3.960605  0
C  C53  1  0.68740042  0.10531789  0.69821025  1  0  0.165863  0  3.74591  0  0.445177  0  0.167744  0  3.97532  0  0  0.170298  0  3.997724  0  0  0.110017  0.165848  0  3.960789  0
C  C54  1  0.41492041  0.99724894  0.29507793  1  0  -0.140403  0  3.711349  0  -0.124274  0  -0.16414  0  3.968184  0  0  -0.167696  0  3.987031  0  0  -0.089289  -0.161945  0  3.955995  0
C  C55  1  0.58507768  0.00274633  0.70492258  1  0  -0.140327  0  3.711527  0  -0.12482  0  -0.16405  0  3.968247  0  0  -0.167602  0  3.987093  0  0  -0.089274  -0.161872  0  3.956135  0
C  C56  1  0.48701967  0.97760035  0.19656814  1  0  -0.011004  0  3.674303  0  0.035794  0  -0.024987  0  3.922675  0  0  -0.026309  0  3.943178  0  0  -0.069242  -0.024159  0  3.909056  0
C  C57  1  0.51298045  0.02239777  0.80342885  1  0  -0.010922  0  3.67441  0  0.036255  0  -0.024865  0  3.922765  0  0  -0.02619  0  3.943271  0  0  -0.069142  -0.024039  0  3.909138  0
C  C58  1  0.45647922  0.85441319  0.09971781  1  0  -0.013784  0  3.690392  0  -0.004327  0  -0.031006  0  3.936346  0  0  -0.031709  0  3.957468  0  0  -0.074022  -0.03045  0  3.922104  0
C  C59  1  0.54351887  0.14558207  0.90028189  1  0  -0.014021  0  3.690411  0  -0.004243  0  -0.031259  0  3.936406  0  0  -0.031962  0  3.957532  0  0  -0.074128  -0.030697  0  3.922167  0
C  C60  1  0.35801450  0.75202723  0.10427111  1  0  -0.156479  0  3.759764  0  -0.0573  0  -0.177395  0  4.016092  0  0  -0.182757  0  4.037866  0  0  -0.092473  -0.173783  0  4.001656  0
C  C61  1  0.64198472  0.24797187  0.89572780  1  0  -0.15637  0  3.759684  0  -0.057326  0  -0.177272  0  4.015973  0  0  -0.182649  0  4.037754  0  0  -0.092425  -0.173662  0  4.001563  0
C  C62  1  0.28594194  0.76851422  0.20495188  1  0  0.152593  0  3.770192  0  0.43275  0  0.154339  0  3.997913  0  0  0.155757  0  4.022525  0  0  0.107236  0.153202  0  3.981808  0
C  C63  1  0.71405335  0.23148394  0.79504559  1  0  0.152666  0  3.770226  0  0.432777  0  0.154378  0  3.997986  0  0  0.155816  0  4.022569  0  0  0.107248  0.15325  0  3.981906  0
C  C64  1  0.11769434  0.68870824  0.30268420  1  0  0.107841  0  3.602545  0  0.54911  0  0.073278  0  3.857636  0  0  0.077774  0  3.869588  0  0  0.049277  0.069639  0  3.85092  0
C  C65  1  0.88230551  0.31128893  0.69731399  1  0  0.107806  0  3.602548  0  0.548612  0  0.073215  0  3.857688  0  0  0.077732  0  3.869612  0  0  0.049275  0.069568  0  3.851023  0
C  C66  1  0.14110042  0.81273030  0.39631504  1  0  0.093908  0  3.661562  0  0.496233  0  0.055762  0  3.928325  0  0  0.063007  0  3.936478  0  0  0.045897  0.05034  0  3.924026  0
C  C67  1  0.85889946  0.18726687  0.60368554  1  0  0.093931  0  3.661656  0  0.496485  0  0.055812  0  3.928403  0  0  0.063041  0  3.936586  0  0  0.045801  0.050378  0  3.924145  0
N  N68  1  0.21054938  0.36439364  0.93260378  1  0  -0.309081  0  3.323517  0  -1.225539  0  -0.244621  0  3.630345  0  0  -0.247713  0  3.632341  0  0  -0.338273  -0.243394  0  3.629041  0
N  N69  1  0.78945494  0.63560637  0.06739344  1  0  -0.308987  0  3.323342  0  -1.224873  0  -0.24445  0  3.630095  0  0  -0.247547  0  3.632105  0  0  -0.338208  -0.243229  0  3.6289  0
N  N70  1  0.25908746  0.18883097  0.70465686  1  0  -0.314188  0  3.331373  0  -1.230242  0  -0.241998  0  3.618559  0  0  -0.249383  0  3.62558  0  0  -0.342711  -0.238005  0  3.61423  0
N  N71  1  0.74092002  0.81116326  0.29534388  1  0  -0.314226  0  3.331496  0  -1.230281  0  -0.242026  0  3.618713  0  0  -0.249414  0  3.625752  0  0  -0.342697  -0.238034  0  3.614366  0
N  N72  1  0.23663992  0.91626469  0.39908722  1  0  -0.309517  0  3.334725  0  -1.225652  0  -0.239086  0  3.637349  0  0  -0.244111  0  3.63894  0  0  -0.345639  -0.236578  0  3.636278  0
N  N73  1  0.76335780  0.08373346  0.60091201  1  0  -0.309516  0  3.334885  0  -1.225684  0  -0.239023  0  3.637461  0  0  -0.24406  0  3.639091  0  0  -0.345575  -0.236502  0  3.636358  0
N  N74  1  0.18938010  0.66428100  0.20759657  1  0  -0.297098  0  3.305025  0  -1.23005  0  -0.230589  0  3.605479  0  0  -0.233706  0  3.60713  0  0  -0.342236  -0.229147  0  3.604242  0
N  N75  1  0.81061642  0.33571715  0.79240258  1  0  -0.297135  0  3.304914  0  -1.229942  0  -0.230603  0  3.60538  0  0  -0.233736  0  3.607038  0  0  -0.342247  -0.22917  0  3.604257  0
O  O76  1  0.12246995  0.47098140  0.60753085  1  0  -0.772993  0  1.68524  0  -0.925608  0  -0.773721  0  1.970469  0  0  -0.807161  0  1.963663  0  0  -0.531936  -0.750833  0  1.975027  0
O  O77  1  0.87753401  0.52902149  0.39246590  1  0  -0.772998  0  1.685137  0  -0.925568  0  -0.773739  0  1.970381  0  0  -0.807183  0  1.963578  0  0  -0.531908  -0.750844  0  1.974934  0
O  O78  1  0.42239757  0.45852488  0.57081985  1  0  -1.036436  0  1.887454  0  -1.132189  0  -1.032735  0  2.186054  0  0  -1.077071  0  2.185129  0  0  -0.600825  -0.999711  0  2.185465  0
O  O79  1  0.57760252  0.54147708  0.42918026  1  0  -1.036387  0  1.887361  0  -1.13211  0  -1.032698  0  2.185979  0  0  -1.077032  0  2.185049  0  0  -0.600794  -0.999683  0  2.185399  0
O  O80  1  0.17522499  0.22633307  0.49322684  1  0  -0.772216  0  1.692889  0  -0.923652  0  -0.749043  0  2.010533  0  0  -0.774946  0  1.993398  0  0  -0.540104  -0.732287  0  2.02224  0
O  O81  1  0.82477211  0.77366700  0.50677311  1  0  -0.772195  0  1.692946  0  -0.92365  0  -0.749031  0  2.010596  0  0  -0.774936  0  1.993481  0  0  -0.540075  -0.732254  0  2.022258  0
O  O82  1  0.34622714  0.30850860  0.35574490  1  0  -1.013121  0  1.856592  0  -1.13677  0  -1.001399  0  2.156348  0  0  -1.045879  0  2.151757  0  0  -0.612561  -0.968492  0  2.158774  0
O  O83  1  0.65377084  0.69149434  0.64425704  1  0  -1.013071  0  1.856599  0  -1.13669  0  -1.001342  0  2.156335  0  0  -1.045813  0  2.15174  0  0  -0.612561  -0.968436  0  2.158761  0
O  O84  1  0.23551400  0.52961072  0.43185726  1  0  -0.777353  0  1.685889  0  -0.941798  0  -0.77691  0  1.974765  0  0  -0.811176  0  1.969775  0  0  -0.541425  -0.752403  0  1.978382  0
O  O85  1  0.76448430  0.47038934  0.56814197  1  0  -0.777366  0  1.685951  0  -0.941777  0  -0.776883  0  1.974769  0  0  -0.811149  0  1.969779  0  0  -0.541408  -0.752363  0  1.978381  0
O  O86  1  0.55374472  0.24361054  0.53228886  1  0  -0.708994  0  1.506732  0  -0.877632  0  -0.686427  0  1.763921  0  0  -0.71055  0  1.75207  0  0  -0.514309  -0.669039  0  1.77313  0
O  O87  1  0.44624755  0.75638957  0.46771158  1  0  -0.708979  0  1.506695  0  -0.877608  0  -0.686436  0  1.76389  0  0  -0.710564  0  1.75205  0  0  -0.514285  -0.669043  0  1.773083  0
O  O88  1  0.33159518  0.42843071  0.19572350  1  0  -0.745518  0  1.694897  0  -0.918324  0  -0.724693  0  2.025871  0  0  -0.750161  0  2.006332  0  0  -0.550881  -0.706882  0  2.039297  0
O  O89  1  0.66840410  0.57156839  0.80428020  1  0  -0.745576  0  1.694891  0  -0.918319  0  -0.724742  0  2.025841  0  0  -0.750211  0  2.006313  0  0  -0.550942  -0.706952  0  2.039356  0
O  O90  1  0.63594791  0.36675680  0.17747195  1  0  -0.899112  0  1.740264  0  -1.041813  0  -0.890268  0  2.036254  0  0  -0.93417  0  2.033145  0  0  -0.585987  -0.858389  0  2.03822  0
O  O91  1  0.36404682  0.63323946  0.82252632  1  0  -0.899099  0  1.740326  0  -1.041808  0  -0.890253  0  2.03632  0  0  -0.934157  0  2.03321  0  0  -0.585954  -0.858378  0  2.038286  0
O  O92  1  0.63427655  0.29088581  0.33333271  1  0  -0.98929  0  1.74605  0  -1.113872  0  -0.980024  0  2.039766  0  0  -1.021083  0  2.031964  0  0  -0.595905  -0.949013  0  2.044402  0
O  O93  1  0.36571754  0.70911237  0.66666548  1  0  -0.989332  0  1.746219  0  -1.113902  0  -0.980069  0  2.039964  0  0  -1.02112  0  2.032152  0  0  -0.595979  -0.949067  0  2.044602  0
O  O94  1  0.34039496  0.17358978  0.10783257  1  0  -0.663913  0  1.443824  0  -0.828998  0  -0.641964  0  1.67706  0  0  -0.667912  0  1.669042  0  0  -0.496124  -0.62304  0  1.683266  0
O  O95  1  0.65959641  0.82641130  0.89216978  1  0  -0.663896  0  1.443596  0  -0.828868  0  -0.64196  0  1.676816  0  0  -0.667914  0  1.668805  0  0  -0.496087  -0.623026  0  1.683014  0
O  O96  1  0.19752769  0.83007354  0.86414361  1  0  -0.642931  0  1.426499  0  -0.801509  0  -0.632566  0  1.659742  0  0  -0.658165  0  1.653968  0  0  -0.486444  -0.614983  0  1.664233  0
O  O97  1  0.80249435  0.16993304  0.13585504  1  0  -0.642866  0  1.42652  0  -0.801218  0  -0.632526  0  1.659777  0  0  -0.658123  0  1.653998  0  0  -0.486387  -0.614945  0  1.664266  0
O  O98  1  0.02980277  0.59639167  0.82488232  1  0  -0.696728  0  1.546634  0  -0.867565  0  -0.6809  0  1.821292  0  0  -0.70502  0  1.806334  0  0  -0.504785  -0.665063  0  1.832263  0
O  O99  1  0.97018972  0.40361324  0.17511763  1  0  -0.6967  0  1.546629  0  -0.867601  0  -0.680885  0  1.82131  0  0  -0.704994  0  1.806338  0  0  -0.504897  -0.665068  0  1.832312  0
O  O100  1  0.99309020  0.31764618  0.35988291  1  0  -0.870582  0  1.740908  0  -1.030221  0  -0.869586  0  2.038901  0  0  -0.91125  0  2.031064  0  0  -0.58115  -0.84045  0  2.043883  0
O  O101  1  0.00691433  0.68236246  0.64011935  1  0  -0.870569  0  1.740936  0  -1.030164  0  -0.869588  0  2.038979  0  0  -0.91127  0  2.031178  0  0  -0.581203  -0.840446  0  2.043955  0
