# generated using pymatgen
data_Zn3H32C30S2(N3O8)2
_symmetry_space_group_name_H-M   'P 1'
_cell_length_a   7.62520049
_cell_length_b   8.07488929
_cell_length_c   16.46152471
_cell_angle_alpha   92.92224246
_cell_angle_beta   101.69596919
_cell_angle_gamma   114.40965603
_symmetry_Int_Tables_number   1
_chemical_formula_structural   Zn3H32C30S2(N3O8)2
_chemical_formula_sum   'Zn3 H32 C30 S2 N6 O16'
_cell_volume   893.43604864
_cell_formula_units_Z   1
loop_
 _symmetry_equiv_pos_site_id
 _symmetry_equiv_pos_as_xyz
  1  'x, y, z'
loop_
 _atom_site_type_symbol
 _atom_site_label
 _atom_site_symmetry_multiplicity
 _atom_site_fract_x
 _atom_site_fract_y
 _atom_site_fract_z
 _atom_site_occupancy
 _atom_site_hle17_bader_spin_density
 _atom_site_hle17_ddec_charge
 _atom_site_hle17_ddec_spin_density
 _atom_site_hle17_ddec_sum_bond_order
 _atom_site_hle17_magmom
 _atom_site_hse06_10hf_bader_spin_density
 _atom_site_hse06_10hf_ddec_charge
 _atom_site_hse06_10hf_ddec_spin_density
 _atom_site_hse06_10hf_ddec_sum_bond_order
 _atom_site_hse06_10hf_magmom
 _atom_site_hse06_bader_spin_density
 _atom_site_hse06_ddec_charge
 _atom_site_hse06_ddec_spin_density
 _atom_site_hse06_ddec_sum_bond_order
 _atom_site_hse06_magmom
 _atom_site_pbe_bader_spin_density
 _atom_site_pbe_cm5_charge
 _atom_site_pbe_ddec_charge
 _atom_site_pbe_ddec_spin_density
 _atom_site_pbe_ddec_sum_bond_order
 _atom_site_pbe_magmom
Zn  Zn0  1  0.50000005  0.00000070  0.49999964  1  0  1.207616  0  1.68905  0  0  1.045669  0  2.12699  0  0  1.093499  0  2.068278  0  0  0.652457  1.011752  0  2.167409  0
Zn  Zn1  1  0.28348880  0.21717663  0.39272163  1  0  1.162117  0  1.74836  0  0  0.990013  0  2.20707  0  0  1.035427  0  2.149175  0  0  0.669355  0.958001  0  2.246939  0
Zn  Zn2  1  0.71651354  0.78282514  0.60727730  1  0  1.162104  0  1.748405  0  0  0.989994  0  2.207132  0  0  1.035415  0  2.149235  0  0  0.669343  0.957978  0  2.246999  0
H  H3  1  0.21582573  0.24666949  0.78859193  1  0  0.106924  0  0.937795  0  0  0.11897  0  0.992319  0  0  0.122146  0  0.990826  0  0  0.108806  0.116548  0  0.993613  0
H  H4  1  0.78417270  0.75332954  0.21141022  1  0  0.106887  0  0.93777  0  0  0.118928  0  0.992299  0  0  0.12211  0  0.990796  0  0  0.108774  0.116505  0  0.993592  0
H  H5  1  0.24788923  0.33484452  0.94114273  1  0  0.104786  0  0.942055  0  0  0.116854  0  1.000902  0  0  0.11977  0  0.999676  0  0  0.107125  0.11475  0  1.001919  0
H  H6  1  0.75210856  0.66515313  0.05885933  1  0  0.104847  0  0.942065  0  0  0.116921  0  1.000884  0  0  0.119836  0  0.99966  0  0  0.107115  0.114814  0  1.001901  0
H  H7  1  0.28724954  0.86664425  0.89432183  1  0  0.104601  0  0.953099  0  0  0.110142  0  1.018767  0  0  0.113727  0  1.016906  0  0  0.104838  0.107505  0  1.020299  0
H  H8  1  0.71275091  0.13335340  0.10567926  1  0  0.104586  0  0.953123  0  0  0.110164  0  1.018761  0  0  0.113748  0  1.016901  0  0  0.104835  0.107525  0  1.02029  0
H  H9  1  0.25806205  0.78210189  0.74265550  1  0  0.104644  0  0.937786  0  0  0.11435  0  0.998781  0  0  0.11811  0  0.996406  0  0  0.10613  0.111604  0  1.000591  0
H  H10  1  0.74193573  0.21789575  0.25734595  1  0  0.104657  0  0.937759  0  0  0.114378  0  0.998738  0  0  0.118138  0  0.996361  0  0  0.106179  0.111629  0  1.000547  0
H  H11  1  0.39366835  0.63177545  0.16209748  1  0  0.095939  0  0.978128  0  0  0.101541  0  1.050181  0  0  0.103979  0  1.048282  0  0  0.10351  0.099769  0  1.051499  0
H  H12  1  0.60633863  0.36823046  0.83790441  1  0  0.095919  0  0.978184  0  0  0.101519  0  1.05024  0  0  0.103956  0  1.048346  0  0  0.103503  0.099748  0  1.051558  0
H  H13  1  0.42687986  0.71528232  0.31336835  1  0  0.124659  0  0.97003  0  0  0.13062  0  1.0368  0  0  0.135305  0  1.034538  0  0  0.103108  0.127215  0  1.038676  0
H  H14  1  0.57312707  0.28472634  0.68663360  1  0  0.124645  0  0.970002  0  0  0.130617  0  1.036748  0  0  0.135301  0  1.034491  0  0  0.1031  0.127213  0  1.038625  0
H  H15  1  0.19018181  0.05998573  0.02417508  1  0  0.096861  0  0.95334  0  0  0.103815  0  1.02117  0  0  0.107048  0  1.018472  0  0  0.106735  0.101442  0  1.023166  0
H  H16  1  0.80981598  0.94000916  0.97582326  1  0  0.096858  0  0.953412  0  0  0.103823  0  1.021221  0  0  0.107058  0  1.018517  0  0  0.10673  0.101442  0  1.023224  0
H  H17  1  0.13750874  0.32781047  0.08038292  1  0  0.10803  0  0.965582  0  0  0.107858  0  1.042925  0  0  0.11187  0  1.040127  0  0  0.104394  0.104895  0  1.04517  0
H  H18  1  0.86249363  0.67218855  0.91961472  1  0  0.107997  0  0.965548  0  0  0.107785  0  1.042946  0  0  0.111796  0  1.040151  0  0  0.104372  0.104823  0  1.045189  0
H  H19  1  0.17464124  0.39100785  0.23551588  1  0  0.078513  0  0.947738  0  0  0.087624  0  1.012425  0  0  0.08982  0  1.011222  0  0  0.115818  0.086025  0  1.013287  0
H  H20  1  0.82535705  0.60899391  0.76448086  1  0  0.078495  0  0.94778  0  0  0.087606  0  1.012469  0  0  0.089801  0  1.011266  0  0  0.115804  0.086009  0  1.013334  0
H  H21  1  0.91625822  0.94271258  0.37456395  1  0  0.434647  0  0.863087  0  0  0.403739  0  0.925121  0  0  0.414256  0  0.909759  0  0  0.295284  0.396347  0  0.935904  0
H  H22  1  0.08374547  0.05728920  0.62543632  1  0  0.434642  0  0.863102  0  0  0.403743  0  0.925122  0  0  0.414255  0  0.909767  0  0  0.295273  0.396351  0  0.935905  0
H  H23  1  0.91026665  0.11886008  0.42022917  1  0  0.430536  0  0.871273  0  0  0.400304  0  0.931964  0  0  0.411481  0  0.915733  0  0  0.288215  0.39238  0  0.943468  0
H  H24  1  0.08973507  0.88114031  0.57977088  1  0  0.430555  0  0.87126  0  0  0.400325  0  0.931944  0  0  0.411503  0  0.915713  0  0  0.288226  0.392403  0  0.943447  0
H  H25  1  0.73520876  0.26538458  0.43527274  1  0  0.428339  0  0.877075  0  0  0.395903  0  0.942872  0  0  0.406134  0  0.928178  0  0  0.298972  0.388722  0  0.953167  0
H  H26  1  0.26479026  0.73461581  0.56472646  1  0  0.428333  0  0.877088  0  0  0.395893  0  0.942885  0  0  0.406125  0  0.928189  0  0  0.298972  0.38871  0  0.953186  0
H  H27  1  0.86573001  0.26348712  0.52377014  1  0  0.432505  0  0.869742  0  0  0.399011  0  0.936525  0  0  0.40961  0  0.921134  0  0  0.299286  0.391531  0  0.947373  0
H  H28  1  0.13427036  0.73651327  0.47622979  1  0  0.432531  0  0.869709  0  0  0.39906  0  0.936459  0  0  0.409661  0  0.921066  0  0  0.299294  0.391579  0  0.947309  0
H  H29  1  0.39804561  0.58664851  0.44368584  1  0  0.445139  0  0.85734  0  0  0.410228  0  0.926204  0  0  0.4225  0  0.908718  0  0  0.282707  0.401564  0  0.938533  0
H  H30  1  0.60195476  0.41335188  0.55631348  1  0  0.44514  0  0.857345  0  0  0.410223  0  0.926217  0  0  0.422497  0  0.908729  0  0  0.282701  0.401559  0  0.938547  0
H  H31  1  0.16548698  0.48839643  0.39548096  1  0  0.433624  0  0.863071  0  0  0.405185  0  0.921248  0  0  0.415019  0  0.906938  0  0  0.297314  0.398232  0  0.931356  0
H  H32  1  0.83451209  0.51160121  0.60451757  1  0  0.433653  0  0.863027  0  0  0.405191  0  0.921232  0  0  0.415025  0  0.906922  0  0  0.297332  0.398239  0  0.931338  0
H  H33  1  0.34747446  0.21465444  0.54913834  1  0  0.403073  0  0.902114  0  0  0.375587  0  0.961397  0  0  0.384518  0  0.948344  0  0  0.283577  0.369211  0  0.970707  0
H  H34  1  0.65252322  0.78534595  0.45086074  1  0  0.403078  0  0.902116  0  0  0.375587  0  0.961405  0  0  0.384521  0  0.948346  0  0  0.28357  0.369211  0  0.970714  0
C  C35  1  0.23489659  0.50920858  0.75741759  1  0  -0.137402  0  3.757369  0  0  -0.112355  0  4.012094  0  0  -0.119626  0  4.034175  0  0  -0.024687  -0.107662  0  3.997224  0
C  C36  1  0.76510189  0.49078769  0.24258389  1  0  -0.13754  0  3.757395  0  0  -0.112472  0  4.01209  0  0  -0.119757  0  4.034196  0  0  -0.024719  -0.107774  0  3.997214  0
C  C37  1  0.23053624  0.38148836  0.81215468  1  0  -0.05627  0  3.764857  0  0  -0.082168  0  4.017616  0  0  -0.08099  0  4.037802  0  0  -0.084851  -0.082659  0  4.003946  0
C  C38  1  0.76946353  0.61851067  0.18784759  1  0  -0.056108  0  3.764647  0  0  -0.082004  0  4.017386  0  0  -0.080824  0  4.037572  0  0  -0.084777  -0.082494  0  4.003709  0
C  C39  1  0.24753467  0.43013236  0.89663850  1  0  -0.114925  0  3.694998  0  0  -0.137344  0  3.948306  0  0  -0.141936  0  3.969315  0  0  -0.07968  -0.134365  0  3.934165  0
C  C40  1  0.75246310  0.56986529  0.10336234  1  0  -0.115134  0  3.694922  0  0  -0.137552  0  3.94824  0  0  -0.142146  0  3.969249  0  0  -0.079707  -0.134572  0  3.934099  0
C  C41  1  0.26532306  0.60409104  0.92653833  1  0  0.176633  0  3.812303  0  0  0.181821  0  4.05973  0  0  0.184936  0  4.08333  0  0  0.090691  0.179704  0  4.043805  0
C  C42  1  0.73467872  0.39590661  0.07346226  1  0  0.176809  0  3.812271  0  0  0.181998  0  4.059689  0  0  0.185112  0  4.083287  0  0  0.09079  0.179877  0  4.043768  0
C  C43  1  0.26923401  0.73102536  0.87031492  1  0  -0.128905  0  3.715132  0  0  -0.146351  0  3.96222  0  0  -0.151445  0  3.984284  0  0  -0.084128  -0.143026  0  3.947436  0
C  C44  1  0.73076581  0.26897092  0.12968668  1  0  -0.129019  0  3.715078  0  0  -0.14651  0  3.962193  0  0  -0.151606  0  3.984258  0  0  -0.084211  -0.143183  0  3.947405  0
C  C45  1  0.25408565  0.68394084  0.78617392  1  0  -0.054822  0  3.75775  0  0  -0.079412  0  4.008742  0  0  -0.078246  0  4.028088  0  0  -0.084766  -0.079956  0  3.995598  0
C  C46  1  0.74591086  0.31605405  0.21382794  1  0  -0.054699  0  3.757607  0  0  -0.079306  0  4.008593  0  0  -0.078136  0  4.027943  0  0  -0.084772  -0.079849  0  3.995446  0
C  C47  1  0.29355985  0.83173867  0.12066857  1  0  0.083278  0  3.838589  0  0  0.080154  0  4.09646  0  0  0.071243  0  4.125635  0  0  0.073618  0.08576  0  4.076839  0
C  C48  1  0.70643989  0.16826035  0.87933187  1  0  0.083309  0  3.838609  0  0  0.080126  0  4.096545  0  0  0.071218  0  4.125718  0  0  0.073624  0.085732  0  4.076926  0
C  C49  1  0.35776980  0.74186202  0.18266800  1  0  -0.081643  0  3.741772  0  0  -0.103089  0  3.99271  0  0  -0.098567  0  4.014375  0  0  -0.078449  -0.105697  0  3.977868  0
C  C50  1  0.64223520  0.25814251  0.81733367  1  0  -0.081606  0  3.741887  0  0  -0.103022  0  3.992818  0  0  -0.098503  0  4.014483  0  0  -0.078416  -0.10563  0  3.97798  0
C  C51  1  0.37754057  0.78901609  0.26745570  1  0  -0.191488  0  3.713624  0  0  -0.214225  0  3.974299  0  0  -0.226964  0  3.995634  0  0  -0.108156  -0.205814  0  3.96002  0
C  C52  1  0.62246373  0.21098981  0.73254595  1  0  -0.191508  0  3.713733  0  0  -0.214269  0  3.974377  0  0  -0.227012  0  3.995716  0  0  -0.108173  -0.205861  0  3.960104  0
C  C53  1  0.33330499  0.93173405  0.29563157  1  0  0.339684  0  3.839281  0  0  0.321706  0  4.098969  0  0  0.340241  0  4.112775  0  0  0.101601  0.309034  0  4.089434  0
C  C54  1  0.66669265  0.06826908  0.70436818  1  0  0.339646  0  3.839278  0  0  0.321735  0  4.098839  0  0  0.340273  0  4.112643  0  0  0.101615  0.309062  0  4.089308  0
C  C55  1  0.27485850  0.03173502  0.23313445  1  0  0.077185  0  3.757398  0  0  0.073607  0  3.992222  0  0  0.072298  0  4.015986  0  0  0.097411  0.074329  0  3.97635  0
C  C56  1  0.72513649  0.96826536  0.76686377  1  0  0.077267  0  3.757363  0  0  0.073749  0  3.992045  0  0  0.072445  0  4.015809  0  0  0.097485  0.074464  0  3.976172  0
C  C57  1  0.25541573  0.98358483  0.14646048  1  0  -0.014793  0  3.778332  0  0  -0.003259  0  4.008536  0  0  -0.004414  0  4.036607  0  0  0.001848  -0.002452  0  3.989647  0
C  C58  1  0.74458267  0.01641419  0.85353984  1  0  -0.014802  0  3.778324  0  0  -0.003283  0  4.008537  0  0  -0.004439  0  4.036607  0  0  0.001833  -0.002476  0  3.989649  0
C  C59  1  0.20321053  0.09285764  0.09076802  1  0  -0.041158  0  3.693583  0  0  -0.067327  0  3.943805  0  0  -0.066777  0  3.963349  0  0  -0.064459  -0.067527  0  3.930514  0
C  C60  1  0.79678587  0.90713999  0.90923087  1  0  -0.041194  0  3.693693  0  0  -0.067372  0  3.9439  0  0  -0.06682  0  3.963441  0  0  -0.064467  -0.067563  0  3.930608  0
C  C61  1  0.17361274  0.23900425  0.12162147  1  0  -0.118862  0  3.728958  0  0  -0.130455  0  3.987149  0  0  -0.13665  0  4.008097  0  0  -0.083976  -0.126392  0  3.973123  0
C  C62  1  0.82638563  0.76099477  0.87837703  1  0  -0.118744  0  3.728729  0  0  -0.1303  0  3.986932  0  0  -0.136492  0  4.007877  0  0  -0.083924  -0.126236  0  3.972905  0
C  C63  1  0.19559351  0.27629336  0.20859910  1  0  0.144876  0  3.690533  0  0  0.112243  0  3.941427  0  0  0.119545  0  3.958407  0  0  0.053559  0.107515  0  3.929745  0
C  C64  1  0.80440344  0.72370840  0.79139752  1  0  0.144852  0  3.690476  0  0  0.112198  0  3.941378  0  0  0.119504  0  3.958361  0  0  0.053527  0.107458  0  3.929698  0
S  S65  1  0.20690391  0.45023867  0.64921244  1  0  1.338535  0  5.574245  0  0  1.225189  0  6.099464  0  0  1.273123  0  6.074949  0  0  0.536019  1.192315  0  6.115307  0
S  S66  1  0.79309521  0.54975898  0.35078913  1  0  1.338646  0  5.574239  0  0  1.225298  0  6.099436  0  0  1.273249  0  6.074917  0  0  0.536081  1.192423  0  6.115281  0
N  N67  1  0.24444516  0.17586649  0.26211463  1  0  -0.351095  0  3.32287  0  0  -0.278844  0  3.591932  0  0  -0.294745  0  3.607331  0  0  -0.324463  -0.267945  0  3.581366  0
N  N68  1  0.75555179  0.82413527  0.73788199  1  0  -0.351151  0  3.322949  0  0  -0.278886  0  3.591953  0  0  -0.294803  0  3.607368  0  0  -0.324471  -0.267965  0  3.581368  0
N  N69  1  0.26743325  0.78666386  0.03555091  1  0  -0.154442  0  3.08155  0  0  -0.129253  0  3.36911  0  0  -0.123489  0  3.377358  0  0  -0.160992  -0.132433  0  3.363117  0
N  N70  1  0.73256650  0.21333516  0.96445015  1  0  -0.154466  0  3.081473  0  0  -0.129267  0  3.369059  0  0  -0.123501  0  3.377299  0  0  -0.161001  -0.132447  0  3.363063  0
N  N71  1  0.28283334  0.63993918  0.01294485  1  0  -0.205427  0  3.002306  0  0  -0.182336  0  3.289145  0  0  -0.185994  0  3.297294  0  0  -0.175959  -0.179602  0  3.283375  0
N  N72  1  0.71716577  0.36005847  0.98705672  1  0  -0.20544  0  3.002356  0  0  -0.182341  0  3.28919  0  0  -0.185995  0  3.297333  0  0  -0.175967  -0.179603  0  3.283418  0
O  O73  1  0.34301608  0.98028863  0.37358081  1  0  -0.639258  0  2.174462  0  0  -0.55719  0  2.450017  0  0  -0.588744  0  2.440917  0  0  -0.320667  -0.534913  0  2.455345  0
O  O74  1  0.65698160  0.01971176  0.62641827  1  0  -0.639233  0  2.174381  0  0  -0.557256  0  2.449984  0  0  -0.588801  0  2.440861  0  0  -0.3207  -0.534977  0  2.455313  0
O  O75  1  0.43223104  0.22258519  0.51067190  1  0  -0.974954  0  1.879992  0  0  -0.87774  0  2.133849  0  0  -0.910027  0  2.101027  0  0  -0.570239  -0.854783  0  2.156174  0
O  O76  1  0.56776799  0.77741520  0.48932730  1  0  -0.974968  0  1.88  0  0  -0.877764  0  2.133889  0  0  -0.910052  0  2.101067  0  0  -0.570241  -0.854806  0  2.156213  0
O  O77  1  0.24272526  0.28598281  0.63867328  1  0  -0.671733  0  2.022732  0  0  -0.603056  0  2.261777  0  0  -0.624811  0  2.246695  0  0  -0.319755  -0.587854  0  2.271749  0
O  O78  1  0.75727249  0.71401483  0.36132634  1  0  -0.671744  0  2.022737  0  0  -0.603031  0  2.261763  0  0  -0.624822  0  2.246697  0  0  -0.31975  -0.587838  0  2.27175  0
O  O79  1  0.35023217  0.61067061  0.62180029  1  0  -0.675707  0  2.056001  0  0  -0.613127  0  2.32022  0  0  -0.635256  0  2.305056  0  0  -0.321643  -0.59776  0  2.330366  0
O  O80  1  0.64976357  0.38932841  0.37820101  1  0  -0.675776  0  2.056045  0  0  -0.613212  0  2.320271  0  0  -0.635328  0  2.305093  0  0  -0.321667  -0.597844  0  2.330415  0
O  O81  1  0.99977818  0.41321816  0.60832436  1  0  -0.690343  0  2.0441  0  0  -0.62446  0  2.288214  0  0  -0.646069  0  2.272282  0  0  -0.331412  -0.609215  0  2.298694  0
O  O82  1  0.00022093  0.58677949  0.39167660  1  0  -0.690361  0  2.044086  0  0  -0.624507  0  2.288216  0  0  -0.646116  0  2.272277  0  0  -0.331449  -0.609263  0  2.298698  0
O  O83  1  0.98187599  0.07877783  0.38462004  1  0  -0.859223  0  1.879115  0  0  -0.795991  0  2.087892  0  0  -0.816807  0  2.050819  0  0  -0.5918  -0.781321  0  2.113589  0
O  O84  1  0.01812636  0.92122394  0.61537950  1  0  -0.859232  0  1.879093  0  0  -0.795999  0  2.08786  0  0  -0.816819  0  2.050795  0  0  -0.591795  -0.781329  0  2.113556  0
O  O85  1  0.77550951  0.18271303  0.47011132  1  0  -0.830426  0  1.940148  0  0  -0.756089  0  2.130698  0  0  -0.779708  0  2.097919  0  0  -0.556763  -0.739433  0  2.153376  0
O  O86  1  0.22449021  0.81728599  0.52988791  1  0  -0.830441  0  1.940168  0  0  -0.756123  0  2.130717  0  0  -0.779745  0  2.097937  0  0  -0.55677  -0.739467  0  2.153395  0
O  O87  1  0.28742361  0.46991343  0.40625643  1  0  -0.866062  0  1.894246  0  0  -0.795215  0  2.117355  0  0  -0.817574  0  2.079827  0  0  -0.589311  -0.77945  0  2.143415  0
O  O88  1  0.71257675  0.53008696  0.59374290  1  0  -0.866095  0  1.894209  0  0  -0.795234  0  2.117382  0  0  -0.817594  0  2.079853  0  0  -0.589323  -0.779469  0  2.143443  0
