# generated using pymatgen
data_CuH22C30N8(ClO)4
_symmetry_space_group_name_H-M   'P 1'
_cell_length_a   7.68227333
_cell_length_b   7.96752637
_cell_length_c   12.95038839
_cell_angle_alpha   76.70342786
_cell_angle_beta   90.59498785
_cell_angle_gamma   74.14297324
_symmetry_Int_Tables_number   1
_chemical_formula_structural   CuH22C30N8(ClO)4
_chemical_formula_sum   'Cu1 H22 C30 N8 Cl4 O4'
_cell_volume   739.79793977
_cell_formula_units_Z   1
loop_
 _symmetry_equiv_pos_site_id
 _symmetry_equiv_pos_as_xyz
  1  'x, y, z'
loop_
 _atom_site_type_symbol
 _atom_site_label
 _atom_site_symmetry_multiplicity
 _atom_site_fract_x
 _atom_site_fract_y
 _atom_site_fract_z
 _atom_site_occupancy
 _atom_site_hle17_ddec_charge
 _atom_site_hle17_ddec_spin_density
 _atom_site_hle17_ddec_sum_bond_order
 _atom_site_hle17_magmom
 _atom_site_hse06_10hf_ddec_charge
 _atom_site_hse06_10hf_ddec_spin_density
 _atom_site_hse06_10hf_ddec_sum_bond_order
 _atom_site_hse06_10hf_magmom
 _atom_site_hse06_ddec_charge
 _atom_site_hse06_ddec_spin_density
 _atom_site_hse06_ddec_sum_bond_order
 _atom_site_hse06_magmom
 _atom_site_pbe_cm5_charge
 _atom_site_pbe_ddec_charge
 _atom_site_pbe_ddec_spin_density
 _atom_site_pbe_ddec_sum_bond_order
 _atom_site_pbe_magmom
Cu  Cu0  1  0.49999785  0.49999916  0.49999725  1  0.796779  -0.612678  1.893697  -0.429  0.782376  -0.725325  2.283809  -0.556  0.875775  -0.826988  2.213644  -0.674  0.754799  0.73708  -0.650435  2.327215  -0.478
H  H1  1  0.67468496  0.15436868  0.77036789  1  0.068702  -0.000107  0.988291  0.0  0.084162  -0.000148  1.050715  0.0  0.084316  -8.9e-05  1.052606  0.0  0.104254  0.084049  -0.000209  1.049365  0.0
H  H2  1  0.32532738  0.84564344  0.22962415  1  0.068787  -0.000108  0.98826  0.0  0.084224  -0.000149  1.050706  0.0  0.084376  -8.9e-05  1.052601  0.0  0.104289  0.084107  -0.000209  1.049356  0.0
H  H3  1  0.88104751  0.98138419  0.81777283  1  0.069404  -2.6e-05  0.944104  0.0  0.08205  -2e-06  1.013127  0.0  0.082957  -1e-06  1.012089  0.0  0.100343  0.081258  -0.0  1.014062  0.0
H  H4  1  0.11895315  0.01861202  0.18223047  1  0.069374  -2.5e-05  0.944196  0.0  0.082049  -2e-06  1.013185  0.0  0.082959  -1e-06  1.01214  0.0  0.100354  0.081253  -0.0  1.014121  0.0
H  H5  1  0.50533268  0.91639368  0.80071591  1  0.10067  -0.000111  0.969497  0.0  0.117315  -0.000129  1.041639  0.0  0.118268  -4.2e-05  1.042218  0.0  0.082522  0.116564  -0.00021  1.041249  0.0
H  H6  1  0.49464566  0.08364886  0.19927065  1  0.100764  -0.000115  0.969456  0.0  0.117362  -0.000129  1.041611  0.0  0.118318  -4.2e-05  1.042187  0.0  0.08248  0.116612  -0.00021  1.041221  0.0
H  H7  1  0.61747276  0.92539595  0.91944335  1  0.100064  2.7e-05  0.94835  0.0  0.121088  2.4e-05  1.010527  0.0  0.122431  3.1e-05  1.010294  0.0  0.084465  0.120074  1.4e-05  1.010748  0.0
H  H8  1  0.38250877  0.07462787  0.08054861  1  0.100123  2.6e-05  0.948214  0.0  0.121149  2.4e-05  1.010375  0.0  0.1225  3.1e-05  1.010135  0.0  0.084479  0.120137  1.4e-05  1.010602  0.0
H  H9  1  0.71275543  0.75056209  0.85473299  1  0.106534  -1.7e-05  0.964394  0.0  0.124933  3e-06  1.029281  0.0  0.125813  1e-05  1.030844  0.0  0.084073  0.124243  -3e-06  1.028272  0.0
H  H10  1  0.28720961  0.24945995  0.14525713  1  0.106525  -1.7e-05  0.96457  0.0  0.124929  3e-06  1.02942  0.0  0.125813  1e-05  1.030986  0.0  0.08405  0.124232  -3e-06  1.028422  0.0
H  H11  1  0.95531791  0.79990653  0.34875688  1  0.117751  3e-05  0.960024  0.0  0.137004  -7e-06  1.023459  0.0  0.138644  -1.6e-05  1.023929  0.0  0.090327  0.135848  -0.0  1.02311  0.0
H  H12  1  0.04469922  0.20007362  0.65124661  1  0.117645  2.2e-05  0.960175  0.0  0.136927  -7e-06  1.023574  0.0  0.138589  -1.6e-05  1.023988  0.0  0.090322  0.135772  -0.0  1.023227  0.0
H  H13  1  0.79457102  0.01373908  0.29243325  1  0.125592  -0.000513  0.965492  0.0  0.138846  -0.000523  1.03841  0.0  0.142578  -0.000308  1.035857  0.0  0.09333  0.136146  -0.000727  1.040299  0.0
H  H14  1  0.20544256  0.98624734  0.70756227  1  0.12555  -0.000513  0.965554  0.0  0.138802  -0.000523  1.038463  0.0  0.142531  -0.000308  1.035912  0.0  0.093307  0.136105  -0.000727  1.040354  0.0
H  H15  1  0.72105112  0.81962832  0.34328624  1  0.147976  0.000135  0.930843  0.0  0.17103  7.3e-05  0.986076  0.0  0.174255  7.1e-05  0.984272  0.0  0.102878  0.168755  6.5e-05  0.987307  0.0
H  H16  1  0.27895894  0.18035483  0.65672378  1  0.148027  0.000143  0.9308  0.0  0.170996  7.3e-05  0.986141  0.0  0.174219  7e-05  0.984343  0.0  0.102816  0.168725  6.5e-05  0.987365  0.0
H  H17  1  0.14261421  0.50919992  0.32152722  1  0.128636  0.000133  0.952422  0.0  0.13665  -0.000103  1.017578  0.0  0.138753  -5.9e-05  1.017065  0.0  0.110141  0.135121  -0.000144  1.018093  0.0
H  H18  1  0.85738382  0.49079224  0.67847757  1  0.128597  0.000128  0.952436  0.0  0.136565  -0.000103  1.017678  0.0  0.138666  -5.9e-05  1.017172  0.0  0.110097  0.13504  -0.000144  1.018193  0.0
H  H19  1  0.56154216  0.62896228  0.04190178  1  0.110737  -0.000273  0.94739  0.0  0.121331  -0.000135  1.006984  0.0  0.123801  -7.8e-05  1.006486  0.0  0.104044  0.119582  -0.000187  1.007354  0.0
H  H20  1  0.43844656  0.37103922  0.95810232  1  0.110706  -0.000269  0.947304  0.0  0.121283  -0.000135  1.006936  0.0  0.123753  -7.9e-05  1.006437  0.0  0.104052  0.119533  -0.000187  1.007307  0.0
H  H21  1  0.68750315  0.44540908  0.22454088  1  0.127458  0.000443  0.9574  0.001  0.130439  -3.7e-05  1.029751  0.0  0.134305  1.6e-05  1.026826  0.0  0.106482  0.127689  -9.6e-05  1.031836  0.0
H  H22  1  0.31249471  0.55458275  0.77545855  1  0.127596  0.000445  0.95732  0.001  0.130549  -3.7e-05  1.029706  0.0  0.134413  1.6e-05  1.026779  0.0  0.106545  0.127805  -9.6e-05  1.031794  0.0
C  C23  1  0.68502171  0.08823360  0.47900178  1  -0.101317  0.003842  3.806784  0.0  -0.10548  0.000494  4.083724  -0.002  -0.12483  0.002343  4.108102  0.0  0.070036  -0.093763  -0.00115  4.067714  -0.003
C  C24  1  0.31499391  0.91176781  0.52099277  1  -0.101264  0.003842  3.80676  0.0  -0.105351  0.000496  4.083645  -0.002  -0.124697  0.002342  4.108037  0.0  0.070026  -0.093636  -0.00115  4.067633  -0.003
C  C25  1  0.66677523  0.11926457  0.58495252  1  0.473763  0.003976  3.797645  0.003  0.425757  0.000306  4.085125  0.0  0.459562  0.002025  4.088392  0.001  0.236594  0.403461  -0.002087  4.082707  -0.001
C  C26  1  0.33323006  0.88074062  0.41503997  1  0.473591  0.003989  3.797273  0.003  0.425435  0.000305  4.085058  0.0  0.459241  0.002024  4.088325  0.001  0.236348  0.40314  -0.002087  4.082634  -0.001
C  C27  1  0.90570033  0.83734792  0.65740535  1  0.502202  0.001287  3.849776  0.0  0.456127  0.000566  4.135141  0.0  0.48566  0.000563  4.137473  0.0  0.230749  0.436451  0.000361  4.133021  0.0
C  C28  1  0.09429855  0.16264556  0.34259844  1  0.50221  0.001287  3.849791  0.0  0.45629  0.000566  4.134968  0.0  0.485829  0.000564  4.137296  0.0  0.230695  0.43661  0.000362  4.13284  0.0
C  C29  1  0.91906164  0.81040000  0.55013845  1  -0.245618  0.004677  3.850943  0.003  -0.23709  0.002355  4.103197  0.001  -0.258086  0.002579  4.125205  0.001  -0.031714  -0.223781  0.002171  4.088545  0.001
C  C30  1  0.08095405  0.18959764  0.44986136  1  -0.24564  0.004681  3.850422  0.003  -0.237236  0.002351  4.102696  0.001  -0.258226  0.002578  4.124716  0.001  -0.031769  -0.223923  0.002172  4.08804  0.001
C  C31  1  0.80811116  0.92791648  0.46313292  1  0.194225  0.001011  3.698422  0.0  0.190666  0.000835  3.957118  0.0  0.207708  0.001348  3.97429  0.0  0.030607  0.17958  0.00026  3.945392  0.0
C  C32  1  0.19190925  0.07207467  0.53687102  1  0.194053  0.001005  3.698441  0.0  0.19059  0.000837  3.956998  0.0  0.207605  0.001348  3.974198  0.0  0.03068  0.179503  0.000259  3.945267  0.0
C  C33  1  0.74500137  0.01253072  0.77862193  1  0.05988  -0.000575  3.622524  0.0  0.001206  -0.000445  3.880732  0.0  0.007528  -0.000209  3.890229  0.0  -0.070383  -0.002876  -0.000673  3.874102  0.0
C  C34  1  0.25499857  0.98748011  0.22137509  1  0.059883  -0.000575  3.622906  0.0  0.001248  -0.000445  3.881074  0.0  0.00757  -0.000209  3.89057  0.0  -0.070349  -0.002825  -0.000673  3.874431  0.0
C  C35  1  0.63853025  0.89331139  0.84159952  1  -0.306927  -1.6e-05  3.680915  0.0  -0.382773  -6e-05  3.926094  0.0  -0.385735  7e-06  3.935416  0.0  -0.250693  -0.38046  -0.000135  3.919657  0.0
C  C36  1  0.36144785  0.10671503  0.15839127  1  -0.30712  -1.1e-05  3.681001  0.0  -0.382936  -6e-05  3.926165  0.0  -0.385924  7e-06  3.935502  0.0  -0.250688  -0.380604  -0.000135  3.919681  0.0
C  C37  1  0.06209909  0.66270401  0.53867688  1  0.335679  0.001571  3.788651  0.001  0.325314  0.001349  4.061291  0.001  0.345414  0.001224  4.077228  0.001  0.190045  0.312737  0.001289  4.050848  0.001
C  C38  1  0.93790161  0.33731009  0.46132886  1  0.335829  0.001567  3.78931  0.001  0.325468  0.001345  4.061966  0.001  0.345559  0.001222  4.0779  0.001  0.190295  0.312893  0.001287  4.051529  0.001
C  C39  1  0.82191086  0.88979167  0.35535571  1  -0.362002  -0.001064  3.696084  -0.001  -0.445761  -0.00082  3.939673  -0.001  -0.450595  -0.000493  3.943084  0.0  -0.245382  -0.44214  -0.001122  3.93704  -0.001
C  C40  1  0.17810344  0.11019793  0.64464701  1  -0.361809  -0.001061  3.696304  -0.001  -0.44555  -0.00082  3.939815  -0.001  -0.450372  -0.000493  3.943253  0.0  -0.245293  -0.441932  -0.001122  3.937179  -0.001
C  C41  1  0.42171895  0.46608942  0.28288638  1  0.194939  -0.005629  3.787436  -0.007  0.193335  -0.00405  4.052073  -0.005  0.197858  -0.000991  4.0747  -0.002  0.085975  0.190702  -0.006504  4.037441  -0.008
C  C42  1  0.57828207  0.53390535  0.71711562  1  0.194956  -0.005624  3.787627  -0.007  0.193395  -0.004049  4.05216  -0.005  0.19792  -0.000991  4.074787  -0.002  0.085924  0.190759  -0.006505  4.03753  -0.008
C  C43  1  0.23419325  0.53404294  0.26017606  1  -0.176759  -0.006616  3.691267  -0.006  -0.213432  -0.002327  3.954088  -0.002  -0.216715  -0.002164  3.972992  -0.002  -0.091045  -0.21141  -0.00219  3.941597  -0.002
C  C44  1  0.76580012  0.46595584  0.73982690  1  -0.176783  -0.006614  3.691264  -0.006  -0.213395  -0.002327  3.954027  -0.002  -0.216682  -0.002164  3.972938  -0.002  -0.091005  -0.211378  -0.002191  3.941545  -0.002
C  C45  1  0.16423512  0.62933812  0.15691614  1  0.08472  0.007039  3.807718  0.005  0.090494  0.001949  4.078752  0.001  0.093435  0.002307  4.098949  0.002  0.010665  0.088384  0.001407  4.065288  0.001
C  C46  1  0.83576463  0.37065276  0.84308961  1  0.084799  0.007051  3.807505  0.005  0.090509  0.001949  4.07868  0.001  0.09345  0.002308  4.09888  0.002  0.010658  0.088402  0.001407  4.065212  0.001
C  C47  1  0.28306616  0.66474001  0.07817863  1  0.060041  -0.009138  3.810839  -0.009  0.063898  -0.002846  4.079403  -0.003  0.065225  -0.00237  4.100892  -0.003  0.005965  0.062734  -0.002989  4.06508  -0.003
C  C48  1  0.71692293  0.33526005  0.92182416  1  0.060082  -0.009135  3.810768  -0.009  0.063871  -0.002846  4.079477  -0.003  0.065197  -0.00237  4.100966  -0.003  0.006005  0.062708  -0.002989  4.065148  -0.003
C  C49  1  0.47090726  0.60003606  0.10338571  1  -0.111968  0.005655  3.765723  0.004  -0.13215  0.001075  4.020002  0.001  -0.133835  0.001788  4.040366  0.001  -0.093763  -0.130868  0.000312  4.006266  0.0
C  C50  1  0.52909431  0.39996548  0.89661516  1  -0.111968  0.005643  3.765833  0.004  -0.132128  0.001076  4.020156  0.001  -0.133811  0.001788  4.04052  0.001  -0.093823  -0.130843  0.000312  4.006417  0.0
C  C51  1  0.54128201  0.49841985  0.20498517  1  -0.113294  -0.009865  3.687695  -0.009  -0.143458  -0.004396  3.949284  -0.004  -0.145675  -0.003657  3.967436  -0.004  -0.085456  -0.142183  -0.004731  3.937093  -0.004
C  C52  1  0.45870648  0.50157726  0.79501425  1  -0.11346  -0.009873  3.687699  -0.009  -0.143572  -0.004398  3.949209  -0.004  -0.145785  -0.003658  3.967353  -0.004  -0.085459  -0.142303  -0.004733  3.937028  -0.004
N  N53  1  0.76856497  0.98848749  0.66952436  1  -0.249794  -0.007765  3.33987  -0.01  -0.160778  -0.005769  3.564132  -0.008  -0.185123  -0.004111  3.581004  -0.006  -0.23806  -0.144552  -0.006953  3.552134  -0.009
N  N54  1  0.23144046  0.01152190  0.33046975  1  -0.249702  -0.007767  3.340361  -0.01  -0.160786  -0.00577  3.564733  -0.008  -0.185136  -0.004111  3.581616  -0.006  -0.238028  -0.144565  -0.006953  3.552721  -0.009
N  N55  1  0.18433663  0.54248379  0.53001090  1  -0.441883  0.000866  2.710688  -0.001  -0.431798  0.000424  2.978994  -0.001  -0.451115  0.001093  2.986202  -0.001  -0.323928  -0.42143  -0.000117  2.975287  -0.002
N  N56  1  0.81568265  0.45749770  0.46999156  1  -0.441871  0.000867  2.711766  -0.001  -0.431804  0.000426  2.980102  -0.001  -0.451115  0.001093  2.987308  -0.001  -0.324078  -0.42144  -0.000118  2.976404  -0.002
N  N57  1  0.59177385  0.20596065  0.38995691  1  -0.043606  -0.037348  3.13333  -0.042  -0.032448  -0.021488  3.424025  -0.026  -0.024  -0.006478  3.441759  -0.012  -0.139334  -0.035579  -0.034139  3.411632  -0.036
N  N58  1  0.40823746  0.79403808  0.61003968  1  -0.043527  -0.037346  3.133203  -0.042  -0.032393  -0.021487  3.423925  -0.026  -0.023948  -0.006476  3.441664  -0.012  -0.139322  -0.035528  -0.034139  3.411526  -0.036
N  N59  1  0.49305261  0.36432815  0.38820909  1  -0.201498  -0.09321  3.195159  -0.11  -0.172572  -0.061607  3.513663  -0.078  -0.200799  -0.050373  3.534019  -0.07  -0.207154  -0.159706  -0.067212  3.503916  -0.08
N  N60  1  0.50695064  0.63566811  0.61179418  1  -0.201617  -0.093221  3.195137  -0.11  -0.17269  -0.061613  3.513671  -0.078  -0.200919  -0.050375  3.534033  -0.07  -0.207129  -0.15981  -0.06722  3.503911  -0.08
Cl  Cl61  1  0.20032219  0.78690237  0.95138855  1  -0.056576  -0.001317  1.442265  -0.001  -0.042778  -0.000537  1.685891  0.0  -0.046665  -0.000318  1.680955  0.0  0.026468  -0.039936  -0.000726  1.689383  -0.001
Cl  Cl62  1  0.79966673  0.21308562  0.04861780  1  -0.056594  -0.001317  1.442193  -0.001  -0.042766  -0.000537  1.685852  0.0  -0.046655  -0.000319  1.680922  0.0  0.026457  -0.039929  -0.000727  1.689343  -0.001
Cl  Cl63  1  0.93281720  0.70482811  0.12778868  1  -0.058726  0.000904  1.382242  0.0  -0.037635  0.000396  1.609266  0.0  -0.041512  0.000432  1.604333  0.0  0.022135  -0.034713  0.000292  1.612578  0.0
Cl  Cl64  1  0.06716977  0.29516678  0.87221964  1  -0.058704  0.000903  1.382458  0.0  -0.037581  0.000396  1.609514  0.0  -0.04146  0.000432  1.60458  0.0  0.022164  -0.034657  0.000292  1.612825  0.0
O  O65  1  0.55979007  0.25861217  0.60436645  1  -0.52394  -0.052689  2.156778  -0.069  -0.485534  -0.041838  2.428644  -0.06  -0.52283  -0.031902  2.423969  -0.05  -0.289939  -0.463016  -0.047406  2.43259  -0.063
O  O66  1  0.44021910  0.74138526  0.39563192  1  -0.523898  -0.052682  2.156475  -0.069  -0.485449  -0.04183  2.4284  -0.06  -0.52273  -0.031896  2.423685  -0.05  -0.289845  -0.46293  -0.047399  2.432344  -0.063
O  O67  1  0.00646130  0.73705191  0.73541322  1  -0.513448  0.001014  1.954108  0.0  -0.479104  8.1e-05  2.186758  0.0  -0.498841  0.001316  2.182264  0.001  -0.282644  -0.465476  -0.00124  2.189418  -0.002
O  O68  1  0.99352107  0.26294757  0.26458202  1  -0.513536  0.001019  1.953719  0.0  -0.479234  8.3e-05  2.186288  0.0  -0.498978  0.001319  2.181796  0.001  -0.28266  -0.465603  -0.001239  2.18894  -0.002
