# generated using pymatgen
data_ErAg3H6C14N2O11
_symmetry_space_group_name_H-M   'P 1'
_cell_length_a   8.17819463
_cell_length_b   13.80535372
_cell_length_c   14.49400000
_cell_angle_alpha   90.00000000
_cell_angle_beta   90.00000000
_cell_angle_gamma   90.00000000
_symmetry_Int_Tables_number   1
_chemical_formula_structural   ErAg3H6C14N2O11
_chemical_formula_sum   'Er4 Ag12 H24 C56 N8 O44'
_cell_volume   1636.41419330
_cell_formula_units_Z   4
loop_
 _symmetry_equiv_pos_site_id
 _symmetry_equiv_pos_as_xyz
  1  'x, y, z'
loop_
 _atom_site_type_symbol
 _atom_site_label
 _atom_site_symmetry_multiplicity
 _atom_site_fract_x
 _atom_site_fract_y
 _atom_site_fract_z
 _atom_site_occupancy
 _atom_site_hle17_bader_spin_density
 _atom_site_hle17_ddec_charge
 _atom_site_hle17_ddec_spin_density
 _atom_site_hle17_ddec_sum_bond_order
 _atom_site_hle17_magmom
 _atom_site_hse06_10hf_bader_spin_density
 _atom_site_hse06_10hf_ddec_charge
 _atom_site_hse06_10hf_ddec_spin_density
 _atom_site_hse06_10hf_ddec_sum_bond_order
 _atom_site_hse06_10hf_magmom
 _atom_site_hse06_bader_spin_density
 _atom_site_hse06_ddec_charge
 _atom_site_hse06_ddec_spin_density
 _atom_site_hse06_ddec_sum_bond_order
 _atom_site_hse06_magmom
 _atom_site_pbe_bader_charge
 _atom_site_pbe_bader_spin_density
 _atom_site_pbe_cm5_charge
 _atom_site_pbe_ddec_charge
 _atom_site_pbe_ddec_spin_density
 _atom_site_pbe_ddec_sum_bond_order
 _atom_site_pbe_magmom
Er  Er0  1  0.97575570  0.74999889  0.24999862  1  0  2.16325  0  1.682047  0  0  1.983837  0  2.18879  0  0  2.036824  0  2.147171  0  2.138706  0  1.479264  1.943704  0  2.221298  0
Er  Er1  1  0.52424651  0.75000034  0.74999931  1  0  2.163286  0  1.681975  0  0  1.983873  0  2.188758  0  0  2.036797  0  2.14723  0  2.138724  0  1.479294  1.943747  0  2.22125  0
Er  Er2  1  0.02424496  0.25000011  0.75000000  1  0  2.163311  0  1.682025  0  0  1.983923  0  2.188742  0  0  2.036843  0  2.147228  0  2.138699  0  1.47929  1.943793  0  2.221247  0
Er  Er3  1  0.47575415  0.25000084  0.25000000  1  0  2.163322  0  1.681967  0  0  1.9839  0  2.188759  0  0  2.036849  0  2.147196  0  2.138718  0  1.479295  1.943774  0  2.221254  0
Ag  Ag4  1  0.54946357  0.82498357  0.48443563  1  0  0.678668  0  1.267395  0  0  0.565542  0  1.702148  0  0  0.604341  0  1.637731  0  0.669652  0  0.448083  0.537371  0  1.747848  0
Ag  Ag5  1  0.95053497  0.82498429  0.51556368  1  0  0.678669  0  1.267383  0  0  0.565546  0  1.702139  0  0  0.604342  0  1.637729  0  0.668907  0  0.448079  0.537375  0  1.747837  0
Ag  Ag6  1  0.95053864  0.67501566  0.98443287  1  0  0.678697  0  1.267372  0  0  0.565589  0  1.702142  0  0  0.604378  0  1.63773  0  0.669734  0  0.448107  0.53742  0  1.747843  0
Ag  Ag7  1  0.54946357  0.67501494  0.01556506  1  0  0.678672  0  1.267397  0  0  0.565566  0  1.702149  0  0  0.604361  0  1.637735  0  0.66892  0  0.448089  0.537397  0  1.747847  0
Ag  Ag8  1  0.45053709  0.17501544  0.51556506  1  0  0.678697  0  1.267377  0  0  0.565587  0  1.70212  0  0  0.604387  0  1.637704  0  0.669722  0  0.448096  0.537418  0  1.74782  0
Ag  Ag9  1  0.04946446  0.17501761  0.48443770  1  0  0.678674  0  1.267372  0  0  0.565541  0  1.702137  0  0  0.60434  0  1.637724  0  0.668912  0  0.448075  0.537371  0  1.747836  0
Ag  Ag10  1  0.04946569  0.32498334  0.01556023  1  0  0.678648  0  1.267392  0  0  0.565522  0  1.702177  0  0  0.604319  0  1.637759  0  0.668992  0  0.448075  0.537355  0  1.747877  0
Ag  Ag11  1  0.45053464  0.32498479  0.98443494  1  0  0.67866  0  1.267391  0  0  0.565551  0  1.702153  0  0  0.604351  0  1.637736  0  0.669728  0  0.44809  0.537381  0  1.747851  0
Ag  Ag12  1  0.25000139  0.55733016  0.00000069  1  0  0.642049  0  1.333096  0  0  0.531527  0  1.775453  0  0  0.567667  0  1.714197  0  0.647242  0  0.433337  0.505526  0  1.818831  0
Ag  Ag13  1  0.24999650  0.94267414  0.50000276  1  0  0.642057  0  1.333102  0  0  0.531552  0  1.775432  0  0  0.567694  0  1.714178  0  0.647323  0  0.433325  0.50555  0  1.818807  0
Ag  Ag14  1  0.75000049  0.44266885  0.00000000  1  0  0.642044  0  1.33309  0  0  0.531527  0  1.775442  0  0  0.56767  0  1.714178  0  0.647249  0  0.433323  0.505527  0  1.81882  0
Ag  Ag15  1  0.75000049  0.05732631  0.50000000  1  0  0.642036  0  1.333124  0  0  0.531518  0  1.775447  0  0  0.567663  0  1.71419  0  0.647343  0  0.433317  0.505517  0  1.818822  0
H  H16  1  0.22536759  0.73030001  0.44408307  1  0  0.439816  0  0.857557  0  0  0.409455  0  0.918693  0  0  0.420554  0  0.902874  0  0.656323  0  0.294695  0.401576  0  0.929871  0
H  H17  1  0.27463274  0.73029929  0.55591555  1  0  0.439838  0  0.857528  0  0  0.409481  0  0.918656  0  0  0.42058  0  0.902838  0  0.656305  0  0.294704  0.401603  0  0.92983  0
H  H18  1  0.27463396  0.76970212  0.94408307  1  0  0.439811  0  0.857565  0  0  0.409464  0  0.918673  0  0  0.420559  0  0.902861  0  0.656299  0  0.294695  0.401584  0  0.929851  0
H  H19  1  0.22536637  0.76970212  0.05591486  1  0  0.439838  0  0.857532  0  0  0.40949  0  0.918641  0  0  0.420587  0  0.902827  0  0.656298  0  0.294708  0.40161  0  0.929819  0
H  H20  1  0.77463185  0.26969972  0.55591624  1  0  0.439845  0  0.85752  0  0  0.409489  0  0.918648  0  0  0.420586  0  0.902831  0  0.656321  0  0.294705  0.401611  0  0.929825  0
H  H21  1  0.72536792  0.26970044  0.44408307  1  0  0.439815  0  0.857561  0  0  0.409457  0  0.918694  0  0  0.420553  0  0.902879  0  0.65632  0  0.29469  0.401578  0  0.92987  0
H  H22  1  0.72536669  0.23029834  0.05591624  1  0  0.439821  0  0.857553  0  0  0.409472  0  0.918666  0  0  0.420567  0  0.902854  0  0.656293  0  0.294694  0.401594  0  0.929841  0
H  H23  1  0.77463185  0.23029761  0.94408376  1  0  0.439795  0  0.857589  0  0  0.409442  0  0.918708  0  0  0.420536  0  0.902897  0  0.656301  0  0.294691  0.401562  0  0.929889  0
H  H24  1  0.61499637  0.47629783  0.43194287  1  0  0.142817  0  0.920863  0  0  0.150802  0  0.983127  0  0  0.155327  0  0.980802  0  0.121583  0  0.116265  0.147527  0  0.98504  0
H  H25  1  0.88500706  0.47629638  0.56805644  1  0  0.142839  0  0.920877  0  0  0.150836  0  0.98311  0  0  0.15536  0  0.980786  0  0.121533  0  0.116286  0.147559  0  0.985024  0
H  H26  1  0.88500462  0.02370385  0.93194494  1  0  0.142862  0  0.920842  0  0  0.15086  0  0.983076  0  0  0.155386  0  0.980749  0  0.121533  0  0.116286  0.147587  0  0.984989  0
H  H27  1  0.61499392  0.02370240  0.06805644  1  0  0.142809  0  0.920888  0  0  0.150803  0  0.98314  0  0  0.15533  0  0.980813  0  0.12155  0  0.116266  0.147529  0  0.98505  0
H  H28  1  0.38500551  0.52370335  0.56805575  1  0  0.142857  0  0.920822  0  0  0.150854  0  0.983065  0  0  0.15538  0  0.98074  0  0.121534  0  0.116289  0.147581  0  0.984977  0
H  H29  1  0.11499849  0.52370407  0.43194425  1  0  0.142832  0  0.920887  0  0  0.150827  0  0.983134  0  0  0.155352  0  0.980807  0  0.121369  0  0.116278  0.147548  0  0.985049  0
H  H30  1  0.11499482  0.97629661  0.06805575  1  0  0.142848  0  0.92086  0  0  0.15084  0  0.983111  0  0  0.155367  0  0.980783  0  0.121529  0  0.116284  0.14757  0  0.985021  0
H  H31  1  0.38500429  0.97629733  0.93194425  1  0  0.142858  0  0.920849  0  0  0.150854  0  0.983092  0  0  0.155378  0  0.980768  0  0.121544  0  0.116292  0.14758  0  0.985007  0
H  H32  1  0.90006540  0.35362803  0.20844901  1  0  0.136414  0  0.922523  0  0  0.144548  0  0.987268  0  0  0.149538  0  0.983007  0  0.085628  0  0.115758  0.140888  0  0.990645  0
H  H33  1  0.59993436  0.35362948  0.79154892  1  0  0.136393  0  0.92255  0  0  0.144556  0  0.987259  0  0  0.149547  0  0.982996  0  0.085669  0  0.115765  0.140897  0  0.990635  0
H  H34  1  0.59993436  0.14637148  0.70845177  1  0  0.136357  0  0.922593  0  0  0.144506  0  0.987323  0  0  0.149492  0  0.98306  0  0.085663  0  0.115756  0.14085  0  0.9907  0
H  H35  1  0.90006540  0.14637003  0.29154961  1  0  0.136399  0  0.922546  0  0  0.144561  0  0.987253  0  0  0.149551  0  0.982991  0  0.085673  0  0.115775  0.140901  0  0.99063  0
H  H36  1  0.09993159  0.64637170  0.79154823  1  0  0.136368  0  0.922564  0  0  0.144534  0  0.987271  0  0  0.149522  0  0.983008  0  0.085653  0  0.115753  0.140874  0  0.990649  0
H  H37  1  0.40006629  0.64637170  0.20845039  1  0  0.136368  0  0.922572  0  0  0.144537  0  0.987265  0  0  0.149529  0  0.983002  0  0.085631  0  0.115753  0.140875  0  0.990645  0
H  H38  1  0.40006262  0.85362970  0.29155030  1  0  0.13639  0  0.922547  0  0  0.144533  0  0.987276  0  0  0.149523  0  0.98301  0  0.085661  0  0.115748  0.140875  0  0.990651  0
H  H39  1  0.09993404  0.85362753  0.70845315  1  0  0.136378  0  0.92254  0  0  0.144518  0  0.987267  0  0  0.149505  0  0.983006  0  0.085659  0  0.11575  0.140861  0  0.990644  0
C  C40  1  0.70281526  0.66586269  0.39196081  1  0  0.635546  0  3.909111  0  0  0.588185  0  4.190785  0  0  0.622429  0  4.184086  0  1.594856  0  0.208636  0.564832  0  4.194239  0
C  C41  1  0.79719551  0.66586342  0.60803919  1  0  0.635569  0  3.908851  0  0  0.588223  0  4.190487  0  0  0.622462  0  4.183787  0  1.594854  0  0.208613  0.564866  0  4.193948  0
C  C42  1  0.79719061  0.83413727  0.89196150  1  0  0.635458  0  3.909015  0  0  0.58816  0  4.190589  0  0  0.6224  0  4.183894  0  1.59483  0  0.208624  0.564801  0  4.194054  0
C  C43  1  0.70281037  0.83413654  0.10803712  1  0  0.635507  0  3.909035  0  0  0.588249  0  4.190553  0  0  0.622489  0  4.183857  0  1.594838  0  0.208645  0.564899  0  4.194005  0
C  C44  1  0.29719151  0.33413559  0.60803988  1  0  0.635597  0  3.908921  0  0  0.588232  0  4.190601  0  0  0.622464  0  4.183916  0  1.594839  0  0.208613  0.56488  0  4.194053  0
C  C45  1  0.20281004  0.33413776  0.39196150  1  0  0.635485  0  3.909144  0  0  0.588125  0  4.190807  0  0  0.622357  0  4.184125  0  1.594821  0  0.208636  0.564776  0  4.194252  0
C  C46  1  0.20280760  0.16586391  0.10803712  1  0  0.635407  0  3.90907  0  0  0.588169  0  4.19055  0  0  0.622407  0  4.183859  0  1.594852  0  0.208611  0.564807  0  4.194019  0
C  C47  1  0.29719029  0.16586319  0.89196150  1  0  0.635338  0  3.909096  0  0  0.588096  0  4.190595  0  0  0.62233  0  4.183905  0  1.594841  0  0.208611  0.564742  0  4.194049  0
C  C48  1  0.76018611  0.57320516  0.34909273  1  0  0.141941  0  3.780949  0  0  0.143643  0  4.030153  0  0  0.147192  0  4.047394  0  0.492709  0  0.113844  0.141254  0  4.018461  0
C  C49  1  0.73981609  0.57320589  0.65090382  1  0  0.141928  0  3.780818  0  0  0.143651  0  4.03  0  0  0.147205  0  4.047239  0  0.492827  0  0.113806  0.141266  0  4.018307  0
C  C50  1  0.73981365  0.92679480  0.84909618  1  0  0.141893  0  3.78092  0  0  0.143621  0  4.030068  0  0  0.147174  0  4.047306  0  0.492843  0  0.113782  0.141235  0  4.018376  0
C  C51  1  0.76018734  0.92679335  0.15090451  1  0  0.141894  0  3.78097  0  0  0.1436  0  4.030134  0  0  0.147152  0  4.047376  0  0.492847  0  0.113841  0.141212  0  4.018442  0
C  C52  1  0.23981576  0.42679457  0.65090520  1  0  0.141874  0  3.780849  0  0  0.143613  0  4.030018  0  0  0.147166  0  4.04726  0  0.492855  0  0.113799  0.141224  0  4.018329  0
C  C53  1  0.26018823  0.42679457  0.34909549  1  0  0.141892  0  3.780894  0  0  0.143606  0  4.030087  0  0  0.147161  0  4.047326  0  0.492822  0  0.113809  0.141217  0  4.018392  0
C  C54  1  0.26018456  0.07320638  0.15090451  1  0  0.141909  0  3.780902  0  0  0.143621  0  4.030044  0  0  0.147176  0  4.047281  0  0.49283  0  0.113807  0.141236  0  4.018353  0
C  C55  1  0.23981332  0.07320493  0.84909618  1  0  0.141935  0  3.780903  0  0  0.143639  0  4.030054  0  0  0.147193  0  4.04729  0  0.492826  0  0.113791  0.141251  0  4.018362  0
C  C56  1  0.70245699  0.48276271  0.37552366  1  0  -0.210938  0  3.591643  0  0  -0.243308  0  3.848443  0  0  -0.25121  0  3.864854  0  -0.005635  0  -0.0829  -0.238315  0  3.837754  0
C  C57  1  0.79754522  0.48276271  0.62447496  1  0  -0.211024  0  3.591638  0  0  -0.243409  0  3.848461  0  0  -0.251317  0  3.864874  0  -0.005736  0  -0.082903  -0.238422  0  3.837773  0
C  C58  1  0.79754399  0.01723679  0.87552573  1  0  -0.211033  0  3.591625  0  0  -0.243429  0  3.848452  0  0  -0.251338  0  3.864867  0  -0.005733  0  -0.0829  -0.238445  0  3.837767  0
C  C59  1  0.70245577  0.01723534  0.12447565  1  0  -0.210939  0  3.591679  0  0  -0.243356  0  3.848493  0  0  -0.251262  0  3.864904  0  -0.005535  0  -0.082925  -0.238362  0  3.837809  0
C  C60  1  0.29754366  0.51723774  0.62447427  1  0  -0.210982  0  3.591592  0  0  -0.243382  0  3.848418  0  0  -0.251292  0  3.864834  0  -0.005564  0  -0.082871  -0.238399  0  3.837736  0
C  C61  1  0.20245789  0.51723629  0.37552504  1  0  -0.210986  0  3.591713  0  0  -0.243384  0  3.848523  0  0  -0.251289  0  3.864929  0  -0.005529  0  -0.082941  -0.238396  0  3.837835  0
C  C62  1  0.20245422  0.98276439  0.12447427  1  0  -0.211032  0  3.591599  0  0  -0.243449  0  3.848431  0  0  -0.251357  0  3.864842  0  -0.005567  0  -0.082903  -0.238464  0  3.837745  0
C  C63  1  0.29754366  0.98276294  0.87552573  1  0  -0.211017  0  3.591641  0  0  -0.243421  0  3.848472  0  0  -0.251331  0  3.864887  0  -0.005751  0  -0.082912  -0.238439  0  3.83779  0
C  C64  1  0.74808320  0.39995136  0.32379950  1  0  0.420583  0  3.857134  0  0  0.409003  0  4.116683  0  0  0.427499  0  4.126999  0  0.671932  0  0.102193  0.396508  0  4.109198  0
C  C65  1  0.75191779  0.39995208  0.67619843  1  0  0.420587  0  3.857167  0  0  0.408997  0  4.116762  0  0  0.427495  0  4.127076  0  0.671826  0  0.10216  0.396512  0  4.109265  0
C  C66  1  0.75191901  0.10004887  0.82380226  1  0  0.420566  0  3.857236  0  0  0.408999  0  4.116792  0  0  0.427494  0  4.12711  0  0.671828  0  0.102135  0.39651  0  4.1093  0
C  C67  1  0.74808075  0.10004742  0.17619843  1  0  0.420539  0  3.857108  0  0  0.409013  0  4.116604  0  0  0.427506  0  4.126925  0  0.671841  0  0.102165  0.39651  0  4.109132  0
C  C68  1  0.25191868  0.60004837  0.67619843  1  0  0.420568  0  3.857225  0  0  0.409013  0  4.116772  0  0  0.42751  0  4.127088  0  0.671815  0  0.102156  0.396525  0  4.109279  0
C  C69  1  0.24808287  0.60004909  0.32380226  1  0  0.420501  0  3.857299  0  0  0.408956  0  4.116781  0  0  0.427451  0  4.1271  0  0.671847  0  0.102129  0.396468  0  4.109287  0
C  C70  1  0.24808043  0.89995231  0.17619774  1  0  0.420708  0  3.857209  0  0  0.409168  0  4.116705  0  0  0.427666  0  4.127021  0  0.671839  0  0.102218  0.396679  0  4.109209  0
C  C71  1  0.25191990  0.89995159  0.82380226  1  0  0.420495  0  3.857206  0  0  0.408937  0  4.116739  0  0  0.427434  0  4.127059  0  0.671813  0  0.102093  0.39645  0  4.109246  0
C  C72  1  0.86077066  0.41486224  0.25040155  1  0  -0.206102  0  3.595219  0  0  -0.237736  0  3.849003  0  0  -0.245055  0  3.86575  0  0.013371  0  -0.084012  -0.233003  0  3.837884  0
C  C73  1  0.63923032  0.41486297  0.74959638  1  0  -0.206063  0  3.595185  0  0  -0.237709  0  3.84895  0  0  -0.245029  0  3.865701  0  0.013436  0  -0.084001  -0.232972  0  3.837818  0
C  C74  1  0.63923155  0.08513799  0.75040431  1  0  -0.206035  0  3.595172  0  0  -0.237663  0  3.849049  0  0  -0.244976  0  3.865797  0  0.013454  0  -0.083983  -0.232938  0  3.837932  0
C  C75  1  0.86076822  0.08513654  0.24959707  1  0  -0.205997  0  3.595201  0  0  -0.237664  0  3.848937  0  0  -0.244984  0  3.865686  0  0.013453  0  -0.083991  -0.232926  0  3.837811  0
C  C76  1  0.13923000  0.58513821  0.74959569  1  0  -0.20609  0  3.59522  0  0  -0.237695  0  3.849035  0  0  -0.24501  0  3.865785  0  0.013445  0  -0.083996  -0.232962  0  3.837905  0
C  C77  1  0.36076789  0.58514039  0.25040431  1  0  -0.206129  0  3.595284  0  0  -0.237736  0  3.849089  0  0  -0.245056  0  3.865842  0  0.01338  0  -0.084032  -0.233006  0  3.837967  0
C  C78  1  0.36076422  0.91486247  0.24959638  1  0  -0.206111  0  3.595292  0  0  -0.237743  0  3.849121  0  0  -0.245056  0  3.865861  0  0.013431  0  -0.083995  -0.233011  0  3.837994  0
C  C79  1  0.13923122  0.91486102  0.75040500  1  0  -0.206063  0  3.595223  0  0  -0.237659  0  3.849043  0  0  -0.244974  0  3.865789  0  0.013414  0  -0.08401  -0.232933  0  3.837921  0
C  C80  1  0.91271611  0.50818328  0.23039672  1  0  0.11946  0  3.811923  0  0  0.126816  0  4.054469  0  0  0.127457  0  4.075505  0  0.491512  0  0.1022  0.126495  0  4.040099  0
C  C81  1  0.58728121  0.50818473  0.76959983  1  0  0.119452  0  3.811762  0  0  0.126785  0  4.054337  0  0  0.12743  0  4.075366  0  0.491299  0  0.102193  0.126462  0  4.039973  0
C  C82  1  0.58727998  0.99181667  0.73040086  1  0  0.119568  0  3.811534  0  0  0.126782  0  4.054305  0  0  0.127422  0  4.075342  0  0.491601  0  0.102216  0.126462  0  4.039935  0
C  C83  1  0.91271733  0.99181595  0.26960259  1  0  0.119276  0  3.811922  0  0  0.126651  0  4.054452  0  0  0.127296  0  4.075486  0  0.491252  0  0.102155  0.126334  0  4.040079  0
C  C84  1  0.08727843  0.49181717  0.76959845  1  0  0.119639  0  3.811595  0  0  0.126822  0  4.0544  0  0  0.127464  0  4.07544  0  0.491507  0  0.102231  0.126504  0  4.040027  0
C  C85  1  0.41271823  0.49182152  0.23039948  1  0  0.119631  0  3.811427  0  0  0.126796  0  4.054229  0  0  0.127436  0  4.07527  0  0.491471  0  0.102242  0.126477  0  4.039855  0
C  C86  1  0.41271578  0.00818233  0.26960121  1  0  0.119507  0  3.811632  0  0  0.126773  0  4.054318  0  0  0.127418  0  4.075348  0  0.491605  0  0.102209  0.126458  0  4.039941  0
C  C87  1  0.08727843  0.00818088  0.73040086  1  0  0.119488  0  3.811679  0  0  0.126713  0  4.054403  0  0  0.127357  0  4.075436  0  0.491471  0  0.102248  0.126396  0  4.04003  0
C  C88  1  0.02235090  0.53393344  0.15192217  1  0  0.626545  0  3.897522  0  0  0.574325  0  4.178386  0  0  0.610032  0  4.172127  0  1.527064  0  0.209454  0.549765  0  4.181747  0
C  C89  1  0.47764943  0.53393416  0.84807714  1  0  0.62661  0  3.897303  0  0  0.574433  0  4.178115  0  0  0.610136  0  4.171862  0  1.527345  0  0.20954  0.549871  0  4.18148  0
C  C90  1  0.47765065  0.96606724  0.65192286  1  0  0.626499  0  3.897438  0  0  0.574349  0  4.178279  0  0  0.610052  0  4.172026  0  1.526991  0  0.209485  0.549789  0  4.181643  0
C  C91  1  0.02234601  0.96606724  0.34807852  1  0  0.626785  0  3.897434  0  0  0.574575  0  4.178276  0  0  0.610279  0  4.172021  0  1.527282  0  0.209575  0.550014  0  4.181642  0
C  C92  1  0.97764976  0.46606629  0.84807645  1  0  0.626495  0  3.897422  0  0  0.574329  0  4.178292  0  0  0.610031  0  4.172038  0  1.52709  0  0.209501  0.549767  0  4.181656  0
C  C93  1  0.52234878  0.46606629  0.15192286  1  0  0.626589  0  3.897343  0  0  0.574472  0  4.178138  0  0  0.610175  0  4.171885  0  1.527089  0  0.209555  0.549911  0  4.181501  0
C  C94  1  0.52234634  0.03393321  0.34807852  1  0  0.626562  0  3.897399  0  0  0.574389  0  4.178242  0  0  0.610093  0  4.171982  0  1.526987  0  0.209507  0.549827  0  4.181605  0
C  C95  1  0.97764976  0.03393321  0.65192493  1  0  0.626595  0  3.897365  0  0  0.574445  0  4.17819  0  0  0.610148  0  4.171932  0  1.527094  0  0.209528  0.549886  0  4.181552  0
N  N96  1  0.86365516  0.58675643  0.27828619  1  0  -0.472443  0  3.311232  0  0  -0.425905  0  3.564662  0  0  -0.441587  0  3.586041  0  -1.282892  0  -0.409567  -0.414999  0  3.549953  0
N  N97  1  0.63634582  0.58675643  0.72171105  1  0  -0.472414  0  3.311192  0  0  -0.425878  0  3.564635  0  0  -0.441554  0  3.586011  0  -1.282952  0  -0.409545  -0.414972  0  3.549926  0
N  N98  1  0.63634582  0.91324353  0.77828826  1  0  -0.47243  0  3.311149  0  0  -0.425857  0  3.564636  0  0  -0.441528  0  3.58601  0  -1.283022  0  -0.409558  -0.41495  0  3.549926  0
N  N99  1  0.86365516  0.91324281  0.22171243  1  0  -0.47231  0  3.311181  0  0  -0.425786  0  3.564602  0  0  -0.44147  0  3.585985  0  -1.283027  0  -0.409539  -0.414884  0  3.549897  0
N  N100  1  0.13634550  0.41324403  0.72171105  1  0  -0.472429  0  3.311108  0  0  -0.425857  0  3.564601  0  0  -0.441531  0  3.585977  0  -1.282993  0  -0.409552  -0.414952  0  3.549892  0
N  N101  1  0.36365606  0.41324620  0.27828619  1  0  -0.472409  0  3.310862  0  0  -0.425822  0  3.56436  0  0  -0.441497  0  3.585737  0  -1.28292  0  -0.409531  -0.414915  0  3.549649  0
N  N102  1  0.36365239  0.08675620  0.22171312  1  0  -0.472429  0  3.311187  0  0  -0.425885  0  3.564674  0  0  -0.441563  0  3.586052  0  -1.282968  0  -0.409583  -0.41498  0  3.549962  0
N  N103  1  0.13634427  0.08675475  0.77828895  1  0  -0.472368  0  3.311096  0  0  -0.42581  0  3.564579  0  0  -0.441484  0  3.585954  0  -1.282924  0  -0.409543  -0.414904  0  3.549868  0
O  O104  1  0.77720699  0.74375494  0.36576721  1  0  -0.764424  0  2.102543  0  0  -0.700988  0  2.374219  0  0  -0.730788  0  2.362293  0  -1.17992  0  -0.397863  -0.679403  0  2.381464  0
O  O105  1  0.72280011  0.74375494  0.63423348  1  0  -0.76451  0  2.102544  0  0  -0.701092  0  2.374252  0  0  -0.730872  0  2.362305  0  -1.179846  0  -0.397923  -0.679504  0  2.381497  0
O  O106  1  0.72280011  0.75624502  0.86576652  1  0  -0.764475  0  2.10262  0  0  -0.701074  0  2.374298  0  0  -0.730856  0  2.362355  0  -1.17985  0  -0.397918  -0.679485  0  2.381544  0
O  O107  1  0.77720332  0.75624502  0.13423279  1  0  -0.76452  0  2.102656  0  0  -0.701137  0  2.374316  0  0  -0.73093  0  2.362374  0  -1.179881  0  -0.397943  -0.679551  0  2.381561  0
O  O108  1  0.22279612  0.25624479  0.63423348  1  0  -0.764578  0  2.102623  0  0  -0.701158  0  2.374332  0  0  -0.730938  0  2.362394  0  -1.179892  0  -0.397938  -0.679574  0  2.381578  0
O  O109  1  0.27720421  0.25624697  0.36576652  1  0  -0.764506  0  2.102711  0  0  -0.701085  0  2.374418  0  0  -0.730872  0  2.362485  0  -1.179837  0  -0.397938  -0.6795  0  2.38166  0
O  O110  1  0.27720054  0.24375471  0.13423348  1  0  -0.764459  0  2.102644  0  0  -0.701079  0  2.3743  0  0  -0.730866  0  2.362359  0  -1.179848  0  -0.397925  -0.679488  0  2.381546  0
O  O111  1  0.22279734  0.24375471  0.86576514  1  0  -0.764426  0  2.102608  0  0  -0.701041  0  2.374246  0  0  -0.730824  0  2.362316  0  -1.179877  0  -0.397914  -0.679454  0  2.381489  0
O  O112  1  0.58500564  0.66400979  0.44764247  1  0  -0.568356  0  2.005555  0  0  -0.504755  0  2.248885  0  0  -0.534819  0  2.24109  0  -1.133069  0  -0.30332  -0.48355  0  2.253441  0
O  O113  1  0.91500879  0.66401269  0.55236167  1  0  -0.56825  0  2.005307  0  0  -0.504669  0  2.24863  0  0  -0.534737  0  2.240849  0  -1.132849  0  -0.303235  -0.483464  0  2.253188  0
O  O114  1  0.91500390  0.83598945  0.94764040  1  0  -0.568215  0  2.005361  0  0  -0.504667  0  2.248688  0  0  -0.534719  0  2.240869  0  -1.132814  0  -0.303252  -0.483462  0  2.253253  0
O  O115  1  0.58500075  0.83598727  0.05235753  1  0  -0.568224  0  2.005349  0  0  -0.50469  0  2.248657  0  0  -0.534754  0  2.240859  0  -1.133221  0  -0.303261  -0.483488  0  2.253216  0
O  O116  1  0.41500480  0.33598777  0.55236167  1  0  -0.568239  0  2.005324  0  0  -0.504674  0  2.248702  0  0  -0.534724  0  2.240891  0  -1.132776  0  -0.303225  -0.48347  0  2.253259  0
O  O117  1  0.08500042  0.33598922  0.44764109  1  0  -0.568211  0  2.005356  0  0  -0.504616  0  2.248696  0  0  -0.534672  0  2.240902  0  -1.133112  0  -0.303244  -0.483413  0  2.253249  0
O  O118  1  0.08499553  0.16401173  0.05235822  1  0  -0.568183  0  2.005335  0  0  -0.504656  0  2.24864  0  0  -0.534712  0  2.240833  0  -1.132858  0  -0.303245  -0.483452  0  2.253208  0
O  O119  1  0.41499991  0.16401101  0.94764178  1  0  -0.568167  0  2.005389  0  0  -0.50465  0  2.248708  0  0  -0.534711  0  2.240922  0  -1.133212  0  -0.303251  -0.483443  0  2.253262  0
O  O120  1  0.68183141  0.31465981  0.33941010  1  0  -0.733894  0  2.056166  0  0  -0.670579  0  2.306812  0  0  -0.695234  0  2.297785  0  -1.199895  0  -0.419654  -0.652558  0  2.312215  0
O  O121  1  0.81816835  0.31465909  0.66058990  1  0  -0.733877  0  2.056203  0  0  -0.670569  0  2.306857  0  0  -0.695221  0  2.297828  0  -1.199915  0  -0.41964  -0.652545  0  2.312237  0
O  O122  1  0.81817079  0.18534042  0.83941148  1  0  -0.733836  0  2.056273  0  0  -0.670516  0  2.306897  0  0  -0.695169  0  2.297872  0  -1.199919  0  -0.419599  -0.652493  0  2.312287  0
O  O123  1  0.68182774  0.18534042  0.16058990  1  0  -0.733886  0  2.056166  0  0  -0.670579  0  2.306783  0  0  -0.695235  0  2.297753  0  -1.199894  0  -0.419614  -0.652551  0  2.312183  0
O  O124  1  0.31817047  0.68533992  0.66058852  1  0  -0.733899  0  2.05619  0  0  -0.670587  0  2.306832  0  0  -0.695239  0  2.2978  0  -1.199909  0  -0.419655  -0.652568  0  2.312228  0
O  O125  1  0.18182986  0.68534064  0.33940941  1  0  -0.733794  0  2.056232  0  0  -0.670467  0  2.306834  0  0  -0.695133  0  2.297805  0  -1.199951  0  -0.419577  -0.652439  0  2.312203  0
O  O126  1  0.18182986  0.81466004  0.16058921  1  0  -0.733902  0  2.056169  0  0  -0.670582  0  2.306782  0  0  -0.695253  0  2.297753  0  -1.199906  0  -0.419641  -0.652566  0  2.312191  0
O  O127  1  0.31817169  0.81466004  0.83941079  1  0  -0.733809  0  2.056179  0  0  -0.670498  0  2.306811  0  0  -0.695153  0  2.297788  0  -1.199923  0  -0.41958  -0.652473  0  2.312193  0
O  O128  1  0.08362481  0.46917885  0.09972333  1  0  -0.649361  0  2.212133  0  0  -0.569624  0  2.513211  0  0  -0.604124  0  2.497736  0  -1.144644  0  -0.321896  -0.545287  0  2.523086  0
O  O129  1  0.41637674  0.46918175  0.90027529  1  0  -0.649403  0  2.21212  0  0  -0.569694  0  2.513193  0  0  -0.604196  0  2.497727  0  -1.14455  0  -0.321915  -0.545352  0  2.523056  0
O  O130  1  0.41637185  0.03082210  0.59972747  1  0  -0.649412  0  2.212166  0  0  -0.569693  0  2.513228  0  0  -0.604194  0  2.497758  0  -1.144557  0  -0.32192  -0.545346  0  2.523079  0
O  O131  1  0.08361870  0.03081920  0.40027667  1  0  -0.649407  0  2.212278  0  0  -0.569702  0  2.513381  0  0  -0.604202  0  2.497906  0  -1.144575  0  -0.321913  -0.54536  0  2.523243  0
O  O132  1  0.91637217  0.53082160  0.90027460  1  0  -0.649417  0  2.212065  0  0  -0.569687  0  2.513131  0  0  -0.604188  0  2.497659  0  -1.144564  0  -0.32193  -0.545349  0  2.523006  0
O  O133  1  0.58362514  0.53082015  0.09972471  1  0  -0.649456  0  2.212114  0  0  -0.569738  0  2.513157  0  0  -0.604239  0  2.497688  0  -1.144531  0  -0.321944  -0.545391  0  2.523009  0
O  O134  1  0.58362514  0.96917835  0.40027322  1  0  -0.649341  0  2.212202  0  0  -0.569631  0  2.51328  0  0  -0.604129  0  2.497804  0  -1.144523  0  -0.321903  -0.54529  0  2.52315  0
O  O135  1  0.91637095  0.96917908  0.59972678  1  0  -0.649485  0  2.212079  0  0  -0.569758  0  2.51313  0  0  -0.604259  0  2.49766  0  -1.144521  0  -0.321966  -0.545408  0  2.522974  0
O  O136  1  0.05141110  0.62434909  0.14051677  1  0  -0.703538  0  2.173522  0  0  -0.625847  0  2.436833  0  0  -0.65708  0  2.428435  0  -1.145022  0  -0.358003  -0.603587  0  2.441894  0
O  O137  1  0.44858923  0.62435198  0.85947909  1  0  -0.703575  0  2.173415  0  0  -0.625857  0  2.436638  0  0  -0.65708  0  2.428236  0  -1.145094  0  -0.358052  -0.603599  0  2.441699  0
O  O138  1  0.44859045  0.87565015  0.64051953  1  0  -0.703524  0  2.173518  0  0  -0.625828  0  2.436794  0  0  -0.657051  0  2.428394  0  -1.145034  0  -0.358021  -0.603572  0  2.441857  0
O  O139  1  0.05140988  0.87564870  0.35948047  1  0  -0.703704  0  2.17341  0  0  -0.625989  0  2.436679  0  0  -0.657221  0  2.42828  0  -1.145038  0  -0.358088  -0.603732  0  2.441742  0
O  O140  1  0.94859078  0.37564992  0.85948116  1  0  -0.703555  0  2.173614  0  0  -0.625837  0  2.436858  0  0  -0.657059  0  2.428457  0  -1.145027  0  -0.358033  -0.603578  0  2.441918  0
O  O141  1  0.55141265  0.37564992  0.14051884  1  0  -0.703547  0  2.173502  0  0  -0.625851  0  2.436728  0  0  -0.657078  0  2.428327  0  -1.14506  0  -0.358044  -0.603593  0  2.441789  0
O  O142  1  0.55140654  0.12435103  0.35948185  1  0  -0.70362  0  2.173464  0  0  -0.625907  0  2.436705  0  0  -0.657132  0  2.428302  0  -1.145041  0  -0.35805  -0.603648  0  2.441768  0
O  O143  1  0.94858955  0.12434886  0.64051884  1  0  -0.70354  0  2.173529  0  0  -0.625835  0  2.436752  0  0  -0.657056  0  2.428354  0  -1.145034  0  -0.358017  -0.603578  0  2.441813  0
O  O144  1  0.25000261  0.77051847  0.49999931  1  0  -0.870815  0  2.038508  0  0  -0.782602  0  2.272226  0  0  -0.813515  0  2.233291  0  -1.252764  0  -0.580466  -0.760364  0  2.299028  0
O  O145  1  0.24999894  0.72948366  0.99999931  1  0  -0.870823  0  2.038552  0  0  -0.782625  0  2.272289  0  0  -0.813525  0  2.233328  0  -1.252609  0  -0.58047  -0.760386  0  2.299103  0
O  O146  1  0.75000172  0.22948199  0.49999931  1  0  -0.870823  0  2.038531  0  0  -0.782569  0  2.272156  0  0  -0.813496  0  2.233255  0  -1.252786  0  -0.580453  -0.760335  0  2.298956  0
O  O147  1  0.74999805  0.27051607  0.99999931  1  0  -0.87077  0  2.03854  0  0  -0.782562  0  2.272269  0  0  -0.813465  0  2.233316  0  -1.252616  0  -0.58045  -0.760327  0  2.299077  0
