# generated using pymatgen
data_CuH18C24(NO3)2
_symmetry_space_group_name_H-M   'P 1'
_cell_length_a   10.20821917
_cell_length_b   10.53888245
_cell_length_c   11.10921457
_cell_angle_alpha   93.20544324
_cell_angle_beta   117.35796409
_cell_angle_gamma   89.95611643
_symmetry_Int_Tables_number   1
_chemical_formula_structural   CuH18C24(NO3)2
_chemical_formula_sum   'Cu2 H36 C48 N4 O12'
_cell_volume   1059.40953294
_cell_formula_units_Z   2
loop_
 _symmetry_equiv_pos_site_id
 _symmetry_equiv_pos_as_xyz
  1  'x, y, z'
loop_
 _atom_site_type_symbol
 _atom_site_label
 _atom_site_symmetry_multiplicity
 _atom_site_fract_x
 _atom_site_fract_y
 _atom_site_fract_z
 _atom_site_occupancy
 _atom_site_pbe_cm5_charge
 _atom_site_pbe_ddec_charge
 _atom_site_pbe_ddec_spin_density
 _atom_site_pbe_ddec_sum_bond_order
 _atom_site_pbe_magmom
Cu  Cu0  1  0.00000281  0.49999907  0.99999989  1  0.743138  0.737754  0.703924  2.181068  0.539
Cu  Cu1  1  0.00000228  0.00000275  0.00000479  1  0.742837  0.73751  0.703581  2.179277  0.538
H  H2  1  0.56298178  0.17203204  0.69258313  1  0.292088  0.347526  -5.2e-05  0.995195  0.0
H  H3  1  0.87057376  0.32805399  0.30715034  1  0.292026  0.347275  -5.2e-05  0.995075  0.0
H  H4  1  0.43702395  0.82796674  0.30741498  1  0.292077  0.347498  -5.2e-05  0.995253  0.0
H  H5  1  0.12942861  0.67194653  0.69285544  1  0.291997  0.34728  -5.2e-05  0.995037  0.0
H  H6  1  0.34228199  0.67183471  0.47719266  1  0.106826  0.109338  0.000599  1.060777  0.001
H  H7  1  0.86512180  0.82831676  0.52270400  1  0.10709  0.109828  0.000597  1.06069  0.001
H  H8  1  0.65771846  0.32817068  0.52280814  1  0.106834  0.109292  0.000599  1.060865  0.001
H  H9  1  0.13486095  0.17168962  0.47729552  1  0.107088  0.10989  0.000597  1.060642  0.001
H  H10  1  0.10755775  0.47885276  0.57264989  1  0.103765  0.104722  -1e-05  1.026035  0.0
H  H11  1  0.53569831  0.02105750  0.42716946  1  0.103672  0.104943  -1.1e-05  1.024743  0.0
H  H12  1  0.89244113  0.52113864  0.42733753  1  0.103765  0.104708  -1e-05  1.02607  0.0
H  H13  1  0.46430220  0.97895064  0.57283607  1  0.103639  0.104862  -1.1e-05  1.024833  0.0
H  H14  1  0.12371685  0.66549098  0.25288632  1  0.120716  0.093595  0.000779  0.997061  0.001
H  H15  1  0.87076164  0.83464971  0.74687455  1  0.12071  0.094222  0.000777  0.996996  0.001
H  H16  1  0.87628557  0.33450872  0.74711313  1  0.120728  0.093564  0.000779  0.997015  0.001
H  H17  1  0.12923089  0.16535369  0.25312989  1  0.120727  0.094227  0.000777  0.99699  0.001
H  H18  1  0.47872093  0.32447208  0.34473468  1  0.107143  0.113595  0.000515  1.052889  0.001
H  H19  1  0.13419665  0.17523682  0.65548291  1  0.107255  0.11338  0.000513  1.053371  0.001
H  H20  1  0.52127917  0.67552927  0.65527648  1  0.10714  0.113581  0.000515  1.052811  0.001
H  H21  1  0.86579878  0.82475709  0.34452030  1  0.10724  0.11337  0.000513  1.053381  0.001
H  H22  1  0.54032934  0.23985988  0.88444146  1  0.101919  0.119798  -2.1e-05  1.020656  0.0
H  H23  1  0.65546820  0.26057628  0.11522932  1  0.101864  0.119617  -2.1e-05  1.020992  0.0
H  H24  1  0.45966418  0.76013801  0.11555400  1  0.101861  0.11981  -2.1e-05  1.020616  0.0
H  H25  1  0.34454533  0.73942700  0.88478060  1  0.101895  0.119649  -2.1e-05  1.020971  0.0
H  H26  1  0.25213962  0.35398820  0.48280923  1  0.102902  0.11987  9.8e-05  1.012745  0.0
H  H27  1  0.76981057  0.14610674  0.51680426  1  0.102766  0.119377  9.7e-05  1.013358  0.0
H  H28  1  0.74786601  0.64600598  0.51718130  1  0.102874  0.119886  9.8e-05  1.01276  0.0
H  H29  1  0.23019209  0.85390132  0.48320490  1  0.102704  0.11929  9.7e-05  1.013445  0.0
H  H30  1  0.25550484  0.33342657  0.12610927  1  0.119276  0.098724  0.000838  1.016002  0.002
H  H31  1  0.12947628  0.16640985  0.87404299  1  0.1193  0.098663  0.000834  1.016181  0.002
H  H32  1  0.74450307  0.66657393  0.87389711  1  0.119272  0.098714  0.000839  1.015914  0.002
H  H33  1  0.87052475  0.83358502  0.12596001  1  0.119286  0.098609  0.000833  1.01621  0.002
H  H34  1  0.38942973  0.36055103  0.97347745  1  0.100447  0.099274  5e-05  1.024366  0.0
H  H35  1  0.41578711  0.13985500  0.02641405  1  0.100275  0.099202  5e-05  1.023985  0.0
H  H36  1  0.61055823  0.63944508  0.02651278  1  0.100404  0.099248  5e-05  1.024376  0.0
H  H37  1  0.58422103  0.86014760  0.97358358  1  0.100291  0.099183  5e-05  1.024042  0.0
C  C38  1  0.43368227  0.49938291  0.43318630  1  0.020473  0.105386  -0.003549  3.944657  -0.002
C  C39  1  0.00054072  0.00059826  0.56683242  1  0.020699  0.105303  -0.003561  3.945863  -0.002
C  C40  1  0.56632004  0.50061664  0.56682028  1  0.020529  0.105364  -0.003549  3.944689  -0.002
C  C41  1  0.99944944  0.99940139  0.43316982  1  0.020736  0.105383  -0.003562  3.945628  -0.002
C  C42  1  0.32897413  0.59448050  0.40341275  1  -0.070376  -0.134798  0.003668  3.905418  0.004
C  C43  1  0.92561674  0.90559711  0.59653805  1  -0.070857  -0.135149  0.00367  3.906193  0.004
C  C44  1  0.67102955  0.40552386  0.59659118  1  -0.070415  -0.134775  0.003668  3.905558  0.004
C  C45  1  0.07436589  0.09440644  0.40346032  1  -0.070914  -0.135446  0.00367  3.906159  0.004
C  C46  1  0.20158495  0.42637596  0.64132658  1  -0.086636  -0.073639  0.001584  4.007673  0.002
C  C47  1  0.56081170  0.07362439  0.35845877  1  -0.086692  -0.072559  0.001582  4.005637  0.002
C  C48  1  0.79841406  0.57361918  0.35866386  1  -0.086789  -0.073892  0.001585  4.007654  0.002
C  C49  1  0.43919532  0.92637999  0.64154480  1  -0.086687  -0.072469  0.001582  4.005665  0.002
C  C50  1  0.20562185  0.59205842  0.27758905  1  0.050225  0.104457  -0.001185  3.91188  0.0
C  C51  1  0.92809602  0.90800280  0.72236487  1  0.05071  0.10401  -0.001195  3.912298  0.0
C  C52  1  0.79438771  0.40795084  0.72240877  1  0.050276  0.104584  -0.001185  3.911831  0.0
C  C53  1  0.07188999  0.09200259  0.27763600  1  0.050694  0.104128  -0.001196  3.912336  0.0
C  C54  1  0.23757908  0.42707837  0.77926825  1  -0.040526  -0.086055  0.007236  4.027789  0.008
C  C55  1  0.45856665  0.07307070  0.22058399  1  -0.04017  -0.087062  0.007259  4.028136  0.008
C  C56  1  0.76240635  0.57290839  0.22071391  1  -0.040571  -0.086081  0.007237  4.027612  0.008
C  C57  1  0.54143606  0.92693564  0.77941696  1  -0.04015  -0.087177  0.00726  4.02835  0.008
C  C58  1  0.40526973  0.40336596  0.33058759  1  -0.073272  -0.153212  0.003897  3.896765  0.005
C  C59  1  0.07477280  0.09649214  0.66953761  1  -0.073119  -0.151957  0.003894  3.896849  0.005
C  C60  1  0.59473380  0.59663552  0.66941786  1  -0.073239  -0.153107  0.003897  3.896604  0.005
C  C61  1  0.92522054  0.90350462  0.33046580  1  -0.073181  -0.152057  0.003894  3.896672  0.005
C  C62  1  0.14276108  0.49320372  0.83089089  1  0.208747  0.579295  -0.001124  4.196589  -0.003
C  C63  1  0.31221820  0.00685975  0.16902087  1  0.207996  0.578992  -0.001117  4.193881  -0.003
C  C64  1  0.85723550  0.50678667  0.16909905  1  0.208722  0.579346  -0.001125  4.196601  -0.003
C  C65  1  0.68778675  0.99314750  0.83098201  1  0.207902  0.57884  -0.001116  4.194418  -0.003
C  C66  1  0.40415331  0.28698255  0.67693825  1  0.083833  0.33032  0.001105  4.092414  0.001
C  C67  1  0.72723487  0.21331190  0.32272227  1  0.084338  0.331713  0.00111  4.091445  0.001
C  C68  1  0.59584221  0.71300880  0.32305130  1  0.08394  0.330522  0.001107  4.092283  0.001
C  C69  1  0.27276768  0.78669154  0.67728020  1  0.084416  0.331909  0.001111  4.091272  0.001
C  C70  1  0.28239832  0.35637066  0.59045342  1  -0.114025  -0.224299  0.001464  3.999314  0.001
C  C71  1  0.69227877  0.14377305  0.40920919  1  -0.114076  -0.225133  0.001472  4.00006  0.001
C  C72  1  0.71760175  0.64362352  0.40953741  1  -0.113955  -0.224238  0.001465  3.999288  0.001
C  C73  1  0.30772085  0.85623986  0.59079631  1  -0.114036  -0.225062  0.001473  3.999853  0.001
C  C74  1  0.27919202  0.40680761  0.20681347  1  0.045939  0.091906  -0.00106  3.922424  0.0
C  C75  1  0.07248138  0.09305867  0.79331944  1  0.045876  0.091653  -0.001057  3.92238  0.0
C  C76  1  0.72081038  0.59319296  0.79318963  1  0.045927  0.091857  -0.001059  3.922378  0.0
C  C77  1  0.92752055  0.90693323  0.20668823  1  0.045958  0.09179  -0.001057  3.922089  0.0
C  C78  1  0.36001163  0.35898837  0.86587249  1  -0.089792  -0.073363  0.000736  4.013806  0.001
C  C79  1  0.49407836  0.14138293  0.13399756  1  -0.090004  -0.073331  0.000737  4.014298  0.001
C  C80  1  0.63997852  0.64100680  0.13411682  1  -0.089669  -0.073255  0.000737  4.013935  0.001
C  C81  1  0.50592405  0.85861675  0.86600278  1  -0.089977  -0.073164  0.000737  4.014445  0.001
C  C82  1  0.44422964  0.29135078  0.81671772  1  -0.114616  -0.235882  -0.000569  3.980745  0.0
C  C83  1  0.62731967  0.20905769  0.18300729  1  -0.114215  -0.235971  -0.000566  3.98185  0.0
C  C84  1  0.55576271  0.70864437  0.18327254  1  -0.114648  -0.23603  -0.000569  3.980962  0.0
C  C85  1  0.37268709  0.79094009  0.81699299  1  -0.114334  -0.236192  -0.000566  3.982045  0.0
N  N86  1  0.18071780  0.50000942  0.17986313  1  -0.346427  -0.226662  0.059502  3.626322  0.077
N  N87  1  0.00091966  0.99994987  0.82018563  1  -0.346894  -0.227221  0.059389  3.6265  0.077
N  N88  1  0.81928597  0.49999596  0.82013821  1  -0.346486  -0.226723  0.059501  3.626281  0.077
N  N89  1  0.99908031  0.00004685  0.17981974  1  -0.346928  -0.227296  0.059392  3.626367  0.077
O  O90  1  0.47629961  0.21883852  0.62142882  1  -0.352718  -0.46785  0.000966  2.366715  0.001
O  O91  1  0.85483368  0.28137568  0.37822378  1  -0.352762  -0.467787  0.000974  2.366894  0.001
O  O92  1  0.52370616  0.78116032  0.37856661  1  -0.352729  -0.467874  0.000967  2.36667  0.001
O  O93  1  0.14517213  0.71862676  0.62178093  1  -0.352738  -0.467853  0.000974  2.366827  0.001
O  O94  1  0.08725905  0.59925123  0.78992104  1  -0.319321  -0.556833  -0.000206  2.191286  0.002
O  O95  1  0.29796718  0.90072191  0.20989011  1  -0.319069  -0.5567  -0.000209  2.189878  0.002
O  O96  1  0.91273994  0.40074298  0.21006842  1  -0.319306  -0.556843  -0.000207  2.191363  0.002
O  O97  1  0.70203961  0.09927680  0.79011115  1  -0.318996  -0.556586  -0.00021  2.190364  0.002
O  O98  1  0.12061406  0.43120719  0.91771471  1  -0.328598  -0.554434  0.072761  2.399169  0.103
O  O99  1  0.20297799  0.06885103  0.08234715  1  -0.327694  -0.553666  0.073044  2.39642  0.103
O  O100  1  0.87939169  0.56879250  0.08228528  1  -0.328526  -0.554361  0.072773  2.399093  0.103
O  O101  1  0.79702675  0.93115327  0.91765993  1  -0.327642  -0.553589  0.073054  2.396466  0.103
