# generated using pymatgen
data_CoHC5O4
_symmetry_space_group_name_H-M   'P 1'
_cell_length_a   6.89925228
_cell_length_b   14.92840265
_cell_length_c   14.92808881
_cell_angle_alpha   117.78077058
_cell_angle_beta   98.95510320
_cell_angle_gamma   98.42812953
_symmetry_Int_Tables_number   1
_chemical_formula_structural   CoHC5O4
_chemical_formula_sum   'Co6 H6 C30 O24'
_cell_volume   1300.79663954
_cell_formula_units_Z   6
loop_
 _symmetry_equiv_pos_site_id
 _symmetry_equiv_pos_as_xyz
  1  'x, y, z'
loop_
 _atom_site_type_symbol
 _atom_site_label
 _atom_site_symmetry_multiplicity
 _atom_site_fract_x
 _atom_site_fract_y
 _atom_site_fract_z
 _atom_site_occupancy
 _atom_site_hle17_ddec_charge
 _atom_site_hle17_ddec_spin_density
 _atom_site_hle17_ddec_sum_bond_order
 _atom_site_hle17_magmom
 _atom_site_hse06_10hf_bader_charge
 _atom_site_hse06_10hf_bader_spin_density
 _atom_site_hse06_10hf_ddec_charge
 _atom_site_hse06_10hf_ddec_spin_density
 _atom_site_hse06_10hf_ddec_sum_bond_order
 _atom_site_hse06_10hf_magmom
 _atom_site_hse06_ddec_charge
 _atom_site_hse06_ddec_spin_density
 _atom_site_hse06_ddec_sum_bond_order
 _atom_site_hse06_magmom
 _atom_site_pbe_cm5_charge
 _atom_site_pbe_ddec_charge
 _atom_site_pbe_ddec_spin_density
 _atom_site_pbe_ddec_sum_bond_order
 _atom_site_pbe_magmom
Co  Co0  1  0.88083043  0.68684466  0.42899867  1  0.944469  2.805842  2.401991  2.491  1.341284  2.585361  0.968685  2.805091  2.801878  2.556  1.043951  2.904073  2.726045  2.676  0.635117  0.870612  2.5868  2.88988  2.349
Co  Co1  1  0.19651379  0.74263736  0.31440413  1  0.943851  -2.858955  2.405961  -2.48  1.341712  -2.572644  0.966533  -2.862062  2.80689  -2.545  1.043256  -2.999679  2.730158  -2.672  0.644058  0.885712  -2.686116  2.882419  -2.361
Co  Co2  1  0.45717909  0.57123593  0.25776673  1  0.94854  2.82678  2.390894  2.509  1.33617  2.593214  0.965898  2.812917  2.793282  2.565  1.040496  2.905455  2.717779  2.679  0.641188  0.880774  2.634194  2.871236  2.39
Co  Co3  1  0.12618129  0.31401438  0.58418573  1  0.944899  -2.848063  2.6985  -2.448  1.199972  -0.938513  0.771963  -1.046279  3.208529  -0.929  0.846636  -1.073878  3.122176  -0.956  0.62358  0.749267  -0.705839  3.243737  -0.616
Co  Co4  1  0.80380558  0.26659940  0.68290065  1  0.945193  2.792208  2.670273  2.46  1.201794  1.019847  0.775276  1.104298  3.170649  1.01  0.851269  1.058688  3.083906  0.981  0.625142  0.761412  1.306025  3.207285  1.182
Co  Co5  1  0.54684087  0.42791118  0.74094260  1  0.928238  2.794527  2.460928  2.479  1.326285  2.559472  0.944859  2.778043  2.86602  2.53  1.028143  2.899196  2.785374  2.668  0.622648  0.809713  2.438207  2.981149  2.217
H  H6  1  0.63309354  0.44372464  0.97577157  1  0.139385  -0.000707  0.926533  -0.001  0.121502  0.000564  0.146547  0.000132  0.988113  0.0  0.149748  9e-06  0.987292  0.0  0.117237  0.1444  0.000249  0.988021  0.0
H  H7  1  0.17943293  0.52686346  0.55035198  1  0.138881  0.000361  0.929948  0.001  0.13457  0.00039  0.145964  0.000121  0.990813  0.0  0.148956  3.6e-05  0.99019  0.0  0.117077  0.144264  0.000222  0.990856  0.0
H  H8  1  0.65141342  0.02475029  0.46955913  1  0.139561  -0.00052  0.928264  -0.001  0.127341  -0.000299  0.147426  -0.000145  0.989181  0.0  0.150574  -0.000122  0.988048  0.0  0.117215  0.144912  -0.000148  0.990094  0.0
H  H9  1  0.36988998  0.55281198  0.02103714  1  0.13844  -0.0004  0.929149  -0.001  0.1021  0.000376  0.145251  5e-06  0.991237  0.0  0.148252  -6e-05  0.990703  0.0  0.11664  0.144193  7.2e-05  0.989947  0.0
H  H10  1  0.81757936  0.46776978  0.44873774  1  0.137856  -0.00107  0.929653  -0.002  0.116098  0.000129  0.145123  -4.8e-05  0.992132  0.0  0.148334  -0.0001  0.991218  0.0  0.115861  0.143131  4.1e-05  0.991542  0.0
H  H11  1  0.34508689  0.97786566  0.52950665  1  0.138372  0.000647  0.930386  0.001  0.124263  0.000228  0.144799  0.000228  0.993625  0.0  0.14808  0.000181  0.992797  0.0  0.116311  0.143313  0.000261  0.992051  0.0
C  C12  1  0.92013948  0.53458605  0.08723536  1  -0.160691  0.004009  3.731145  0.004  -0.071806  0.01147  -0.154788  0.006284  3.987371  0.008  -0.170553  0.00363  4.0219  0.005  -0.024839  -0.141304  0.008665  3.959041  0.011
C  C13  1  0.38145731  0.55010994  0.46296489  1  -0.160868  0.023854  3.727223  0.032  -0.046847  0.020063  -0.159927  0.009601  3.988747  0.013  -0.17683  0.005897  4.023931  0.008  -0.024683  -0.141773  0.012576  3.955355  0.016
C  C14  1  0.82911090  0.91279758  0.44797522  1  -0.162192  -0.018758  3.726433  -0.024  -0.085367  -0.01118  -0.162775  -0.006052  3.992506  -0.007  -0.180486  -0.005734  4.027683  -0.007  -0.024394  -0.14245  -0.007668  3.95766  -0.009
C  C15  1  0.08229825  0.46429379  0.90934389  1  -0.159218  0.008473  3.737626  0.01  0.018351  0.011516  -0.147912  0.005821  3.990922  0.007  -0.165202  0.004511  4.026929  0.006  -0.024241  -0.138953  0.004639  3.969375  0.006
C  C16  1  0.61273717  0.44197008  0.53389868  1  -0.160836  -0.020624  3.728244  -0.027  -0.014739  -0.004504  -0.150019  -0.002936  3.989105  -0.004  -0.166649  -0.00272  4.024784  -0.004  -0.02442  -0.140843  -0.003466  3.963212  -0.005
C  C17  1  0.16724234  0.08966279  0.55371341  1  -0.156415  0.022395  3.739215  0.031  0.022563  0.013892  -0.141384  0.0074  3.991152  0.011  -0.156445  0.007758  4.025577  0.011  -0.026239  -0.140512  0.007802  3.978781  0.011
C  C18  1  0.79524092  0.46870071  0.98612491  1  -0.129201  0.026859  3.666475  0.033  0.047179  0.013119  -0.173144  0.006646  3.939958  0.008  -0.183183  0.003945  3.971923  0.005  -0.084367  -0.162474  0.007222  3.913148  0.008
C  C19  1  0.31837774  0.51293923  0.52657087  1  -0.128557  -0.012046  3.667375  -0.017  0.061148  0.008886  -0.167122  0.004977  3.936042  0.005  -0.176244  0.002951  3.967971  0.003  -0.084043  -0.159824  0.00489  3.911233  0.005
C  C20  1  0.80367294  0.01402872  0.48353165  1  -0.122153  0.013928  3.655769  0.019  0.108817  0.003298  -0.165055  0.001519  3.92885  0.003  -0.172738  0.00413  3.959562  0.006  -0.085129  -0.160701  0.002057  3.907309  0.004
C  C21  1  0.20764967  0.52852292  0.01061618  1  -0.134243  0.012538  3.66371  0.013  0.029467  0.007774  -0.180667  0.003741  3.936189  0.004  -0.19017  0.000604  3.968106  0.0  -0.085848  -0.169783  0.006188  3.909081  0.007
C  C22  1  0.67665138  0.47990361  0.47098740  1  -0.134495  0.034102  3.666738  0.044  -0.010101  0.024909  -0.182684  0.012676  3.941352  0.016  -0.192119  0.007857  3.972758  0.01  -0.087017  -0.172176  0.014977  3.914171  0.019
C  C23  1  0.19254998  0.98849004  0.51665774  1  -0.134933  -0.017662  3.672231  -0.023  0.032754  -0.008891  -0.184006  -0.004203  3.949329  -0.005  -0.193977  -0.003451  3.980312  -0.004  -0.087487  -0.172119  -0.007013  3.923088  -0.008
C  C24  1  0.13278419  0.56531872  0.10006729  1  0.305306  0.018728  3.84853  0.021  0.606986  0.009133  0.287315  0.004655  4.139273  0.005  0.296166  0.00307  4.17306  0.003  0.078431  0.283258  0.004285  4.108282  0.004
C  C25  1  0.56544518  0.53253767  0.43363629  1  0.306236  -0.013932  3.846277  -0.024  0.578747  0.001309  0.288336  0.001654  4.141714  -0.001  0.297692  0.000188  4.175151  -0.002  0.079048  0.28547  0.00422  4.107688  0.001
C  C26  1  0.02951608  0.89957307  0.46526900  1  0.305975  0.013272  3.846813  0.019  0.537592  0.00357  0.284355  0.001773  4.144504  0.003  0.294585  0.004011  4.177601  0.006  0.077087  0.281046  0.000546  4.110771  0.002
C  C27  1  0.87045194  0.43266353  0.89698721  1  0.297899  0.008714  3.823957  0.005  0.490705  0.007691  0.272675  0.004341  4.113708  0.004  0.281415  0.001072  4.148316  0.002  0.073694  0.265714  0.009666  4.088061  0.011
C  C28  1  0.42844805  0.45960666  0.56289243  1  0.303922  0.025572  3.814663  0.033  0.507101  0.016101  0.275363  0.008815  4.104421  0.009  0.2839  0.004317  4.139518  0.004  0.074768  0.270566  0.01383  4.07827  0.016
C  C29  1  0.96704480  0.10264882  0.53571618  1  0.295877  -0.018467  3.799037  -0.025  0.418381  -0.008073  0.266448  -0.004283  4.079564  -0.004  0.273794  -0.003463  4.114754  -0.003  0.072636  0.260384  -0.005764  4.063197  -0.006
C  C30  1  0.82524581  0.56377600  0.17705567  1  0.68469  -0.003187  3.80233  -0.005  1.612407  -0.002039  0.646244  -0.000558  4.094133  -0.001  0.686278  -0.000479  4.086845  0.0  0.229038  0.614192  -0.001202  4.10056  -0.002
C  C31  1  0.25906129  0.61250492  0.43511901  1  0.684766  -0.002085  3.80028  -0.006  1.584887  0.004587  0.646406  0.00344  4.093949  0.002  0.686472  0.00238  4.086832  0.002  0.229011  0.614301  0.003845  4.099083  0.002
C  C32  1  0.64574169  0.82315291  0.38737335  1  0.68559  0.002489  3.80003  0.005  1.589753  0.002768  0.64764  0.001493  4.092701  0.002  0.68795  0.000872  4.085286  0.001  0.229781  0.615586  0.003279  4.09656  0.005
C  C33  1  0.18164811  0.43730966  0.82139482  1  0.68442  -0.002887  3.782563  -0.006  1.552173  0.008284  0.636509  0.005906  4.069631  0.006  0.677867  0.003815  4.062758  0.004  0.233677  0.605567  0.004939  4.075235  0.005
C  C34  1  0.74295352  0.38338627  0.56413579  1  0.67834  0.002858  3.784794  0.006  1.568605  0.002941  0.623392  0.001237  4.08077  0.002  0.662792  0.001061  4.07535  0.002  0.234038  0.600227  0.002931  4.075145  0.005
C  C35  1  0.35474851  0.17708973  0.61400804  1  0.678097  -0.003146  3.801596  -0.006  1.580399  -0.006304  0.628954  -0.003619  4.107481  -0.005  0.667936  -0.002678  4.100905  -0.004  0.227641  0.599748  -0.004307  4.103645  -0.006
C  C36  1  0.85167086  0.76000773  0.56401971  1  0.131168  -0.023922  3.040812  -0.013  1.031007  -0.015121  0.077859  -0.001941  3.377736  0.002  0.129892  0.003203  3.327496  0.007  0.077086  0.032861  -0.008205  3.433483  -0.006
C  C37  1  0.09298727  0.80440093  0.24097161  1  0.132288  0.023114  3.038629  0.013  1.022907  0.015846  0.078512  0.001511  3.376077  -0.001  0.130539  -0.004229  3.325699  -0.008  0.081358  0.03792  0.006785  3.423764  0.005
C  C38  1  0.29193686  0.43654371  0.19596934  1  0.136458  -0.019589  3.031345  -0.009  1.036001  -0.012257  0.080019  -0.000221  3.371366  0.003  0.131912  0.004713  3.321407  0.009  0.082064  0.038967  -0.005918  3.42125  -0.003
C  C39  1  0.15105116  0.24513321  0.45608944  1  0.126026  0.016992  3.203051  0.013  1.048766  0.041647  0.139311  0.019263  3.527547  0.023  0.187694  0.015549  3.481198  0.019  0.086261  0.112293  0.011252  3.544587  0.014
C  C40  1  0.89952347  0.20677251  0.75051267  1  0.118497  -0.019176  3.213248  -0.015  1.037298  -0.051938  0.139632  -0.025818  3.531915  -0.029  0.186859  -0.01876  3.486085  -0.02  0.080339  0.098104  -0.027277  3.562031  -0.031
C  C41  1  0.70846186  0.56080444  0.79992188  1  0.123044  -0.023954  3.07218  -0.014  1.0197  -0.019824  0.06246  -0.004202  3.421788  -0.002  0.11689  0.002078  3.366748  0.005  0.067218  0.024607  -0.0112  3.476081  -0.011
O  O42  1  0.94049064  0.61814146  0.27037960  1  -0.604383  -0.01076  2.22091  -0.016  -1.187903  -0.017995  -0.576244  -0.010601  2.493585  -0.015  -0.618209  -0.009207  2.487275  -0.012  -0.29229  -0.537002  -0.011288  2.494093  -0.016
O  O43  1  0.32335715  0.65304357  0.38261830  1  -0.607377  0.01428  2.220278  0.025  -1.182325  0.027248  -0.578721  0.013528  2.49271  0.023  -0.621087  0.008839  2.486779  0.015  -0.294349  -0.540726  0.015902  2.493818  0.027
O  O44  1  0.66970531  0.72989381  0.34842127  1  -0.60937  0.054956  2.233341  0.091  -1.187847  0.09038  -0.581649  0.050146  2.508297  0.08  -0.62381  0.041751  2.50161  0.067  -0.295305  -0.539849  0.049116  2.508567  0.076
O  O45  1  0.06638164  0.38748215  0.72654748  1  -0.6144  0.00932  2.27444  0.017  -1.152531  0.037379  -0.529686  0.019028  2.528904  0.031  -0.575643  0.01737  2.524449  0.029  -0.290077  -0.499967  0.022567  2.527261  0.036
O  O46  1  0.67563458  0.33951407  0.61443631  1  -0.613976  0.057076  2.279272  0.094  -1.158293  0.048112  -0.534704  0.027704  2.530311  0.042  -0.582386  0.023629  2.526533  0.036  -0.295152  -0.504703  0.026606  2.536256  0.038
O  O47  1  0.33421760  0.27150194  0.66185008  1  -0.610933  -0.020626  2.23051  -0.032  -1.176194  -0.016469  -0.578793  -0.008857  2.518248  -0.012  -0.62122  -0.007119  2.51167  -0.009  -0.293831  -0.519194  -0.004078  2.499816  -0.006
O  O48  1  0.26710816  0.62800151  0.19350186  1  -0.592933  0.016971  2.305511  0.029  -1.158713  0.005582  -0.586865  0.002261  2.616879  0.004  -0.648634  -0.000803  2.625285  -0.002  -0.327552  -0.52973  0.003776  2.605224  0.007
O  O49  1  0.63938774  0.56376984  0.37203312  1  -0.58472  0.12091  2.302934  0.206  -1.156984  0.178298  -0.58548  0.096311  2.616491  0.158  -0.646489  0.073717  2.62461  0.12  -0.326973  -0.527043  0.105401  2.605324  0.171
O  O50  1  0.07329216  0.80635828  0.43503828  1  -0.589467  -0.0038  2.309422  -0.006  -1.145288  0.001848  -0.583143  9.1e-05  2.621738  0.002  -0.646446  0.001325  2.630171  0.005  -0.326685  -0.525094  -0.008322  2.610523  -0.013
O  O51  1  0.73289552  0.36996294  0.80331997  1  -0.57915  0.13445  2.334577  0.225  -1.110126  0.078095  -0.533815  0.044247  2.644058  0.069  -0.597062  0.026416  2.651784  0.037  -0.31783  -0.482012  0.0517  2.635938  0.079
O  O52  1  0.35632115  0.43062578  0.62749140  1  -0.586756  0.007083  2.333705  0.014  -1.103475  0.12174  -0.537312  0.0637  2.637862  0.109  -0.603452  0.050954  2.648845  0.088  -0.317785  -0.486425  0.053543  2.630779  0.088
O  O53  1  0.92068709  0.19656508  0.56356023  1  -0.581861  -0.001599  2.310785  0.0  -1.061786  -0.005311  -0.494628  -0.002419  2.597174  -0.006  -0.559042  -0.001917  2.608251  -0.005  -0.308534  -0.463488  0.005958  2.596298  0.007
O  O54  1  0.63416058  0.53046075  0.15643764  1  -0.576266  0.041766  2.06656  0.07  -1.190253  0.066138  -0.544237  0.035667  2.321814  0.057  -0.585071  0.028215  2.311599  0.044  -0.295708  -0.513911  0.038808  2.333712  0.061
O  O55  1  0.10005476  0.62471008  0.46769224  1  -0.574099  0.056351  2.063888  0.094  -1.177372  0.091917  -0.542916  0.048654  2.318653  0.079  -0.583513  0.038081  2.30878  0.061  -0.295322  -0.512264  0.052359  2.331453  0.084
O  O56  1  0.47414223  0.84342933  0.37446359  1  -0.573693  -0.043819  2.064099  -0.071  -1.171949  -0.067575  -0.541022  -0.037557  2.317797  -0.058  -0.58217  -0.030861  2.307699  -0.046  -0.293499  -0.510869  -0.042002  2.328829  -0.064
O  O57  1  0.37232362  0.46648244  0.84372103  1  -0.555569  0.053875  2.093625  0.09  -1.158135  0.088722  -0.524223  0.047101  2.352304  0.076  -0.563158  0.03821  2.340369  0.062  -0.284085  -0.48853  0.046723  2.366244  0.075
O  O58  1  0.90828758  0.37902827  0.53821257  1  -0.551421  -0.042688  2.051035  -0.07  -1.149805  -0.043204  -0.505016  -0.02438  2.314484  -0.04  -0.540536  -0.022184  2.304458  -0.037  -0.267691  -0.468959  -0.019309  2.305621  -0.032
O  O59  1  0.52471700  0.15490663  0.61781468  1  -0.555261  0.041328  2.040141  0.07  -1.160873  0.042462  -0.52235  0.022797  2.31018  0.04  -0.559031  0.019891  2.299752  0.036  -0.277185  -0.484071  0.03065  2.303849  0.053
O  O60  1  0.83622954  0.80568266  0.64876303  1  -0.138906  -0.025878  2.181897  -0.044  -1.100583  -0.030183  -0.07274  -0.018097  2.372472  -0.031  -0.081466  -0.017133  2.353528  -0.031  -0.127282  -0.078738  -0.018934  2.396706  -0.032
O  O61  1  0.03015043  0.84265390  0.19484418  1  -0.140429  0.024706  2.184673  0.043  -1.095461  0.030029  -0.074074  0.017354  2.37577  0.031  -0.08254  0.016133  2.356647  0.03  -0.12384  -0.076256  0.017838  2.395807  0.031
O  O62  1  0.19148228  0.35256784  0.15809428  1  -0.136055  -0.025037  2.182404  -0.042  -1.105256  -0.028924  -0.071394  -0.01753  2.374908  -0.03  -0.079752  -0.016466  2.355942  -0.029  -0.124208  -0.076588  -0.01827  2.396548  -0.031
O  O63  1  0.16523523  0.20095924  0.37086520  1  -0.153747  0.028596  2.168477  0.049  -1.104614  0.021922  -0.105729  0.010529  2.332307  0.019  -0.113517  0.009322  2.315829  0.018  -0.117402  -0.087053  0.006722  2.335165  0.012
O  O64  1  0.96118431  0.16678862  0.79521449  1  -0.154265  -0.029723  2.174246  -0.05  -1.088546  -0.024393  -0.10239  -0.011575  2.332758  -0.021  -0.110173  -0.009719  2.317104  -0.018  -0.120337  -0.087379  -0.013018  2.344183  -0.022
O  O65  1  0.80886539  0.64520410  0.83976064  1  -0.137445  -0.026852  2.18177  -0.045  -1.103613  -0.032618  -0.073139  -0.019317  2.377437  -0.033  -0.079323  -0.018339  2.356112  -0.033  -0.129619  -0.079751  -0.019428  2.398113  -0.032
