# generated using pymatgen
data_Zn2H21C15O8
_symmetry_space_group_name_H-M   'P 1'
_cell_length_a   17.99547585
_cell_length_b   19.36532080
_cell_length_c   19.96430412
_cell_angle_alpha   63.09283928
_cell_angle_beta   62.15869164
_cell_angle_gamma   61.52795709
_symmetry_Int_Tables_number   1
_chemical_formula_structural   Zn2H21C15O8
_chemical_formula_sum   'Zn8 H84 C60 O32'
_cell_volume   5165.93662767
_cell_formula_units_Z   4
loop_
 _symmetry_equiv_pos_site_id
 _symmetry_equiv_pos_as_xyz
  1  'x, y, z'
loop_
 _atom_site_type_symbol
 _atom_site_label
 _atom_site_symmetry_multiplicity
 _atom_site_fract_x
 _atom_site_fract_y
 _atom_site_fract_z
 _atom_site_occupancy
 _atom_site_pbe_bader_charge
 _atom_site_pbe_bader_spin_density
 _atom_site_pbe_cm5_charge
 _atom_site_pbe_ddec_charge
 _atom_site_pbe_ddec_spin_density
 _atom_site_pbe_ddec_sum_bond_order
 _atom_site_pbe_magmom
Zn  Zn0  1  0.94240193  0.95099974  0.10575193  1  1.296985  0  0.667458  0.950339  0  2.39363  0
Zn  Zn1  1  0.94550896  0.10902598  0.94802406  1  1.31163  0  0.672613  0.961478  0  2.330166  0
Zn  Zn2  1  0.94235411  0.94077496  0.95036867  1  1.315267  0  0.671251  0.963102  0  2.374116  0
Zn  Zn3  1  0.11336798  0.94624562  0.95333913  1  1.295375  0  0.665022  0.947732  0  2.450735  0
Zn  Zn4  1  0.52826704  0.50024495  0.39565306  1  1.315183  0  0.669079  0.966482  0  2.362976  0
Zn  Zn5  1  0.50923642  0.35806776  0.56398301  1  1.317775  0  0.672936  0.969289  0  2.38399  0
Zn  Zn6  1  0.34287635  0.51814003  0.53668911  1  1.298205  0  0.660029  0.941722  0  2.369305  0
Zn  Zn7  1  0.50425562  0.53007532  0.55092967  1  1.319597  0  0.673515  0.968145  0  2.39218  0
H  H8  1  0.72615293  0.19030526  0.17406277  1  0.081647  0  0.112454  0.135276  0  0.981121  0
H  H9  1  0.80380757  0.24186205  0.12599378  1  0.064345  0  0.104398  0.12284  0  0.96619  0
H  H10  1  0.85623840  0.08258618  0.24937845  1  0.067343  0  0.093334  0.092946  0  1.014849  0
H  H11  1  0.85728960  0.17890639  0.23500229  1  0.031443  0  0.096817  0.09593  0  0.969148  0
H  H12  1  0.80788924  0.05284237  0.39313965  1  0.041798  0  0.087296  0.116332  0  1.018394  0
H  H13  1  0.81015444  0.14932049  0.37840107  1  0.024687  0  0.092252  0.126902  0  0.992813  0
H  H14  1  0.71285215  0.12274657  0.44283743  1  0.027462  0  0.090404  0.126137  0  1.004887  0
H  H15  1  0.66673607  0.28118011  0.25037799  1  0.039006  0  0.098067  0.098109  0  0.985349  0
H  H16  1  0.72309365  0.27750430  0.30473678  1  0.002856  0  0.093436  0.089578  0  0.980226  0
H  H17  1  0.58683350  0.20943584  0.42385801  1  0.035382  0  0.097709  0.109916  0  0.993974  0
H  H18  1  0.53523859  0.28873771  0.35293879  1  0.064987  0  0.109085  0.131827  0  0.957461  0
H  H19  1  0.66558144  0.00021212  0.34534282  1  0.05041  0  0.101097  0.153081  0  0.988989  0
H  H20  1  0.77572624  0.99240587  0.32995936  1  0.06312  0  0.100091  0.148871  0  0.999199  0
H  H21  1  0.68991757  0.00464510  0.42038635  1  0.072136  0  0.103191  0.151313  0  0.985359  0
H  H22  1  0.84957903  0.73748145  0.16897004  1  0.092762  0  0.112868  0.134319  0  0.98042  0
H  H23  1  0.76169404  0.80011197  0.12900168  1  0.050818  0  0.106345  0.125575  0  0.962652  0
H  H24  1  0.74930394  0.85086374  0.25638802  1  0.048479  0  0.092426  0.091267  0  1.01532  0
H  H25  1  0.66449918  0.83892692  0.24584202  1  0.036207  0  0.096948  0.096021  0  0.970883  0
H  H26  1  0.68419031  0.79465607  0.40214609  1  0.013495  0  0.086984  0.116704  0  1.016226  0
H  H27  1  0.60392116  0.77998752  0.38683561  1  0.034425  0  0.092053  0.127205  0  0.992801  0
H  H28  1  0.67077637  0.69654449  0.44432251  1  0.040242  0  0.089759  0.127443  0  1.00643  0
H  H29  1  0.75950442  0.66207773  0.24177652  1  0.043573  0  0.098823  0.097315  0  0.991537  0
H  H30  1  0.64830580  0.69890594  0.30077584  1  0.029757  0  0.093728  0.089541  0  0.977887  0
H  H31  1  0.75083634  0.57937863  0.40857491  1  0.0398  0  0.099556  0.113161  0  0.987496  0
H  H32  1  0.78419864  0.53634240  0.33304729  1  0.088009  0  0.108254  0.131055  0  0.958563  0
H  H33  1  0.93442508  0.69728020  0.34297238  1  0.062677  0  0.099382  0.150668  0  0.997192  0
H  H34  1  0.84000170  0.79040894  0.33567930  1  0.039361  0  0.100542  0.149478  0  0.998545  0
H  H35  1  0.82926580  0.70459529  0.42084102  1  0.067862  0  0.10239  0.150306  0  0.986719  0
H  H36  1  0.19726900  0.84274853  0.16856374  1  0.072909  0  0.112903  0.133185  0  0.984801  0
H  H37  1  0.24902493  0.76337044  0.12423910  1  0.069052  0  0.105996  0.126105  0  0.963263  0
H  H38  1  0.08103831  0.75555718  0.26477813  1  0.05044  0  0.091724  0.086826  0  1.013682  0
H  H39  1  0.18054263  0.67415172  0.24068771  1  0.041167  0  0.098351  0.099757  0  0.965762  0
H  H40  1  0.09215175  0.66763019  0.40142215  1  0.023738  0  0.085514  0.114288  0  1.0171  0
H  H41  1  0.20455891  0.60398292  0.37045702  1  0.002125  0  0.092378  0.129177  0  0.990257  0
H  H42  1  0.17350024  0.66199549  0.43264243  1  0.055482  0  0.088261  0.132034  0  1.018146  0
H  H43  1  0.29686204  0.76957619  0.21844813  1  0.058099  0  0.097796  0.094361  0  1.00703  0
H  H44  1  0.32160854  0.66236383  0.26000030  1  0.069828  0  0.095338  0.095248  0  0.972856  0
H  H45  1  0.27264471  0.76507672  0.36360886  1  0.068261  0  0.102158  0.120673  0  0.980802  0
H  H46  1  0.37820521  0.74862716  0.28872948  1  0.066674  0  0.106704  0.125411  0  0.956137  0
H  H47  1  0.00080104  0.89748196  0.37386332  1  0.084314  0  0.09955  0.150509  0  0.992108  0
H  H48  1  0.99855429  0.80542900  0.37409247  1  0.031261  0  0.097847  0.142794  0  1.0061  0
H  H49  1  0.03972774  0.79991696  0.44183946  1  0.092699  0  0.105187  0.15531  0  0.97823  0
H  H50  1  0.81419244  0.12403202  0.76585416  1  0.067278  0  0.108237  0.127593  0  0.984429  0
H  H51  1  0.92920726  0.10445110  0.72038291  1  0.076649  0  0.111867  0.131293  0  0.947941  0
H  H52  1  0.90053693  0.24590341  0.73004147  1  0.046091  0  0.092973  0.089635  0  1.021553  0
H  H53  1  0.87747859  0.24443932  0.65412653  1  0.008382  0  0.096376  0.093812  0  0.971921  0
H  H54  1  0.80548700  0.39025477  0.71768838  1  0.010377  0  0.086959  0.117482  0  1.020183  0
H  H55  1  0.79063254  0.39027946  0.63589195  1  0.006984  0  0.08994  0.123885  0  0.995479  0
H  H56  1  0.69634530  0.42686073  0.71271325  1  0.039941  0  0.089119  0.12377  0  1.006589  0
H  H57  1  0.70813493  0.21479753  0.73497384  1  0.046234  0  0.096886  0.09549  0  0.998386  0
H  H58  1  0.72877748  0.29644579  0.64883442  1  0.026456  0  0.091028  0.084668  0  0.985012  0
H  H59  1  0.58890956  0.37841091  0.76260616  1  0.047139  0  0.099033  0.1133  0  0.988786  0
H  H60  1  0.56351982  0.28996835  0.78776156  1  0.102675  0  0.109952  0.134257  0  0.956177  0
H  H61  1  0.72695121  0.28042899  0.93536372  1  0.091543  0  0.101885  0.158539  0  0.986233  0
H  H62  1  0.81181667  0.30941851  0.84522232  1  0.053508  0  0.097776  0.146848  0  1.01116  0
H  H63  1  0.69986730  0.37685001  0.86150063  1  0.047085  0  0.102168  0.150156  0  0.982708  0
H  H64  1  0.25052151  0.12730580  0.81613611  1  0.064121  0  0.111244  0.130913  0  0.979197  0
H  H65  1  0.21945109  0.13454189  0.90984264  1  0.05897  0  0.11193  0.130408  0  0.949556  0
H  H66  1  0.08898736  0.27229787  0.86566085  1  0.062891  0  0.092115  0.088234  0  0.99914  0
H  H67  1  0.19656067  0.27182390  0.84235266  1  0.027224  0  0.096488  0.094176  0  0.97514  0
H  H68  1  0.08330156  0.40748365  0.76418201  1  0.012949  0  0.087709  0.117737  0  1.010869  0
H  H69  1  0.19870457  0.39036023  0.73303433  1  0.037791  0  0.092713  0.133247  0  0.992004  0
H  H70  1  0.14842541  0.41707558  0.66270649  1  0.046805  0  0.088449  0.124544  0  1.012213  0
H  H71  1  0.27394689  0.18794796  0.69632123  1  0.045297  0  0.094416  0.092101  0  1.010729  0
H  H72  1  0.31427807  0.24111132  0.71727803  1  0.030611  0  0.094165  0.09997  0  0.987497  0
H  H73  1  0.23774305  0.32909252  0.57999175  1  0.063355  0  0.101333  0.11744  0  0.97631  0
H  H74  1  0.34579988  0.25439065  0.56950470  1  0.052787  0  0.11075  0.130431  0  0.947666  0
H  H75  1  0.97029832  0.30449634  0.73513911  1  0.038849  0  0.095777  0.144145  0  1.028809  0
H  H76  1  0.98196600  0.33837002  0.79887489  1  0.061235  0  0.099735  0.147873  0  0.997723  0
H  H77  1  0.00559893  0.39127569  0.69616287  1  0.067828  0  0.101818  0.149876  0  0.985238  0
H  H78  1  0.20431489  0.74740517  0.84697718  1  0.095643  0  0.113784  0.1341  0  0.982015  0
H  H79  1  0.25205706  0.82196932  0.77134735  1  0.089715  0  0.105461  0.125481  0  0.962795  0
H  H80  1  0.08041186  0.84394409  0.76261667  1  0.051782  0  0.092798  0.088467  0  1.009607  0
H  H81  1  0.18409140  0.83956601  0.68634308  1  0.032929  0  0.095751  0.094436  0  0.972757  0
H  H82  1  0.06621412  0.77285822  0.69337312  1  0.023601  0  0.087669  0.117342  0  1.011661  0
H  H83  1  0.17784998  0.75603924  0.62854842  1  0.036726  0  0.091894  0.128923  0  0.989413  0
H  H84  1  0.13880934  0.67150064  0.68944741  1  0.03656  0  0.088671  0.126543  0  1.006825  0
H  H85  1  0.28497451  0.66294262  0.78595075  1  0.042759  0  0.09564  0.092616  0  1.00622  0
H  H86  1  0.30626288  0.70122486  0.68229841  1  0.056859  0  0.093137  0.097163  0  0.984447  0
H  H87  1  0.23268406  0.55944736  0.77268261  1  0.027061  0  0.10117  0.117385  0  0.982226  0
H  H88  1  0.34337116  0.53927184  0.76252531  1  0.095018  0  0.111824  0.132795  0  0.945326  0
H  H89  1  0.97999484  0.68774175  0.91823008  1  0.068063  0  0.103928  0.158184  0  0.981049  0
H  H90  1  0.98089060  0.77561658  0.83166423  1  0.06044  0  0.101756  0.151203  0  0.994512  0
H  H91  1  0.99965177  0.68037303  0.82465882  1  0.053151  0  0.102252  0.149676  0  0.987192  0
C  C92  1  0.85151069  0.12454431  0.11003692  1  1.568485  0  0.23187  0.671932  0  4.08728  0
C  C93  1  0.79608908  0.18152896  0.16193392  1  -0.036532  0  -0.161182  -0.299221  0  3.894636  0
C  C94  1  0.81611372  0.14817491  0.23989786  1  -0.052051  0  -0.156181  -0.169341  0  3.8701  0
C  C95  1  0.73348612  0.15826341  0.31555897  1  0.028494  0  -0.019418  0.06577  0  3.810008  0
C  C96  1  0.76762833  0.11808429  0.38682450  1  -0.076448  0  -0.240116  -0.409355  0  3.937452  0
C  C97  1  0.68008923  0.25024689  0.30711177  1  0.016282  0  -0.156111  -0.165823  0  3.878827  0
C  C98  1  0.59064171  0.26623967  0.37517914  1  0.014507  0  -0.162058  -0.291909  0  3.897413  0
C  C99  1  0.57570948  0.32870844  0.40975418  1  1.536344  0  0.225688  0.666342  0  4.097763  0
C  C100  1  0.67689202  0.11478954  0.32172323  1  0.963998  0  0.170311  0.460641  0  3.84191  0
C  C101  1  0.70381613  0.02214876  0.35610689  1  -0.124911  0  -0.24064  -0.494937  0  3.913349  0
C  C102  1  0.84632718  0.85887689  0.11157104  1  1.562782  0  0.23256  0.672202  0  4.093424  0
C  C103  1  0.79633808  0.79822148  0.16300517  1  -0.051833  0  -0.16034  -0.298813  0  3.899155  0
C  C104  1  0.73436425  0.80906602  0.24511232  1  -0.03027  0  -0.156165  -0.169023  0  3.875091  0
C  C105  1  0.73938025  0.72834229  0.31547389  1  0.025482  0  -0.020771  0.064846  0  3.814857  0
C  C106  1  0.67131683  0.75084334  0.39183656  1  -0.061302  0  -0.240528  -0.409934  0  3.937754  0
C  C107  1  0.71783513  0.66930249  0.30097832  1  -0.009229  0  -0.153242  -0.162088  0  3.869104  0
C  C108  1  0.73116785  0.58269729  0.36255678  1  -0.027859  0  -0.162944  -0.294314  0  3.896273  0
C  C109  1  0.64669961  0.56161346  0.40270931  1  1.538742  0  0.226994  0.66645  0  4.106583  0
C  C110  1  0.83588606  0.69040076  0.31703762  1  0.942864  0  0.17049  0.46015  0  3.842107  0
C  C111  1  0.86186143  0.72284668  0.35621824  1  -0.103427  0  -0.241016  -0.49575  0  3.914875  0
C  C112  1  0.12098889  0.84557024  0.11552739  1  1.565173  0  0.228704  0.670215  0  4.106848  0
C  C113  1  0.18564010  0.79525992  0.16212967  1  -0.017167  0  -0.162209  -0.299921  0  3.916882  0
C  C114  1  0.15423599  0.73713559  0.24421357  1  -0.047807  0  -0.153299  -0.166559  0  3.870228  0
C  C115  1  0.18393376  0.73353929  0.30813344  1  0.033369  0  -0.019006  0.06846  0  3.800198  0
C  C116  1  0.16173931  0.66330919  0.38282628  1  -0.060526  0  -0.245509  -0.414413  0  3.933274  0
C  C117  1  0.28446290  0.72103885  0.27442684  1  -0.058954  0  -0.155508  -0.1679  0  3.878574  0
C  C118  1  0.32326009  0.72397038  0.32736470  1  -0.029496  0  -0.160672  -0.289981  0  3.895747  0
C  C119  1  0.36142277  0.64034239  0.38047993  1  1.552821  0  0.228141  0.668659  0  4.093181  0
C  C120  1  0.12945312  0.81838087  0.32239175  1  0.939222  0  0.168878  0.457912  0  3.845552  0
C  C121  1  0.03597399  0.83155382  0.38116558  1  -0.142122  0  -0.24003  -0.492531  0  3.91608  0
C  C122  1  0.88388000  0.10235293  0.83822640  1  1.555011  0  0.231377  0.667667  0  4.10124  0
C  C123  1  0.86909964  0.13995751  0.75841225  1  -0.036871  0  -0.159129  -0.298011  0  3.928111  0
C  C124  1  0.85606761  0.23144423  0.71882754  1  0.000893  0  -0.154237  -0.164552  0  3.888994  0
C  C125  1  0.75916046  0.29213544  0.74242230  1  0.04562  0  -0.020227  0.066287  0  3.797503  0
C  C126  1  0.76279157  0.37996086  0.70041214  1  -0.057995  0  -0.2414  -0.409585  0  3.937744  0
C  C127  1  0.70131631  0.27982599  0.71401114  1  -0.015376  0  -0.155184  -0.165609  0  3.883037  0
C  C128  1  0.60078578  0.33059376  0.74015573  1  -0.043817  0  -0.162472  -0.29512  0  3.895282  0
C  C129  1  0.56567660  0.37211776  0.67101888  1  1.554784  0  0.226828  0.667256  0  4.107607  0
C  C130  1  0.72375368  0.27183547  0.83348772  1  0.941895  0  0.16735  0.459558  0  3.847219  0
C  C131  1  0.74210844  0.31155109  0.87152934  1  -0.110098  0  -0.24279  -0.495998  0  3.917823  0
C  C132  1  0.12777133  0.11059121  0.89447007  1  1.578258  0  0.228419  0.662858  0  4.112841  0
C  C133  1  0.19336083  0.15499876  0.86140954  1  -0.047306  0  -0.158899  -0.293354  0  3.918945  0
C  C134  1  0.15949952  0.24873939  0.83103479  1  -0.021336  0  -0.155222  -0.164171  0  3.891721  0
C  C135  1  0.17086639  0.28891700  0.74078579  1  0.024235  0  -0.019918  0.066845  0  3.785633  0
C  C136  1  0.14867240  0.38131080  0.72379159  1  -0.080503  0  -0.2436  -0.412651  0  3.927609  0
C  C137  1  0.26703495  0.24910620  0.69189636  1  -0.003799  0  -0.163502  -0.183568  0  3.903496  0
C  C138  1  0.29370867  0.29770259  0.60345374  1  -0.028011  0  -0.158589  -0.284179  0  3.900905  0
C  C139  1  0.33494407  0.35844365  0.58665979  1  1.546504  0  0.224649  0.65947  0  4.10197  0
C  C140  1  0.10574771  0.27367522  0.72335692  1  0.971584  0  0.169007  0.469673  0  3.831744  0
C  C141  1  0.00963577  0.33011060  0.73991322  1  -0.117615  0  -0.242852  -0.497443  0  3.918262  0
C  C142  1  0.12644542  0.86530766  0.85439210  1  1.546202  0  0.228985  0.668539  0  4.107366  0
C  C143  1  0.18941416  0.80869194  0.80326587  1  -0.073155  0  -0.161486  -0.298696  0  3.908144  0
C  C144  1  0.15217352  0.80846652  0.74822073  1  -0.03424  0  -0.154852  -0.166093  0  3.879943  0
C  C145  1  0.16668876  0.72125673  0.75159366  1  0.026544  0  -0.020703  0.066504  0  3.809904  0
C  C146  1  0.13518199  0.73059349  0.68754192  1  -0.088226  0  -0.241693  -0.409495  0  3.930563  0
C  C147  1  0.26596619  0.66892811  0.73836516  1  -0.026033  0  -0.161548  -0.175242  0  3.899878  0
C  C148  1  0.28916820  0.58217738  0.73680559  1  -0.020895  0  -0.160098  -0.288318  0  3.906699  0
C  C149  1  0.32511466  0.57464181  0.65442911  1  1.529325  0  0.224231  0.658428  0  4.101244  0
C  C150  1  0.11068478  0.68400504  0.83598587  1  0.947796  0  0.168797  0.460048  0  3.843555  0
C  C151  1  0.01153187  0.70870962  0.85405247  1  -0.0991  0  -0.239787  -0.495512  0  3.916318  0
O  O152  1  0.98247883  0.98878950  0.99009492  1  -1.203961  0  -0.574209  -1.031025  0  2.558486  0
O  O153  1  0.86475886  0.15839602  0.03562169  1  -1.181003  0  -0.323475  -0.565578  0  2.297695  0
O  O154  1  0.87815368  0.04758241  0.14507253  1  -1.192287  0  -0.319124  -0.555566  0  2.329997  0
O  O155  1  0.57685410  0.30216493  0.48082437  1  -1.184999  0  -0.330591  -0.575153  0  2.29805  0
O  O156  1  0.56373529  0.40300449  0.36497833  1  -1.174524  0  -0.32226  -0.553072  0  2.275408  0
O  O157  1  0.61317484  0.15404560  0.29640056  1  -1.11449  0  -0.271801  -0.41933  0  2.053015  0
O  O158  1  0.87134556  0.87260587  0.03681228  1  -1.158037  0  -0.321801  -0.557354  0  2.297932  0
O  O159  1  0.86206308  0.88886569  0.14685120  1  -1.188502  0  -0.320068  -0.557618  0  2.334675  0
O  O160  1  0.59726426  0.57561406  0.46981086  1  -1.177976  0  -0.326392  -0.5649  0  2.304219  0
O  O161  1  0.63042733  0.53362251  0.36607025  1  -1.172799  0  -0.321375  -0.558222  0  2.287927  0
O  O162  1  0.89163824  0.63663434  0.28487666  1  -1.106426  0  -0.271708  -0.41727  0  2.049497  0
O  O163  1  0.15579260  0.85841033  0.04075205  1  -1.192766  0  -0.325498  -0.562229  0  2.320721  0
O  O164  1  0.03836198  0.87478747  0.15325730  1  -1.183471  0  -0.322231  -0.556741  0  2.294764  0
O  O165  1  0.31322672  0.62091250  0.45296848  1  -1.185575  0  -0.320177  -0.560075  0  2.325897  0
O  O166  1  0.43895777  0.59544229  0.34801505  1  -1.188681  0  -0.326339  -0.569774  0  2.289806  0
O  O167  1  0.15959691  0.87524652  0.28494312  1  -1.110785  0  -0.27525  -0.422878  0  2.052366  0
O  O168  1  0.88037170  0.02991746  0.87553980  1  -1.187452  0  -0.326954  -0.565851  0  2.317422  0
O  O169  1  0.90138496  0.14393214  0.86023195  1  -1.174657  0  -0.310655  -0.546538  0  2.334124  0
O  O170  1  0.54756402  0.44981497  0.64183298  1  -1.19976  0  -0.323951  -0.568866  0  2.307678  0
O  O171  1  0.55987938  0.32535230  0.64567508  1  -1.173575  0  -0.323596  -0.554625  0  2.28765  0
O  O172  1  0.68250810  0.22316384  0.87397561  1  -1.101155  0  -0.273063  -0.415545  0  2.041834  0
O  O173  1  0.16210039  0.03242772  0.91705109  1  -1.188004  0  -0.328697  -0.565993  0  2.333601  0
O  O174  1  0.04614718  0.15194148  0.89921186  1  -1.180273  0  -0.311582  -0.54764  0  2.307809  0
O  O175  1  0.30413005  0.43315600  0.54673180  1  -1.173419  0  -0.32474  -0.560327  0  2.274841  0
O  O176  1  0.39878946  0.32981321  0.61394748  1  -1.190439  0  -0.327714  -0.573493  0  2.314709  0
O  O177  1  0.13080416  0.21734366  0.69674476  1  -1.10375  0  -0.277659  -0.42069  0  2.036477  0
O  O178  1  0.16237371  0.89885658  0.86765999  1  -1.167546  0  -0.325979  -0.557787  0  2.315278  0
O  O179  1  0.04410899  0.87231473  0.88284127  1  -1.184828  0  -0.317795  -0.556357  0  2.308528  0
O  O180  1  0.29126650  0.53970998  0.64028039  1  -1.156373  0  -0.320999  -0.554547  0  2.273376  0
O  O181  1  0.38931611  0.60209022  0.60431974  1  -1.204487  0  -0.336963  -0.581839  0  2.293652  0
O  O182  1  0.14537828  0.63737207  0.88819514  1  -1.108578  0  -0.274489  -0.421693  0  2.049411  0
O  O183  1  0.47353950  0.47585093  0.51068159  1  -1.233839  0  -0.580891  -1.037944  0  2.573284  0
