# generated using pymatgen
data_CuH10C12N2(ClO3)2
_symmetry_space_group_name_H-M   'P 1'
_cell_length_a   10.84992375
_cell_length_b   10.99457163
_cell_length_c   14.15874937
_cell_angle_alpha   112.85234336
_cell_angle_beta   93.62105555
_cell_angle_gamma   90.00587553
_symmetry_Int_Tables_number   1
_chemical_formula_structural   CuH10C12N2(ClO3)2
_chemical_formula_sum   'Cu4 H40 C48 N8 Cl8 O24'
_cell_volume   1552.76470934
_cell_formula_units_Z   4
loop_
 _symmetry_equiv_pos_site_id
 _symmetry_equiv_pos_as_xyz
  1  'x, y, z'
loop_
 _atom_site_type_symbol
 _atom_site_label
 _atom_site_symmetry_multiplicity
 _atom_site_fract_x
 _atom_site_fract_y
 _atom_site_fract_z
 _atom_site_occupancy
 _atom_site_pbe_bader_charge
 _atom_site_pbe_bader_spin_density
 _atom_site_pbe_cm5_charge
 _atom_site_pbe_ddec_charge
 _atom_site_pbe_ddec_spin_density
 _atom_site_pbe_ddec_sum_bond_order
 _atom_site_pbe_magmom
Cu  Cu0  1  0.25004075  0.16017131  0.00001577  1  1.10128  -0.587205  0.733153  0.793376  -0.768217  2.21863  -0.586
Cu  Cu1  1  0.74992958  0.83981737  0.99999180  1  1.100366  0.584551  0.732427  0.792261  0.764881  2.219135  0.583
Cu  Cu2  1  0.49999189  0.00000763  0.50001342  1  1.103707  0.584145  0.743629  0.812544  0.76673  2.209708  0.583
Cu  Cu3  1  0.99997575  0.50000696  0.49999618  1  1.101998  -0.582012  0.743781  0.81207  -0.763729  2.209859  -0.58
H  H4  1  0.00385466  0.14565632  0.06445352  1  0.622775  1.2e-05  0.283048  0.381454  8e-06  0.954418  0.0
H  H5  1  0.49610298  0.08118908  0.93555619  1  0.628915  1.2e-05  0.282648  0.38109  5e-06  0.955191  0.0
H  H6  1  0.99616170  0.85434642  0.93552575  1  0.622503  -1.3e-05  0.282912  0.381271  -6e-06  0.954659  0.0
H  H7  1  0.50388442  0.91883956  0.06446863  1  0.628674  -1.2e-05  0.282489  0.380758  -8e-06  0.95556  0.0
H  H8  1  0.02546859  0.08647157  0.94849724  1  0.626958  1e-06  0.277593  0.362807  5.8e-05  0.988089  0.0
H  H9  1  0.47456383  0.13790926  0.05153376  1  0.627629  8e-06  0.277109  0.36234  7e-05  0.988898  0.0
H  H10  1  0.97455074  0.91352157  0.05148131  1  0.627061  -8e-06  0.277335  0.36253  -7e-05  0.988482  0.0
H  H11  1  0.52541650  0.86210516  0.94849066  1  0.627868  -1e-06  0.277116  0.362245  -5.8e-05  0.988979  0.0
H  H12  1  0.34669295  0.74208981  0.47479813  1  0.605556  -4.4e-05  0.282369  0.378352  1.7e-05  0.952465  0.0
H  H13  1  0.15330757  0.26726627  0.52518726  1  0.607977  5e-05  0.2826  0.379087  -8e-06  0.951504  0.0
H  H14  1  0.65334541  0.25789261  0.52519242  1  0.6054  -5.4e-05  0.282449  0.378546  7e-06  0.952295  0.0
H  H15  1  0.84664493  0.73273055  0.47481660  1  0.608526  4.4e-05  0.282585  0.379023  -1.7e-05  0.951575  0.0
H  H16  1  0.49344889  0.73635249  0.47480752  1  0.618227  1.6e-05  0.281943  0.368095  -1.7e-05  0.968187  0.0
H  H17  1  0.00656212  0.26150601  0.52517602  1  0.624496  1.1e-05  0.282098  0.368489  5.1e-05  0.967221  0.0
H  H18  1  0.50659200  0.26367079  0.52521004  1  0.618445  -9e-06  0.281872  0.367969  -4.9e-05  0.968277  0.0
H  H19  1  0.99339167  0.73849401  0.47480934  1  0.624085  -1.6e-05  0.281978  0.368373  1.7e-05  0.967512  0.0
H  H20  1  0.10367409  0.37391298  0.98006737  1  0.148334  -0.002095  0.110819  0.093116  -0.000988  1.054321  -0.001
H  H21  1  0.39628142  0.39396896  0.01988148  1  0.149712  -0.002101  0.110773  0.092966  -0.000989  1.054104  -0.001
H  H22  1  0.89631599  0.62609596  0.01993679  1  0.14854  0.00208  0.110769  0.093033  0.000981  1.054295  0.001
H  H23  1  0.60373168  0.60603111  0.98011188  1  0.149755  0.002086  0.110715  0.092796  0.000983  1.054237  0.001
H  H24  1  0.20493874  0.42002288  0.70512865  1  0.123285  7e-05  0.110717  0.123225  5.1e-05  1.024918  0.0
H  H25  1  0.29506577  0.71494731  0.29490877  1  0.108014  -0.000154  0.110962  0.123793  -6.6e-05  1.024875  0.0
H  H26  1  0.79507585  0.57996213  0.29487335  1  0.122931  0.000164  0.110708  0.123293  7e-05  1.024963  0.0
H  H27  1  0.70492078  0.28504394  0.70508561  1  0.108852  -6.9e-05  0.11098  0.123789  -5e-05  1.024935  0.0
H  H28  1  0.33309341  0.09989767  0.78641517  1  0.167041  -0.001627  0.126395  0.113512  -0.000685  0.993086  -0.002
H  H29  1  0.16687021  0.31348625  0.21349771  1  0.165829  -0.001973  0.126565  0.113473  -0.001039  0.992667  -0.002
H  H30  1  0.66693420  0.90012116  0.21362063  1  0.166945  0.001947  0.126415  0.113468  0.001029  0.993198  0.002
H  H31  1  0.83310174  0.68651369  0.78647574  1  0.165458  0.0016  0.12667  0.113554  0.00067  0.992574  0.002
H  H32  1  0.09901845  0.00362330  0.20364798  1  0.189862  -0.000289  0.116987  0.146445  -0.000283  1.030386  0.0
H  H33  1  0.40090510  0.79998721  0.79642218  1  0.191213  -0.000402  0.116838  0.146354  -0.000303  1.030416  0.0
H  H34  1  0.90099034  0.99635139  0.79633482  1  0.189029  0.000401  0.117053  0.14656  0.000303  1.03042  0.0
H  H35  1  0.59907589  0.19999948  0.20360316  1  0.191862  0.000292  0.116879  0.146454  0.000281  1.030299  0.0
H  H36  1  0.22954292  0.93594140  0.47380332  1  0.140084  0.002274  0.125414  0.119319  0.001067  0.987387  0.002
H  H37  1  0.27031248  0.46218845  0.52619908  1  0.156545  -0.002256  0.125583  0.119278  -0.001064  0.987464  -0.002
H  H38  1  0.77043149  0.06407813  0.52621141  1  0.140117  0.002283  0.125463  0.119294  0.001071  0.987572  0.002
H  H39  1  0.72972608  0.53781958  0.47378647  1  0.156943  -0.002254  0.12563  0.119387  -0.001065  0.987411  -0.002
H  H40  1  0.48325159  0.04971780  0.31380905  1  0.145631  0.002213  0.126091  0.114554  0.001103  1.001446  0.002
H  H41  1  0.01668141  0.73603120  0.68623577  1  0.14414  -0.002129  0.126101  0.115116  -0.00102  1.001097  -0.002
H  H42  1  0.51675829  0.95029727  0.68621606  1  0.144405  0.002122  0.126054  0.114515  0.001017  1.001461  0.002
H  H43  1  0.98334252  0.26394309  0.31372495  1  0.14331  -0.002226  0.126146  0.115216  -0.001105  1.000951  -0.002
C  C44  1  0.15308987  0.34301502  0.91037174  1  0.526274  0.000131  0.040625  0.023247  -0.000846  3.928663  0.0
C  C45  1  0.34689968  0.43272725  0.08960081  1  0.572918  0.001683  0.041826  0.025225  0.000237  3.92632  0.001
C  C46  1  0.84691051  0.65699590  0.08963935  1  0.526496  -0.001701  0.040764  0.023389  -0.000269  3.928551  -0.001
C  C47  1  0.65310526  0.56726480  0.91039143  1  0.5732  -8.8e-05  0.041952  0.025441  0.000887  3.926416  0.0
C  C48  1  0.14793921  0.41422799  0.84751702  1  0.037678  -0.003907  0.015759  0.096629  -0.002617  4.070963  -0.003
C  C49  1  0.35210639  0.56680317  0.15251237  1  -0.022607  -0.005716  0.015306  0.096218  -0.003752  4.06858  -0.004
C  C50  1  0.85206024  0.58576454  0.15247767  1  0.037387  0.005656  0.01563  0.096501  0.003738  4.071078  0.004
C  C51  1  0.64790352  0.43318794  0.84749275  1  -0.022568  0.003943  0.015264  0.096214  0.002608  4.068732  0.003
C  C52  1  0.20764617  0.36752687  0.75644369  1  0.02117  0.004129  -0.06899  -0.115861  0.002815  3.923805  0.003
C  C53  1  0.29240719  0.61112669  0.24359219  1  0.046076  0.0028  -0.068914  -0.116149  0.001901  3.92415  0.002
C  C54  1  0.79237111  0.63245963  0.24355684  1  0.020933  -0.002798  -0.0689  -0.115978  -0.001897  3.923681  -0.002
C  C55  1  0.70758883  0.38886022  0.75640775  1  0.046123  -0.004051  -0.068744  -0.116011  -0.00276  3.923666  -0.003
C  C56  1  0.27303874  0.25116541  0.73182640  1  0.004212  0.005248  -0.015318  -0.061271  0.003675  3.964607  0.004
C  C57  1  0.22701731  0.51935780  0.26818216  1  0.002878  -0.015729  -0.014892  -0.061411  -0.010981  3.964487  -0.012
C  C58  1  0.72698233  0.74884532  0.26819931  1  0.005288  0.015834  -0.01528  -0.060988  0.011031  3.964011  0.013
C  C59  1  0.77298370  0.48063320  0.73180015  1  0.000567  -0.005121  -0.014941  -0.061528  -0.003585  3.96415  -0.004
C  C60  1  0.27949126  0.18820745  0.80090292  1  0.484928  0.000877  0.050858  0.068287  -3.1e-05  3.898456  0.0
C  C61  1  0.22051485  0.38731912  0.19904924  1  0.478602  0.0018  0.050622  0.06873  0.000585  3.897036  0.001
C  C62  1  0.72053238  0.81181313  0.19912376  1  0.484956  -0.001804  0.050694  0.068024  -0.00057  3.8982  -0.001
C  C63  1  0.77947494  0.61267832  0.80093357  1  0.479344  -0.000892  0.050513  0.068573  -7e-06  3.896668  0.0
C  C64  1  0.33836327  0.19857377  0.63319217  1  1.587495  -0.001855  0.204645  0.564121  0.00012  4.232648  -0.003
C  C65  1  0.16169847  0.56537680  0.36683206  1  1.609743  5.6e-05  0.204552  0.564557  -0.001315  4.23214  0.002
C  C66  1  0.66166141  0.80142507  0.36681971  1  1.586468  -8e-05  0.204625  0.563972  0.001342  4.231412  -0.002
C  C67  1  0.83826179  0.43461648  0.63314754  1  1.610218  0.001856  0.204691  0.564555  -9.4e-05  4.230787  0.003
C  C68  1  0.32825359  0.06733750  0.16018170  1  1.613293  0.002299  0.220084  0.579519  0.000381  4.194959  0.004
C  C69  1  0.17179820  0.90726196  0.83990055  1  1.619073  0.000413  0.220531  0.579634  -0.000946  4.193428  0.002
C  C70  1  0.67174231  0.93268037  0.83984126  1  1.613621  -0.000377  0.219926  0.579437  0.000955  4.195791  -0.002
C  C71  1  0.82823136  0.09273593  0.16008473  1  1.619147  -0.002317  0.220516  0.579503  -0.000387  4.193232  -0.004
C  C72  1  0.29517186  0.02847796  0.24643965  1  0.007604  -0.003853  -0.00656  -0.05388  -0.002772  3.94777  -0.003
C  C73  1  0.20476067  0.78211487  0.75361865  1  -0.065225  -0.015758  -0.006931  -0.052731  -0.010884  3.946598  -0.012
C  C74  1  0.70482669  0.97152443  0.75356489  1  0.007784  0.015586  -0.006644  -0.05394  0.010909  3.947498  0.012
C  C75  1  0.79522505  0.21787500  0.24637830  1  -0.065527  0.003831  -0.006683  -0.052182  0.002792  3.946466  0.003
C  C76  1  0.17328922  0.99786599  0.25702667  1  0.025635  -0.003537  -0.059711  -0.100678  -0.002472  3.861683  -0.002
C  C77  1  0.32663407  0.74088547  0.74303390  1  0.013624  0.004335  -0.05972  -0.101247  0.00291  3.861294  0.003
C  C78  1  0.82670972  0.00211764  0.74297590  1  0.026711  -0.004367  -0.059743  -0.100767  -0.002938  3.861647  -0.003
C  C79  1  0.67335947  0.25910294  0.25697837  1  0.012946  0.003533  -0.059744  -0.101441  0.002472  3.861718  0.002
C  C80  1  0.14934058  0.96303604  0.33883684  1  0.018009  0.005362  0.021583  0.116216  0.003626  4.041437  0.004
C  C81  1  0.35054766  0.62421936  0.66119455  1  0.024422  -0.005694  0.021743  0.116046  -0.003747  4.041793  -0.005
C  C82  1  0.85064797  0.03695965  0.66116790  1  0.017651  0.005722  0.021646  0.11626  0.003771  4.041293  0.005
C  C83  1  0.64945277  0.37578313  0.33881108  1  0.024541  -0.005347  0.021871  0.115981  -0.003611  4.042039  -0.004
C  C84  1  0.24533517  0.96209738  0.40881362  1  0.528152  -0.000453  0.046243  0.016167  0.000643  3.921355  0.0
C  C85  1  0.25455261  0.55335573  0.59121233  1  0.535043  0.001733  0.045609  0.015856  0.000216  3.922941  0.001
C  C86  1  0.75465963  0.03791678  0.59119872  1  0.527951  -0.001727  0.045997  0.015902  -0.000225  3.921652  -0.001
C  C87  1  0.74546411  0.44664023  0.40877496  1  0.534888  0.000516  0.045649  0.015978  -0.000614  3.922872  0.0
C  C88  1  0.38747491  0.02494654  0.31843399  1  0.515598  -0.002304  0.056025  0.077697  -0.00086  3.879431  -0.002
C  C89  1  0.11245406  0.70661639  0.68160473  1  0.582402  0.001171  0.056457  0.076587  5.6e-05  3.880673  0.001
C  C90  1  0.61252085  0.97506275  0.68157547  1  0.516721  -0.000959  0.056105  0.077918  -2.4e-05  3.879639  -0.001
C  C91  1  0.88756649  0.29336149  0.31837141  1  0.584434  0.002319  0.056389  0.076242  0.000824  3.881433  0.002
N  N92  1  0.22073518  0.23407599  0.88819822  1  -1.218131  -0.079293  -0.336752  -0.212539  -0.054163  3.611457  -0.068
N  N93  1  0.27925420  0.34594547  0.11174831  1  -1.207401  -0.07976  -0.337483  -0.213885  -0.054578  3.612434  -0.069
N  N94  1  0.77928444  0.76594558  0.11181662  1  -1.218765  0.079327  -0.33666  -0.212365  0.054196  3.611196  0.068
N  N95  1  0.72073853  0.65405292  0.88824138  1  -1.207826  0.078795  -0.337529  -0.213737  0.053947  3.611953  0.068
N  N96  1  0.36188897  0.99324255  0.39769181  1  -1.199919  0.082032  -0.345791  -0.205639  0.056049  3.640228  0.071
N  N97  1  0.13800920  0.59565163  0.60232415  1  -1.21769  -0.08415  -0.345806  -0.20524  -0.057419  3.64184  -0.073
N  N98  1  0.63810240  0.00675682  0.60231760  1  -1.200818  0.084632  -0.346082  -0.206009  0.057754  3.640539  0.073
N  N99  1  0.86199557  0.40431559  0.39763935  1  -1.217568  -0.081544  -0.345439  -0.204691  -0.055702  3.642623  -0.071
Cl  Cl100  1  0.07402722  0.56242524  0.88738509  1  -0.16958  -0.001714  0.036544  -0.012342  -0.001099  1.641783  -0.001
Cl  Cl101  1  0.42599196  0.67518529  0.11267860  1  -0.166429  -0.002931  0.036429  -0.012597  -0.001944  1.640769  -0.002
Cl  Cl102  1  0.92593796  0.43754942  0.11258974  1  -0.16879  0.002895  0.036532  -0.012322  0.001921  1.641695  0.002
Cl  Cl103  1  0.57404220  0.32481134  0.88734094  1  -0.166775  0.001661  0.036362  -0.012676  0.001061  1.640873  0.001
Cl  Cl104  1  0.00083824  0.92152613  0.35429085  1  -0.199351  0.002848  0.015074  -0.053805  0.001906  1.576328  0.002
Cl  Cl105  1  0.49901696  0.56718466  0.64575480  1  -0.198647  -0.003086  0.014897  -0.053563  -0.002056  1.57623  -0.002
Cl  Cl106  1  0.99915466  0.07846252  0.64569699  1  -0.199435  0.003096  0.01492  -0.053933  0.002064  1.576001  0.002
Cl  Cl107  1  0.50098748  0.43281401  0.35425983  1  -0.198627  -0.002839  0.015021  -0.053347  -0.001899  1.576305  -0.002
O  O108  1  0.32881583  0.25968620  0.57421659  1  -1.165948  0.000125  -0.316219  -0.555382  -0.000156  2.17764  0.0
O  O109  1  0.17124272  0.68548843  0.42580633  1  -1.18894  -0.003262  -0.316116  -0.555847  -0.001838  2.177874  -0.003
O  O110  1  0.67118881  0.74029216  0.42578763  1  -1.165723  0.003243  -0.315826  -0.554869  0.001818  2.177214  0.003
O  O111  1  0.82870140  0.31450379  0.57415544  1  -1.188319  0.000172  -0.315994  -0.555599  0.000345  2.177282  0.0
O  O112  1  0.39869209  0.09330157  0.61938979  1  -1.120619  0.098463  -0.317479  -0.540835  0.064814  2.38805  0.09
O  O113  1  0.10140558  0.47388628  0.38064891  1  -1.12234  -0.098307  -0.31721  -0.540582  -0.064742  2.386556  -0.09
O  O114  1  0.60131839  0.90672529  0.38063329  1  -1.119843  0.098778  -0.317498  -0.540828  0.065002  2.386981  0.09
O  O115  1  0.89856692  0.52610920  0.61930627  1  -1.121774  -0.097842  -0.317177  -0.54045  -0.064467  2.385882  -0.089
O  O116  1  0.23655400  0.08971247  0.10857729  1  -1.117221  -0.101556  -0.310241  -0.509754  -0.066632  2.373712  -0.092
O  O117  1  0.26356613  0.98113565  0.89152744  1  -1.120257  -0.103211  -0.310857  -0.510547  -0.067737  2.373755  -0.094
O  O118  1  0.76343865  0.91033102  0.89144955  1  -1.117595  0.102616  -0.310446  -0.510065  0.067322  2.374269  0.093
O  O119  1  0.73644309  0.01887258  0.10846617  1  -1.119191  0.101103  -0.310566  -0.510134  0.066387  2.373493  0.092
O  O120  1  0.44127330  0.07600202  0.14598206  1  -1.187206  -0.000761  -0.300781  -0.551848  -0.000249  2.26342  -0.001
O  O121  1  0.05880858  0.93027148  0.85412153  1  -1.185374  -0.00144  -0.300961  -0.551904  -0.00063  2.262557  -0.002
O  O122  1  0.55872884  0.92402232  0.85403750  1  -1.187516  0.001453  -0.30093  -0.552052  0.000641  2.263827  0.002
O  O123  1  0.94121589  0.06975547  0.14587108  1  -1.18602  0.000772  -0.300822  -0.551644  0.000258  2.262614  0.001
O  O124  1  0.02541384  0.17211748  0.00841295  1  -1.255893  0.001651  -0.614496  -0.790429  0.000966  2.048243  0.0
O  O125  1  0.47454877  0.16367192  0.99164154  1  -1.262258  0.001686  -0.61372  -0.789818  0.000974  2.049344  0.001
O  O126  1  0.97461842  0.82787484  0.99156480  1  -1.255789  -0.001763  -0.614141  -0.78998  -0.001026  2.048272  -0.001
O  O127  1  0.52543694  0.83635040  0.00838387  1  -1.262332  -0.001706  -0.613556  -0.789256  -0.001002  2.049507  -0.001
O  O128  1  0.42435225  0.78823458  0.50984859  1  -1.225527  -0.001325  -0.59489  -0.781488  -0.00086  2.031288  0.0
O  O129  1  0.07565938  0.27837971  0.49015050  1  -1.234639  0.001324  -0.595187  -0.782162  0.000855  2.030875  0.0
O  O130  1  0.57566786  0.21176125  0.49016225  1  -1.225682  -0.001329  -0.594939  -0.78153  -0.000861  2.031213  0.0
O  O131  1  0.92430781  0.72159728  0.50983258  1  -1.234794  0.00132  -0.595035  -0.782059  0.000853  2.030902  0.0
