# generated using pymatgen
data_CaH4C4S(NO3)2
_symmetry_space_group_name_H-M   'P 1'
_cell_length_a   6.78148488
_cell_length_b   9.05076800
_cell_length_c   14.60540110
_cell_angle_alpha   103.17529615
_cell_angle_beta   90.01739786
_cell_angle_gamma   112.02251784
_symmetry_Int_Tables_number   1
_chemical_formula_structural   CaH4C4S(NO3)2
_chemical_formula_sum   'Ca4 H16 C16 S4 N8 O24'
_cell_volume   805.50083661
_cell_formula_units_Z   4
loop_
 _symmetry_equiv_pos_site_id
 _symmetry_equiv_pos_as_xyz
  1  'x, y, z'
loop_
 _atom_site_type_symbol
 _atom_site_label
 _atom_site_symmetry_multiplicity
 _atom_site_fract_x
 _atom_site_fract_y
 _atom_site_fract_z
 _atom_site_occupancy
 _atom_site_hle17_bader_spin_density
 _atom_site_hle17_ddec_charge
 _atom_site_hle17_ddec_spin_density
 _atom_site_hle17_ddec_sum_bond_order
 _atom_site_hle17_magmom
 _atom_site_hse06_10hf_bader_spin_density
 _atom_site_hse06_10hf_ddec_charge
 _atom_site_hse06_10hf_ddec_spin_density
 _atom_site_hse06_10hf_ddec_sum_bond_order
 _atom_site_hse06_10hf_magmom
 _atom_site_hse06_bader_spin_density
 _atom_site_hse06_ddec_charge
 _atom_site_hse06_ddec_spin_density
 _atom_site_hse06_ddec_sum_bond_order
 _atom_site_hse06_magmom
 _atom_site_pbe_bader_spin_density
 _atom_site_pbe_cm5_charge
 _atom_site_pbe_ddec_charge
 _atom_site_pbe_ddec_spin_density
 _atom_site_pbe_ddec_sum_bond_order
 _atom_site_pbe_magmom
Ca  Ca0  1  0.09459787  0.76832161  0.77140063  1  0  1.557201  0  1.077932  0  0  1.420564  0  1.426726  0  0  1.464528  0  1.381234  0  0  0.890102  1.387488  0  1.459098  0
Ca  Ca1  1  0.32583813  0.23162957  0.72856990  1  0  1.556966  0  1.078062  0  0  1.420415  0  1.426637  0  0  1.464366  0  1.381163  0  0  0.88995  1.387344  0  1.458988  0
Ca  Ca2  1  0.90540578  0.23167926  0.22859930  1  0  1.557234  0  1.077864  0  0  1.420541  0  1.426741  0  0  1.464503  0  1.381251  0  0  0.890073  1.387454  0  1.459105  0
Ca  Ca3  1  0.67416109  0.76837130  0.27143071  1  0  1.556942  0  1.07811  0  0  1.420468  0  1.426557  0  0  1.464417  0  1.381083  0  0  0.889917  1.387386  0  1.458912  0
H  H4  1  0.11197449  0.61688701  0.57958028  1  0  0.414491  0  0.902194  0  0  0.378405  0  0.97454  0  0  0.390715  0  0.956719  0  0  0.290155  0.369803  0  0.986958  0
H  H5  1  0.49464807  0.38314114  0.92046998  1  0  0.414818  0  0.901442  0  0  0.378644  0  0.973932  0  0  0.390984  0  0.956079  0  0  0.290137  0.37001  0  0.986389  0
H  H6  1  0.88803235  0.38311141  0.42041930  1  0  0.414483  0  0.902209  0  0  0.378407  0  0.974538  0  0  0.390717  0  0.956717  0  0  0.290147  0.369805  0  0.986957  0
H  H7  1  0.50535410  0.61685973  0.07952927  1  0  0.414809  0  0.901441  0  0  0.378638  0  0.973935  0  0  0.390979  0  0.956081  0  0  0.290123  0.37  0  0.9864  0
H  H8  1  0.96503309  0.41733496  0.78411113  1  0  0.421966  0  0.882084  0  0  0.391508  0  0.946185  0  0  0.403327  0  0.928773  0  0  0.299654  0.383087  0  0.95856  0
H  H9  1  0.54822525  0.58271583  0.71586137  1  0  0.421326  0  0.882996  0  0  0.391433  0  0.946  0  0  0.403223  0  0.928649  0  0  0.299661  0.383027  0  0.958351  0
H  H10  1  0.03496380  0.58266715  0.21588624  1  0  0.421985  0  0.882053  0  0  0.391527  0  0.946152  0  0  0.403347  0  0.928739  0  0  0.299657  0.383108  0  0.958521  0
H  H11  1  0.45177373  0.41728749  0.28414301  1  0  0.421347  0  0.882984  0  0  0.391451  0  0.945989  0  0  0.403242  0  0.928636  0  0  0.299645  0.383046  0  0.958336  0
H  H12  1  0.79837557  0.48068131  0.83654981  1  0  0.4184  0  0.885704  0  0  0.387459  0  0.951098  0  0  0.398438  0  0.93492  0  0  0.294623  0.379669  0  0.962556  0
H  H13  1  0.31807042  0.51931145  0.66342028  1  0  0.417993  0  0.88638  0  0  0.387465  0  0.951284  0  0  0.398419  0  0.935117  0  0  0.294462  0.379693  0  0.96273  0
H  H14  1  0.20162132  0.51932080  0.16344824  1  0  0.418353  0  0.885764  0  0  0.387445  0  0.951111  0  0  0.398422  0  0.934936  0  0  0.294593  0.37965  0  0.962574  0
H  H15  1  0.68193027  0.48068942  0.33658170  1  0  0.417973  0  0.886404  0  0  0.387444  0  0.951315  0  0  0.398399  0  0.935146  0  0  0.294465  0.379672  0  0.962761  0
H  H16  1  0.98487510  0.44439722  0.60273860  1  0  0.443542  0  0.838664  0  0  0.414017  0  0.90095  0  0  0.424067  0  0.886238  0  0  0.310794  0.406836  0  0.911477  0
H  H17  1  0.54006950  0.55556225  0.89722723  1  0  0.444256  0  0.838374  0  0  0.414582  0  0.900438  0  0  0.424663  0  0.885659  0  0  0.311046  0.407366  0  0.911038  0
H  H18  1  0.01512941  0.55560242  0.39726252  1  0  0.443557  0  0.838675  0  0  0.41403  0  0.900942  0  0  0.42408  0  0.88623  0  0  0.310812  0.406846  0  0.911473  0
H  H19  1  0.45993390  0.44444108  0.10277510  1  0  0.444291  0  0.838326  0  0  0.414615  0  0.900396  0  0  0.424696  0  0.885617  0  0  0.311066  0.407397  0  0.910997  0
C  C20  1  0.36876449  0.16317099  0.17187895  1  0  0.710531  0  3.887351  0  0  0.65373  0  4.192817  0  0  0.689925  0  4.179428  0  0  0.248917  0.628872  0  4.201324  0
C  C21  1  0.20603083  0.83671364  0.32816992  1  0  0.709932  0  3.8884  0  0  0.652202  0  4.19499  0  0  0.688364  0  4.181746  0  0  0.2483  0.627299  0  4.203517  0
C  C22  1  0.63123683  0.83683111  0.82812184  1  0  0.710432  0  3.887657  0  0  0.653754  0  4.192951  0  0  0.689952  0  4.179556  0  0  0.248915  0.6289  0  4.201459  0
C  C23  1  0.79396740  0.16328231  0.67182862  1  0  0.709951  0  3.888474  0  0  0.652226  0  4.195053  0  0  0.688381  0  4.181813  0  0  0.248321  0.627322  0  4.203582  0
C  C24  1  0.30685276  0.12232996  0.94373245  1  0  0.659524  0  3.908315  0  0  0.603213  0  4.217593  0  0  0.636609  0  4.210288  0  0  0.228253  0.580588  0  4.221931  0
C  C25  1  0.18445724  0.87760082  0.55630119  1  0  0.659786  0  3.906742  0  0  0.603484  0  4.215927  0  0  0.636856  0  4.208648  0  0  0.228387  0.580859  0  4.220244  0
C  C26  1  0.69314671  0.87766847  0.05626166  1  0  0.659497  0  3.908273  0  0  0.603237  0  4.217457  0  0  0.636633  0  4.21015  0  0  0.228242  0.580615  0  4.221794  0
C  C27  1  0.81555120  0.12240374  0.44369926  1  0  0.65979  0  3.906885  0  0  0.603522  0  4.216031  0  0  0.636891  0  4.208751  0  0  0.228381  0.580895  0  4.22035  0
C  C28  1  0.23617666  0.99052246  0.99664956  1  0  0.032742  0  3.723189  0  0  0.024544  0  3.987874  0  0  0.023724  0  4.003809  0  0  0.109704  0.024722  0  3.977612  0
C  C29  1  0.24561536  0.00936233  0.50337138  1  0  0.034293  0  3.721942  0  0  0.025716  0  3.986412  0  0  0.024969  0  4.002249  0  0  0.110268  0.025907  0  3.976136  0
C  C30  1  0.76382490  0.00947718  0.00335020  1  0  0.032823  0  3.723192  0  0  0.024624  0  3.987885  0  0  0.023808  0  4.00382  0  0  0.109721  0.024805  0  3.977612  0
C  C31  1  0.75438644  0.99063486  0.49662597  1  0  0.034381  0  3.721949  0  0  0.025773  0  3.986416  0  0  0.025036  0  4.002238  0  0  0.110301  0.025965  0  3.976142  0
C  C32  1  0.26509233  0.00608756  0.09575991  1  0  0.071867  0  3.661933  0  0  0.065828  0  3.929305  0  0  0.068073  0  3.94071  0  0  0.130548  0.063949  0  3.922187  0
C  C33  1  0.25939004  0.99375094  0.40429113  1  0  0.069906  0  3.66371  0  0  0.06488  0  3.929999  0  0  0.067078  0  3.941456  0  0  0.130117  0.063027  0  3.922856  0
C  C34  1  0.73490898  0.99391454  0.90424088  1  0  0.071865  0  3.661946  0  0  0.065748  0  3.929367  0  0  0.06798  0  3.940796  0  0  0.130569  0.063863  0  3.922255  0
C  C35  1  0.74060857  0.00624871  0.59570863  1  0  0.069799  0  3.663744  0  0  0.064798  0  3.929999  0  0  0.067  0  3.941449  0  0  0.130065  0.062941  0  3.922861  0
S  S36  1  0.09030837  0.71754937  0.02150777  1  0  0.507538  0  2.915155  0  0  0.480857  0  3.305749  0  0  0.492745  0  3.304134  0  0  0.415962  0.471609  0  3.30773  0
S  S37  1  0.37270307  0.28225850  0.47843455  1  0  0.507874  0  2.916347  0  0  0.481298  0  3.306934  0  0  0.493154  0  3.30537  0  0  0.416199  0.472068  0  3.308887  0
S  S38  1  0.90968876  0.28245027  0.97849541  1  0  0.507572  0  2.915132  0  0  0.480898  0  3.305718  0  0  0.492789  0  3.3041  0  0  0.415959  0.471649  0  3.307699  0
S  S39  1  0.62729517  0.71773745  0.52156673  1  0  0.507861  0  2.916301  0  0  0.481282  0  3.306901  0  0  0.493138  0  3.305338  0  0  0.416197  0.472056  0  3.30885  0
N  N40  1  0.13845671  0.83443392  0.94798427  1  0  -0.427517  0  3.113092  0  0  -0.385232  0  3.404503  0  0  -0.394824  0  3.416862  0  0  -0.35662  -0.378099  0  3.396345  0
N  N41  1  0.30370053  0.16542655  0.55198176  1  0  -0.428034  0  3.113585  0  0  -0.385896  0  3.405546  0  0  -0.395507  0  3.417812  0  0  -0.356566  -0.378773  0  3.397436  0
N  N42  1  0.86153686  0.16556449  0.05201736  1  0  -0.427604  0  3.113005  0  0  -0.385325  0  3.404448  0  0  -0.394916  0  3.416799  0  0  -0.356645  -0.378183  0  3.396273  0
N  N43  1  0.69629328  0.83456940  0.44801952  1  0  -0.428053  0  3.11352  0  0  -0.385922  0  3.405509  0  0  -0.395536  0  3.417771  0  0  -0.356567  -0.378797  0  3.397395  0
N  N44  1  0.19021427  0.86178423  0.11849114  1  0  -0.331833  0  2.890932  0  0  -0.310801  0  3.183802  0  0  -0.316471  0  3.192095  0  0  -0.280008  -0.306839  0  3.178627  0
N  N45  1  0.32901557  0.13801893  0.38153807  1  0  -0.332069  0  2.892513  0  0  -0.311354  0  3.185328  0  0  -0.31704  0  3.193687  0  0  -0.280919  -0.307383  0  3.180117  0
N  N46  1  0.80978913  0.13821910  0.88151051  1  0  -0.331829  0  2.890938  0  0  -0.310784  0  3.183833  0  0  -0.316451  0  3.192129  0  0  -0.280024  -0.306823  0  3.178665  0
N  N47  1  0.67097824  0.86197702  0.61846116  1  0  -0.332007  0  2.892471  0  0  -0.31131  0  3.185312  0  0  -0.317001  0  3.193674  0  0  -0.280902  -0.307339  0  3.180104  0
O  O48  1  0.56211275  0.20507215  0.19789570  1  0  -0.667939  0  2.002423  0  0  -0.614442  0  2.256412  0  0  -0.643717  0  2.245961  0  0  -0.361637  -0.593257  0  2.262893  0
O  O49  1  0.35749587  0.79502365  0.30204971  1  0  -0.666705  0  2.00145  0  0  -0.613265  0  2.256205  0  0  -0.642524  0  2.245809  0  0  -0.36097  -0.592059  0  2.262664  0
O  O50  1  0.43788524  0.79492625  0.80210730  1  0  -0.667918  0  2.002556  0  0  -0.614485  0  2.256504  0  0  -0.64376  0  2.246046  0  0  -0.361672  -0.593299  0  2.26299  0
O  O51  1  0.64250212  0.20497476  0.69795124  1  0  -0.666727  0  2.001394  0  0  -0.613282  0  2.256145  0  0  -0.642541  0  2.245752  0  0  -0.360975  -0.592078  0  2.262618  0
O  O52  1  0.25338796  0.07868509  0.85474197  1  0  -0.710869  0  1.948347  0  0  -0.647211  0  2.195014  0  0  -0.67539  0  2.186606  0  0  -0.349512  -0.627128  0  2.20014  0
O  O53  1  0.17437660  0.92126858  0.64525478  1  0  -0.710742  0  1.947342  0  0  -0.647514  0  2.194685  0  0  -0.675603  0  2.186089  0  0  -0.349658  -0.627492  0  2.19994  0
O  O54  1  0.74661089  0.92131209  0.14525881  1  0  -0.710906  0  1.948013  0  0  -0.647268  0  2.194643  0  0  -0.67545  0  2.186238  0  0  -0.349483  -0.627178  0  2.199764  0
O  O55  1  0.82561721  0.07872737  0.35474377  1  0  -0.710798  0  1.947356  0  0  -0.647562  0  2.194666  0  0  -0.67565  0  2.18607  0  0  -0.349669  -0.627535  0  2.199919  0
O  O56  1  0.25288603  0.24232709  0.20412012  1  0  -0.698511  0  1.997532  0  0  -0.635704  0  2.240864  0  0  -0.666214  0  2.229594  0  0  -0.350957  -0.613674  0  2.247857  0
O  O57  1  0.01083373  0.75735878  0.29601312  1  0  -0.698141  0  1.998647  0  0  -0.634559  0  2.242041  0  0  -0.665033  0  2.230691  0  0  -0.350092  -0.612536  0  2.249123  0
O  O58  1  0.74711061  0.75767747  0.79588171  1  0  -0.698449  0  1.997755  0  0  -0.635684  0  2.24101  0  0  -0.66619  0  2.229735  0  0  -0.350934  -0.613655  0  2.24801  0
O  O59  1  0.98916107  0.24264210  0.70398544  1  0  -0.698108  0  1.998748  0  0  -0.634501  0  2.242125  0  0  -0.664972  0  2.230779  0  0  -0.35008  -0.612477  0  2.249212  0
O  O60  1  0.41737841  0.26706453  0.99139282  1  0  -0.627586  0  2.021706  0  0  -0.57238  0  2.249297  0  0  -0.598032  0  2.241069  0  0  -0.296041  -0.554539  0  2.25459  0
O  O61  1  0.15060915  0.73293926  0.50867585  1  0  -0.627589  0  2.0199  0  0  -0.572083  0  2.24704  0  0  -0.597656  0  2.238698  0  0  -0.296022  -0.554301  0  2.252387  0
O  O62  1  0.58262918  0.73294128  0.00860439  1  0  -0.627512  0  2.021936  0  0  -0.572336  0  2.249528  0  0  -0.597985  0  2.241292  0  0  -0.296025  -0.554501  0  2.254829  0
O  O63  1  0.84939978  0.26706039  0.49132253  1  0  -0.627536  0  2.020029  0  0  -0.572067  0  2.247168  0  0  -0.59764  0  2.238827  0  0  -0.295992  -0.554292  0  2.252526  0
O  O64  1  0.95174796  0.51617253  0.82526701  1  0  -0.886042  0  1.85643  0  0  -0.833108  0  2.04453  0  0  -0.854452  0  2.010572  0  0  -0.619606  -0.817467  0  2.068268  0
O  O65  1  0.43595282  0.48383797  0.67471475  1  0  -0.88503  0  1.858144  0  0  -0.83285  0  2.045415  0  0  -0.854144  0  2.011561  0  0  -0.61955  -0.81724  0  2.069054  0
O  O66  1  0.04825040  0.48382958  0.17473104  1  0  -0.886025  0  1.856487  0  0  -0.833102  0  2.044541  0  0  -0.854446  0  2.010582  0  0  -0.61958  -0.817463  0  2.068284  0
O  O67  1  0.56404640  0.51616289  0.32528860  1  0  -0.885031  0  1.858169  0  0  -0.832865  0  2.045438  0  0  -0.854158  0  2.011586  0  0  -0.619547  -0.817254  0  2.069065  0
O  O68  1  0.08629801  0.55666877  0.63195267  1  0  -0.887693  0  1.855579  0  0  -0.821537  0  2.038578  0  0  -0.843426  0  2.004898  0  0  -0.604366  -0.805834  0  2.061993  0
O  O69  1  0.52910032  0.44328358  0.86806895  1  0  -0.888684  0  1.854912  0  0  -0.822322  0  2.037472  0  0  -0.844211  0  2.003694  0  0  -0.604702  -0.806603  0  2.060978  0
O  O70  1  0.91370564  0.44333210  0.36804795  1  0  -0.887699  0  1.855592  0  0  -0.821542  0  2.038567  0  0  -0.84343  0  2.004888  0  0  -0.604374  -0.805842  0  2.061985  0
O  O71  1  0.47090037  0.55671730  0.13193098  1  0  -0.888711  0  1.854884  0  0  -0.82238  0  2.037435  0  0  -0.844268  0  2.003655  0  0  -0.604714  -0.806661  0  2.060944  0
