# generated using pymatgen
data_ZnH14C10SN2O7
_symmetry_space_group_name_H-M   'P 1'
_cell_length_a   6.73355002
_cell_length_b   11.74906284
_cell_length_c   19.54473427
_cell_angle_alpha   90.00024706
_cell_angle_beta   98.11058491
_cell_angle_gamma   90.00072544
_symmetry_Int_Tables_number   1
_chemical_formula_structural   ZnH14C10SN2O7
_chemical_formula_sum   'Zn4 H56 C40 S4 N8 O28'
_cell_volume   1530.77455216
_cell_formula_units_Z   4
loop_
 _symmetry_equiv_pos_site_id
 _symmetry_equiv_pos_as_xyz
  1  'x, y, z'
loop_
 _atom_site_type_symbol
 _atom_site_label
 _atom_site_symmetry_multiplicity
 _atom_site_fract_x
 _atom_site_fract_y
 _atom_site_fract_z
 _atom_site_occupancy
 _atom_site_hle17_bader_spin_density
 _atom_site_hle17_ddec_charge
 _atom_site_hle17_ddec_spin_density
 _atom_site_hle17_ddec_sum_bond_order
 _atom_site_hle17_magmom
 _atom_site_hse06_10hf_bader_spin_density
 _atom_site_hse06_10hf_ddec_charge
 _atom_site_hse06_10hf_ddec_spin_density
 _atom_site_hse06_10hf_ddec_sum_bond_order
 _atom_site_hse06_10hf_magmom
 _atom_site_hse06_bader_spin_density
 _atom_site_hse06_ddec_charge
 _atom_site_hse06_ddec_spin_density
 _atom_site_hse06_ddec_sum_bond_order
 _atom_site_hse06_magmom
 _atom_site_pbe_bader_spin_density
 _atom_site_pbe_cm5_charge
 _atom_site_pbe_ddec_charge
 _atom_site_pbe_ddec_spin_density
 _atom_site_pbe_ddec_sum_bond_order
 _atom_site_pbe_magmom
Zn  Zn0  1  0.46548684  0.74657235  0.24517277  1  0  1.078277  0  1.736771  0  0  0.898002  0  2.184023  0  0  0.944712  0  2.129047  0  0  0.695649  0.865163  0  2.221945  0
Zn  Zn1  1  0.03451203  0.24657604  0.25482744  1  0  1.078317  0  1.736816  0  0  0.898024  0  2.184034  0  0  0.94473  0  2.129061  0  0  0.695637  0.865186  0  2.221956  0
Zn  Zn2  1  0.53451727  0.25342450  0.75482146  1  0  1.078091  0  1.73704  0  0  0.897799  0  2.184252  0  0  0.944507  0  2.129281  0  0  0.695547  0.864962  0  2.222177  0
Zn  Zn3  1  0.96547801  0.75341996  0.74518037  1  0  1.078135  0  1.736994  0  0  0.897829  0  2.18421  0  0  0.944534  0  2.12924  0  0  0.695638  0.865002  0  2.222143  0
H  H4  1  0.08083974  0.72795042  0.24312272  1  0  0.426763  0  0.880647  0  0  0.393317  0  0.94796  0  0  0.404468  0  0.931817  0  0  0.286138  0.385478  0  0.959284  0
H  H5  1  0.41915397  0.22795501  0.25687427  1  0  0.426692  0  0.880767  0  0  0.393297  0  0.948023  0  0  0.404449  0  0.931878  0  0  0.28613  0.385461  0  0.959343  0
H  H6  1  0.91916427  0.27204558  0.75687407  1  0  0.426678  0  0.880779  0  0  0.393245  0  0.948094  0  0  0.404398  0  0.931948  0  0  0.286091  0.385411  0  0.95941  0
H  H7  1  0.58083022  0.77205376  0.74312965  1  0  0.426593  0  0.880872  0  0  0.393163  0  0.948175  0  0  0.404316  0  0.93203  0  0  0.286076  0.385327  0  0.959493  0
H  H8  1  0.14784918  0.63985314  0.18703371  1  0  0.434518  0  0.868336  0  0  0.403573  0  0.930393  0  0  0.414853  0  0.914218  0  0  0.282735  0.395594  0  0.941813  0
H  H9  1  0.35214975  0.13985866  0.31296464  1  0  0.43445  0  0.868417  0  0  0.403458  0  0.930552  0  0  0.414754  0  0.914357  0  0  0.282694  0.395478  0  0.941971  0
H  H10  1  0.85214877  0.36013605  0.81296429  1  0  0.434413  0  0.868428  0  0  0.403454  0  0.930523  0  0  0.414732  0  0.91435  0  0  0.282715  0.39547  0  0.941945  0
H  H11  1  0.64785097  0.86014160  0.68703914  1  0  0.434457  0  0.868408  0  0  0.403508  0  0.930474  0  0  0.414788  0  0.914298  0  0  0.282762  0.395524  0  0.941892  0
H  H12  1  0.61143025  0.54984023  0.20202834  1  0  0.436132  0  0.868379  0  0  0.402121  0  0.935913  0  0  0.413143  0  0.920078  0  0  0.292035  0.394365  0  0.947029  0
H  H13  1  0.88854389  0.04984442  0.29796319  1  0  0.436374  0  0.868044  0  0  0.40226  0  0.935724  0  0  0.413281  0  0.91989  0  0  0.292087  0.394505  0  0.946837  0
H  H14  1  0.38858374  0.45017705  0.79794493  1  0  0.43634  0  0.868086  0  0  0.402172  0  0.935855  0  0  0.413196  0  0.920019  0  0  0.292087  0.394421  0  0.946962  0
H  H15  1  0.11141261  0.95017627  0.70205613  1  0  0.436354  0  0.868085  0  0  0.402256  0  0.935759  0  0  0.413279  0  0.919925  0  0  0.292085  0.394496  0  0.946881  0
H  H16  1  0.77099362  0.64592338  0.23999334  1  0  0.424771  0  0.87943  0  0  0.395705  0  0.939853  0  0  0.406158  0  0.924601  0  0  0.296005  0.388351  0  0.950576  0
H  H17  1  0.72898613  0.14592382  0.25999736  1  0  0.424844  0  0.879257  0  0  0.395778  0  0.9397  0  0  0.406231  0  0.924448  0  0  0.29601  0.388423  0  0.950424  0
H  H18  1  0.22902143  0.35409389  0.75999073  1  0  0.424892  0  0.87924  0  0  0.395859  0  0.9396  0  0  0.406316  0  0.924343  0  0  0.296072  0.388509  0  0.950316  0
H  H19  1  0.27097076  0.85409346  0.74001227  1  0  0.424842  0  0.879326  0  0  0.395823  0  0.939657  0  0  0.406281  0  0.924401  0  0  0.296051  0.388474  0  0.950372  0
H  H20  1  0.24728552  0.97197051  0.33682727  1  0  0.422432  0  0.876191  0  0  0.390491  0  0.941142  0  0  0.400448  0  0.926426  0  0  0.287085  0.383459  0  0.951529  0
H  H21  1  0.25270815  0.47196703  0.16316660  1  0  0.422417  0  0.876199  0  0  0.390484  0  0.941136  0  0  0.400442  0  0.92642  0  0  0.287068  0.383452  0  0.951526  0
H  H22  1  0.75270158  0.02803400  0.66317885  1  0  0.422504  0  0.876077  0  0  0.390538  0  0.941081  0  0  0.400497  0  0.926363  0  0  0.287071  0.383496  0  0.951483  0
H  H23  1  0.74729934  0.52803152  0.83681860  1  0  0.422507  0  0.876083  0  0  0.390525  0  0.941116  0  0  0.400483  0  0.926399  0  0  0.287063  0.383485  0  0.951519  0
H  H24  1  0.48393509  0.96605255  0.33436827  1  0  0.423287  0  0.874048  0  0  0.393012  0  0.936615  0  0  0.402853  0  0.921923  0  0  0.287934  0.386027  0  0.947045  0
H  H25  1  0.01605673  0.46604490  0.16562810  1  0  0.423291  0  0.874021  0  0  0.392962  0  0.9367  0  0  0.402805  0  0.922003  0  0  0.287924  0.385972  0  0.947142  0
H  H26  1  0.51604772  0.03394005  0.66563250  1  0  0.42334  0  0.873968  0  0  0.393008  0  0.936646  0  0  0.402851  0  0.921951  0  0  0.28793  0.386016  0  0.947093  0
H  H27  1  0.98395043  0.53393578  0.83436527  1  0  0.423194  0  0.874154  0  0  0.392916  0  0.936733  0  0  0.402758  0  0.922039  0  0  0.287891  0.385929  0  0.947165  0
H  H28  1  0.45293451  0.49742898  0.29250195  1  0  0.084747  0  0.971617  0  0  0.092182  0  1.036702  0  0  0.094877  0  1.03415  0  0  0.11568  0.09008  0  1.038753  0
H  H29  1  0.04706579  0.99742667  0.20750337  1  0  0.084722  0  0.971651  0  0  0.092168  0  1.036725  0  0  0.094864  0  1.034172  0  0  0.115647  0.090057  0  1.038795  0
H  H30  1  0.54713889  0.50255000  0.70748882  1  0  0.08478  0  0.97164  0  0  0.092273  0  1.036633  0  0  0.094972  0  1.03407  0  0  0.115741  0.09014  0  1.038732  0
H  H31  1  0.95282161  0.00253103  0.79251483  1  0  0.084824  0  0.971512  0  0  0.092024  0  1.036848  0  0  0.094832  0  1.034162  0  0  0.115629  0.089892  0  1.038945  0
H  H32  1  0.48496268  0.38470336  0.39799388  1  0  0.114534  0  0.946646  0  0  0.123799  0  1.006709  0  0  0.12729  0  1.005081  0  0  0.111835  0.121331  0  1.007975  0
H  H33  1  0.01504633  0.88470111  0.10201212  1  0  0.1146  0  0.946674  0  0  0.123852  0  1.006722  0  0  0.127332  0  1.00512  0  0  0.111866  0.121384  0  1.007991  0
H  H34  1  0.51509564  0.61527732  0.60199813  1  0  0.114504  0  0.946968  0  0  0.123785  0  1.006978  0  0  0.127259  0  1.005396  0  0  0.111903  0.121322  0  1.008238  0
H  H35  1  0.98487115  0.11526595  0.89800564  1  0  0.114549  0  0.946848  0  0  0.123854  0  1.006832  0  0  0.127326  0  1.005255  0  0  0.111928  0.121388  0  1.008085  0
H  H36  1  0.47751904  0.70146915  0.51211193  1  0  0.115008  0  0.935277  0  0  0.129681  0  0.984528  0  0  0.132595  0  0.983989  0  0  0.118269  0.127582  0  0.985101  0
H  H37  1  0.02250864  0.20146236  0.98789394  1  0  0.114784  0  0.93547  0  0  0.129546  0  0.984642  0  0  0.132451  0  0.984115  0  0  0.118237  0.127443  0  0.985211  0
H  H38  1  0.52248218  0.29850386  0.48787959  1  0  0.11487  0  0.935462  0  0  0.129569  0  0.984689  0  0  0.13248  0  0.984154  0  0  0.11832  0.127469  0  0.985252  0
H  H39  1  0.97757996  0.79849534  0.01212987  1  0  0.114767  0  0.935606  0  0  0.129482  0  0.984838  0  0  0.132395  0  0.9843  0  0  0.118302  0.127387  0  0.985401  0
H  H40  1  0.45212282  0.80144984  0.40138741  1  0  0.086885  0  0.935424  0  0  0.097065  0  0.994357  0  0  0.099511  0  0.991632  0  0  0.124174  0.095183  0  0.996466  0
H  H41  1  0.04789919  0.30144518  0.09861879  1  0  0.086933  0  0.935377  0  0  0.097069  0  0.994358  0  0  0.099518  0  0.991624  0  0  0.124166  0.095177  0  0.996475  0
H  H42  1  0.54788134  0.19852658  0.59860580  1  0  0.0869  0  0.935496  0  0  0.097043  0  0.994449  0  0  0.099484  0  0.991732  0  0  0.124137  0.095165  0  0.996553  0
H  H43  1  0.95217587  0.69850826  0.90140532  1  0  0.08678  0  0.935485  0  0  0.096968  0  0.994437  0  0  0.099408  0  0.991724  0  0  0.124092  0.095098  0  0.996543  0
H  H44  1  0.43607043  0.70307972  0.09647691  1  0  0.095555  0  0.91181  0  0  0.110423  0  0.959755  0  0  0.112334  0  0.958515  0  0  0.127858  0.108977  0  0.960766  0
H  H45  1  0.06393126  0.20308387  0.40351965  1  0  0.09562  0  0.911812  0  0  0.110481  0  0.959765  0  0  0.112393  0  0.958523  0  0  0.127884  0.109032  0  0.960777  0
H  H46  1  0.56388409  0.29693841  0.90351724  1  0  0.095674  0  0.911578  0  0  0.110583  0  0.9595  0  0  0.112492  0  0.958259  0  0  0.127845  0.109128  0  0.960521  0
H  H47  1  0.93609205  0.79693852  0.59648329  1  0  0.095609  0  0.911644  0  0  0.110469  0  0.959625  0  0  0.112375  0  0.95839  0  0  0.127824  0.109019  0  0.960644  0
H  H48  1  0.44616972  0.79937383  0.98579978  1  0  0.131665  0  0.986917  0  0  0.140259  0  1.04765  0  0  0.143926  0  1.045781  0  0  0.110515  0.137656  0  1.049017  0
H  H49  1  0.05381740  0.29938266  0.51419665  1  0  0.131645  0  0.986875  0  0  0.140277  0  1.047574  0  0  0.143946  0  1.045699  0  0  0.110476  0.13767  0  1.048937  0
H  H50  1  0.55379073  0.20065026  0.01419622  1  0  0.131689  0  0.986862  0  0  0.140272  0  1.047609  0  0  0.143937  0  1.045742  0  0  0.110507  0.137658  0  1.048965  0
H  H51  1  0.94620603  0.70065675  0.48580322  1  0  0.131632  0  0.986892  0  0  0.140271  0  1.047579  0  0  0.143936  0  1.045709  0  0  0.110505  0.137661  0  1.04894  0
H  H52  1  0.54688329  0.11565677  0.10140595  1  0  0.120914  0  0.984453  0  0  0.125033  0  1.05286  0  0  0.128606  0  1.051313  0  0  0.108042  0.122509  0  1.053955  0
H  H53  1  0.95314303  0.61566816  0.39859102  1  0  0.120943  0  0.984537  0  0  0.125141  0  1.052833  0  0  0.128695  0  1.051323  0  0  0.10806  0.122621  0  1.053937  0
H  H54  1  0.45309512  0.88436136  0.89859203  1  0  0.120818  0  0.984611  0  0  0.124985  0  1.052966  0  0  0.128535  0  1.051487  0  0  0.107944  0.12247  0  1.054072  0
H  H55  1  0.04689571  0.38437380  0.60140199  1  0  0.120755  0  0.984673  0  0  0.125004  0  1.052942  0  0  0.12854  0  1.0515  0  0  0.107933  0.122485  0  1.054041  0
H  H56  1  0.53347993  0.00357121  0.20682968  1  0  0.077666  0  0.954813  0  0  0.086163  0  1.020822  0  0  0.088418  0  1.018529  0  0  0.114511  0.084433  0  1.022635  0
H  H57  1  0.96654168  0.50357840  0.29316623  1  0  0.077741  0  0.954742  0  0  0.086229  0  1.020756  0  0  0.088489  0  1.018455  0  0  0.114561  0.084496  0  1.022566  0
H  H58  1  0.46651348  0.99644182  0.79316910  1  0  0.077663  0  0.954818  0  0  0.086132  0  1.020867  0  0  0.088378  0  1.018596  0  0  0.114495  0.084411  0  1.022685  0
H  H59  1  0.03347140  0.49644398  0.70682951  1  0  0.077719  0  0.954581  0  0  0.086205  0  1.020622  0  0  0.088447  0  1.018357  0  0  0.114514  0.084487  0  1.022412  0
C  C60  1  0.45908893  0.54038723  0.34222489  1  0  0.125708  0  3.703446  0  0  0.096815  0  3.955163  0  0  0.102988  0  3.974387  0  0  0.043722  0.09286  0  3.942268  0
C  C61  1  0.04091913  0.04038529  0.15777766  1  0  0.12573  0  3.703626  0  0  0.096776  0  3.955356  0  0  0.102949  0  3.974582  0  0  0.043706  0.092821  0  3.942473  0
C  C62  1  0.54095879  0.45959174  0.65776911  1  0  0.125669  0  3.703504  0  0  0.096733  0  3.955208  0  0  0.102909  0  3.974422  0  0  0.043575  0.092794  0  3.942354  0
C  C63  1  0.95902097  0.95957326  0.84223824  1  0  0.125854  0  3.703533  0  0  0.097068  0  3.955307  0  0  0.103168  0  3.974488  0  0  0.043789  0.093131  0  3.942456  0
C  C64  1  0.47860096  0.47690228  0.40275757  1  0  -0.145148  0  3.69301  0  0  -0.165788  0  3.945442  0  0  -0.173158  0  3.967533  0  0  -0.07676  -0.161135  0  3.930998  0
C  C65  1  0.02139701  0.97689988  0.09724673  1  0  -0.145112  0  3.692746  0  0  -0.165738  0  3.945105  0  0  -0.173112  0  3.967193  0  0  -0.0767  -0.16109  0  3.930664  0
C  C66  1  0.52143766  0.52308096  0.59723850  1  0  -0.145129  0  3.693235  0  0  -0.165784  0  3.94565  0  0  -0.173155  0  3.967731  0  0  -0.076761  -0.161133  0  3.931208  0
C  C67  1  0.97854928  0.02306718  0.90276489  1  0  -0.145075  0  3.693226  0  0  -0.165668  0  3.945638  0  0  -0.173045  0  3.967747  0  0  -0.076642  -0.161014  0  3.93118  0
C  C68  1  0.48784401  0.53192981  0.46692809  1  0  0.087563  0  3.747145  0  0  0.097165  0  3.984319  0  0  0.101232  0  4.005361  0  0  0.013813  0.094585  0  3.970167  0
C  C69  1  0.01216361  0.03192562  0.03307654  1  0  0.087422  0  3.747034  0  0  0.09719  0  3.984135  0  0  0.101263  0  4.00517  0  0  0.013803  0.094599  0  3.969981  0
C  C70  1  0.51215863  0.46804917  0.53306556  1  0  0.08757  0  3.74675  0  0  0.097231  0  3.983862  0  0  0.101296  0  4.004911  0  0  0.013872  0.094664  0  3.969703  0
C  C71  1  0.98784264  0.96804059  0.96693930  1  0  0.087384  0  3.746906  0  0  0.096846  0  3.984275  0  0  0.100908  0  4.005327  0  0  0.013696  0.09429  0  3.970102  0
C  C72  1  0.47305263  0.65116482  0.46516950  1  0  -0.138865  0  3.66648  0  0  -0.157137  0  3.915059  0  0  -0.164163  0  3.935558  0  0  -0.071587  -0.152545  0  3.901225  0
C  C73  1  0.02696749  0.15115814  0.03483707  1  0  -0.138536  0  3.666679  0  0  -0.156968  0  3.915262  0  0  -0.16399  0  3.935767  0  0  -0.07153  -0.152381  0  3.901428  0
C  C74  1  0.52695465  0.34880564  0.53482081  1  0  -0.138668  0  3.666168  0  0  -0.156963  0  3.914695  0  0  -0.163985  0  3.935191  0  0  -0.071646  -0.152376  0  3.900864  0
C  C75  1  0.97307901  0.84879701  0.96518705  1  0  -0.138535  0  3.666252  0  0  -0.156775  0  3.914874  0  0  -0.163795  0  3.93537  0  0  -0.071638  -0.152191  0  3.901048  0
C  C76  1  0.45672081  0.70883226  0.40253342  1  0  0.157383  0  3.677444  0  0  0.124566  0  3.932196  0  0  0.132254  0  3.949355  0  0  0.057668  0.119543  0  3.920512  0
C  C77  1  0.04328977  0.20882841  0.09747227  1  0  0.157291  0  3.677355  0  0  0.12452  0  3.932121  0  0  0.132209  0  3.949281  0  0  0.057611  0.1195  0  3.92042  0
C  C78  1  0.54330447  0.29114246  0.59745785  1  0  0.157136  0  3.677564  0  0  0.124351  0  3.932328  0  0  0.132042  0  3.949482  0  0  0.057582  0.119334  0  3.920639  0
C  C79  1  0.95673563  0.79112588  0.90255329  1  0  0.157182  0  3.677238  0  0  0.124276  0  3.932117  0  0  0.131964  0  3.949271  0  0  0.057433  0.119255  0  3.920453  0
C  C80  1  0.46038401  0.79473893  0.09524451  1  0  0.138534  0  3.69101  0  0  0.109395  0  3.93659  0  0  0.115767  0  3.95534  0  0  0.051155  0.105276  0  3.923731  0
C  C81  1  0.03962600  0.29474226  0.40475394  1  0  0.138593  0  3.690837  0  0  0.109457  0  3.936412  0  0  0.115821  0  3.955158  0  0  0.051228  0.105349  0  3.923543  0
C  C82  1  0.53958246  0.20528176  0.90475130  1  0  0.138438  0  3.690306  0  0  0.109255  0  3.935972  0  0  0.115618  0  3.954735  0  0  0.051209  0.105147  0  3.923093  0
C  C83  1  0.96038532  0.70528098  0.59524784  1  0  0.138453  0  3.690501  0  0  0.109262  0  3.93615  0  0  0.115626  0  3.954909  0  0  0.051168  0.105152  0  3.923286  0
C  C84  1  0.46686416  0.85022662  0.03291989  1  0  -0.159793  0  3.68089  0  0  -0.178354  0  3.928066  0  0  -0.185559  0  3.948985  0  0  -0.079749  -0.17354  0  3.913876  0
C  C85  1  0.03313035  0.35023448  0.46707430  1  0  -0.159701  0  3.680667  0  0  -0.178268  0  3.927799  0  0  -0.185473  0  3.948724  0  0  -0.079685  -0.173444  0  3.913596  0
C  C86  1  0.53311127  0.14979576  0.96707742  1  0  -0.159612  0  3.680615  0  0  -0.178282  0  3.927618  0  0  -0.185485  0  3.948537  0  0  -0.07978  -0.173448  0  3.913389  0
C  C87  1  0.96687519  0.64979812  0.53292205  1  0  -0.159637  0  3.680756  0  0  -0.178266  0  3.92774  0  0  -0.185466  0  3.948658  0  0  -0.07976  -0.173439  0  3.913527  0
C  C88  1  0.49784421  0.96848030  0.03259748  1  0  0.085007  0  3.760521  0  0  0.096453  0  3.992882  0  0  0.099863  0  4.014335  0  0  0.009527  0.094299  0  3.978429  0
C  C89  1  0.00216729  0.46849073  0.46739788  1  0  0.084915  0  3.760442  0  0  0.096361  0  3.992882  0  0  0.099767  0  4.014348  0  0  0.009377  0.094214  0  3.978437  0
C  C90  1  0.50212953  0.03153698  0.96740435  1  0  0.084622  0  3.760656  0  0  0.096662  0  3.992439  0  0  0.100077  0  4.013885  0  0  0.009772  0.094524  0  3.97799  0
C  C91  1  0.99787010  0.53154698  0.53259148  1  0  0.084812  0  3.760504  0  0  0.096732  0  3.992504  0  0  0.10015  0  4.013945  0  0  0.009842  0.094588  0  3.978064  0
C  C92  1  0.52300063  0.02433367  0.09664122  1  0  -0.152979  0  3.692826  0  0  -0.174306  0  3.94742  0  0  -0.181721  0  3.969663  0  0  -0.084241  -0.169546  0  3.932853  0
C  C93  1  0.97701434  0.52434435  0.40335470  1  0  -0.153014  0  3.693044  0  0  -0.174384  0  3.947615  0  0  -0.181794  0  3.969861  0  0  -0.084207  -0.16963  0  3.933069  0
C  C94  1  0.47696562  0.97568446  0.90336020  1  0  -0.153013  0  3.693031  0  0  -0.174507  0  3.947444  0  0  -0.18193  0  3.969662  0  0  -0.084248  -0.169762  0  3.932921  0
C  C95  1  0.02301247  0.47569250  0.59663614  1  0  -0.15303  0  3.693186  0  0  -0.174576  0  3.947718  0  0  -0.182001  0  3.969927  0  0  -0.084285  -0.16982  0  3.93317  0
C  C96  1  0.51485125  0.96217453  0.15657254  1  0  0.131616  0  3.712368  0  0  0.099403  0  3.967501  0  0  0.105531  0  3.98706  0  0  0.042693  0.095434  0  3.954309  0
C  C97  1  0.98515670  0.46218015  0.34342478  1  0  0.131663  0  3.712503  0  0  0.099441  0  3.967655  0  0  0.105566  0  3.987203  0  0  0.042726  0.095482  0  3.954464  0
C  C98  1  0.48512708  0.03783935  0.84342748  1  0  0.131759  0  3.712238  0  0  0.099576  0  3.967406  0  0  0.105705  0  3.98695  0  0  0.042726  0.095604  0  3.954255  0
C  C99  1  0.01485642  0.53784564  0.65656993  1  0  0.131544  0  3.712134  0  0  0.099314  0  3.967359  0  0  0.105442  0  3.986907  0  0  0.042681  0.095351  0  3.954192  0
S  S100  1  0.86784203  0.83507014  0.33245925  1  0  1.58639  0  5.794256  0  0  1.456134  0  6.345891  0  0  1.512017  0  6.310116  0  0  0.570861  1.417466  0  6.369384  0
S  S101  1  0.63214866  0.33507106  0.16753388  1  0  1.586198  0  5.794101  0  0  1.455901  0  6.345801  0  0  1.511785  0  6.310027  0  0  0.570826  1.417243  0  6.369288  0
S  S102  1  0.13213927  0.16493947  0.66754144  1  0  1.586645  0  5.794109  0  0  1.456352  0  6.345798  0  0  1.512237  0  6.31002  0  0  0.570901  1.4177  0  6.369279  0
S  S103  1  0.36785858  0.66493600  0.83245745  1  0  1.586708  0  5.793971  0  0  1.456418  0  6.345644  0  0  1.512298  0  6.309876  0  0  0.570945  1.417758  0  6.369124  0
N  N104  1  0.45102917  0.65508999  0.34138446  1  0  -0.35059  0  3.261564  0  0  -0.273237  0  3.532251  0  0  -0.292732  0  3.549311  0  0  -0.32098  -0.259976  0  3.520467  0
N  N105  1  0.04897760  0.15508467  0.15862188  1  0  -0.350564  0  3.261686  0  0  -0.273165  0  3.532329  0  0  -0.292661  0  3.549391  0  0  -0.320914  -0.259902  0  3.520535  0
N  N106  1  0.54899763  0.34488644  0.65860637  1  0  -0.350308  0  3.261404  0  0  -0.272956  0  3.532072  0  0  -0.292452  0  3.549128  0  0  -0.320804  -0.259698  0  3.52029  0
N  N107  1  0.95100738  0.84486877  0.84139948  1  0  -0.350418  0  3.261102  0  0  -0.27295  0  3.531665  0  0  -0.292454  0  3.548762  0  0  -0.320748  -0.2597  0  3.519909  0
N  N108  1  0.48385594  0.84920296  0.15649500  1  0  -0.329876  0  3.282208  0  0  -0.248416  0  3.546314  0  0  -0.267871  0  3.564477  0  0  -0.326468  -0.23509  0  3.533692  0
N  N109  1  0.01615643  0.34921202  0.34350220  1  0  -0.330067  0  3.282151  0  0  -0.24862  0  3.546288  0  0  -0.268054  0  3.56443  0  0  -0.326594  -0.2353  0  3.533667  0
N  N110  1  0.51611049  0.15081091  0.84350183  1  0  -0.329773  0  3.281748  0  0  -0.248378  0  3.545942  0  0  -0.267825  0  3.564097  0  0  -0.32644  -0.235069  0  3.533345  0
N  N111  1  0.98387150  0.65081292  0.65649791  1  0  -0.329612  0  3.281874  0  0  -0.248112  0  3.545935  0  0  -0.267555  0  3.56409  0  0  -0.326361  -0.234805  0  3.533342  0
O  O112  1  0.17163025  0.71959514  0.20694896  1  0  -0.85082  0  1.884246  0  0  -0.784822  0  2.099463  0  0  -0.808053  0  2.063105  0  0  -0.583568  -0.768383  0  2.124583  0
O  O113  1  0.32837350  0.21960257  0.29305117  1  0  -0.850719  0  1.88438  0  0  -0.784722  0  2.099511  0  0  -0.807971  0  2.063126  0  0  -0.583502  -0.768278  0  2.124637  0
O  O114  1  0.82837368  0.28038895  0.79304987  1  0  -0.850615  0  1.88436  0  0  -0.784614  0  2.09947  0  0  -0.807848  0  2.063119  0  0  -0.583486  -0.768165  0  2.124589  0
O  O115  1  0.67162112  0.78039853  0.70695484  1  0  -0.85056  0  1.884447  0  0  -0.784591  0  2.099619  0  0  -0.80782  0  2.063252  0  0  -0.583515  -0.76813  0  2.124745  0
O  O116  1  0.64941277  0.63271158  0.20597694  1  0  -0.835652  0  1.916585  0  0  -0.770257  0  2.125646  0  0  -0.792517  0  2.090926  0  0  -0.579611  -0.754556  0  2.1496  0
O  O117  1  0.85056930  0.13271309  0.29401704  1  0  -0.835977  0  1.916239  0  0  -0.770484  0  2.12535  0  0  -0.792734  0  2.090609  0  0  -0.57967  -0.754785  0  2.149307  0
O  O118  1  0.35060216  0.36731080  0.79401020  1  0  -0.835892  0  1.916377  0  0  -0.770415  0  2.125648  0  0  -0.792621  0  2.090809  0  0  -0.579696  -0.754712  0  2.149582  0
O  O119  1  0.14938903  0.86730929  0.70599419  1  0  -0.835898  0  1.916492  0  0  -0.770446  0  2.125607  0  0  -0.792656  0  2.090774  0  0  -0.579666  -0.754728  0  2.149549  0
O  O120  1  0.37426242  0.01551479  0.34549291  1  0  -0.824617  0  1.778777  0  0  -0.769966  0  1.917238  0  0  -0.787789  0  1.887013  0  0  -0.590932  -0.757378  0  1.938452  0
O  O121  1  0.12573144  0.51550824  0.15450034  1  0  -0.824627  0  1.778718  0  0  -0.769972  0  1.91716  0  0  -0.787786  0  1.886935  0  0  -0.590916  -0.757382  0  1.938379  0
O  O122  1  0.62573239  0.98448377  0.65450850  1  0  -0.824711  0  1.778605  0  0  -0.770049  0  1.91706  0  0  -0.787867  0  1.886834  0  0  -0.590904  -0.757446  0  1.938282  0
O  O123  1  0.87426676  0.48448010  0.84549153  1  0  -0.824565  0  1.778781  0  0  -0.769925  0  1.917232  0  0  -0.787742  0  1.887008  0  0  -0.590844  -0.757324  0  1.938452  0
O  O124  1  0.65159956  0.86439372  0.30296388  1  0  -0.798647  0  2.058908  0  0  -0.721119  0  2.342572  0  0  -0.746102  0  2.320228  0  0  -0.365409  -0.703356  0  2.357421  0
O  O125  1  0.84839349  0.36439131  0.19703891  1  0  -0.798651  0  2.058928  0  0  -0.721019  0  2.342519  0  0  -0.746017  0  2.320204  0  0  -0.365403  -0.703246  0  2.357357  0
O  O126  1  0.34837572  0.13561419  0.69703701  1  0  -0.798738  0  2.059068  0  0  -0.721064  0  2.342602  0  0  -0.746062  0  2.320277  0  0  -0.365374  -0.703286  0  2.357437  0
O  O127  1  0.15162106  0.63560639  0.80295741  1  0  -0.798786  0  2.059101  0  0  -0.721143  0  2.342593  0  0  -0.746133  0  2.320271  0  0  -0.365445  -0.703362  0  2.357429  0
O  O128  1  0.88853574  0.82366361  0.40718574  1  0  -0.679846  0  1.889384  0  0  -0.638872  0  2.12426  0  0  -0.65893  0  2.108185  0  0  -0.35629  -0.624642  0  2.134857  0
O  O129  1  0.61147699  0.32367323  0.09280813  1  0  -0.679889  0  1.889464  0  0  -0.638816  0  2.124286  0  0  -0.658876  0  2.10821  0  0  -0.356263  -0.624587  0  2.134879  0
O  O130  1  0.11143355  0.17632643  0.59281482  1  0  -0.679992  0  1.889434  0  0  -0.638983  0  2.124302  0  0  -0.659034  0  2.108224  0  0  -0.356352  -0.624748  0  2.134885  0
O  O131  1  0.38856181  0.67631171  0.90718335  1  0  -0.680051  0  1.889482  0  0  -0.639035  0  2.124331  0  0  -0.659088  0  2.108256  0  0  -0.356374  -0.624789  0  2.13491  0
O  O132  1  0.99659588  0.92840234  0.31025098  1  0  -0.752178  0  1.993894  0  0  -0.6818  0  2.230323  0  0  -0.704906  0  2.21106  0  0  -0.355356  -0.665433  0  2.243168  0
O  O133  1  0.50339570  0.42840227  0.18974416  1  0  -0.752104  0  1.993867  0  0  -0.681802  0  2.230322  0  0  -0.704917  0  2.211068  0  0  -0.355369  -0.66544  0  2.243172  0
O  O134  1  0.00336987  0.07162856  0.68976270  1  0  -0.752254  0  1.993745  0  0  -0.681861  0  2.230175  0  0  -0.705007  0  2.210945  0  0  -0.355348  -0.665482  0  2.243007  0
O  O135  1  0.49663031  0.57162948  0.81022924  1  0  -0.752257  0  1.993588  0  0  -0.681864  0  2.230053  0  0  -0.704986  0  2.2108  0  0  -0.355332  -0.665488  0  2.242886  0
O  O136  1  0.92322219  0.72658777  0.29907444  1  0  -0.766304  0  2.019658  0  0  -0.696823  0  2.262043  0  0  -0.720473  0  2.245376  0  0  -0.357053  -0.680232  0  2.273206  0
O  O137  1  0.57675940  0.22658635  0.20091840  1  0  -0.766049  0  2.019472  0  0  -0.696607  0  2.261887  0  0  -0.720248  0  2.245209  0  0  -0.35704  -0.680053  0  2.273068  0
O  O138  1  0.07678784  0.27343291  0.70092216  1  0  -0.766418  0  2.019595  0  0  -0.696978  0  2.262012  0  0  -0.720623  0  2.245339  0  0  -0.357172  -0.680454  0  2.273212  0
O  O139  1  0.42320395  0.77343519  0.79908031  1  0  -0.766317  0  2.0196  0  0  -0.696869  0  2.26199  0  0  -0.720521  0  2.24532  0  0  -0.357097  -0.680314  0  2.273177  0
