# generated using pymatgen
data_Zr3H25C46Cl5O16
_symmetry_space_group_name_H-M   'P 1'
_cell_length_a   19.20777333
_cell_length_b   19.15851444
_cell_length_c   19.17924232
_cell_angle_alpha   59.38944779
_cell_angle_beta   59.87888512
_cell_angle_gamma   59.98807646
_symmetry_Int_Tables_number   1
_chemical_formula_structural   Zr3H25C46Cl5O16
_chemical_formula_sum   'Zr6 H50 C92 Cl10 O32'
_cell_volume   4962.23139416
_cell_formula_units_Z   2
loop_
 _symmetry_equiv_pos_site_id
 _symmetry_equiv_pos_as_xyz
  1  'x, y, z'
loop_
 _atom_site_type_symbol
 _atom_site_label
 _atom_site_symmetry_multiplicity
 _atom_site_fract_x
 _atom_site_fract_y
 _atom_site_fract_z
 _atom_site_occupancy
 _atom_site_pbe_bader_charge
 _atom_site_pbe_bader_spin_density
 _atom_site_pbe_cm5_charge
 _atom_site_pbe_ddec_charge
 _atom_site_pbe_ddec_spin_density
 _atom_site_pbe_ddec_sum_bond_order
 _atom_site_pbe_magmom
Zr  Zr0  1  0.90726237  0.40740768  0.59259648  1  2.637414  0  1.627463  2.379022  0  2.760833  0
Zr  Zr1  1  0.09273256  0.59189231  0.40813043  1  2.635678  0  1.627639  2.379132  0  2.761328  0
Zr  Zr2  1  0.09134651  0.40573830  0.59430916  1  2.634322  0  1.622014  2.377136  0  2.742318  0
Zr  Zr3  1  0.90858307  0.59361814  0.40644639  1  2.633493  0  1.622264  2.3766  0  2.744428  0
Zr  Zr4  1  0.90818293  0.59149794  0.59211465  1  2.634238  0  1.62781  2.380664  0  2.758686  0
Zr  Zr5  1  0.09175584  0.40790698  0.40854954  1  2.63633  0  1.626819  2.379869  0  2.757735  0
H  H6  1  0.92683451  0.42516824  0.71927070  1  0.629904  0  0.331261  0.423294  0  0.85489  0
H  H7  1  0.92872271  0.71859363  0.42588827  1  0.604895  0  0.331794  0.423952  0  0.855282  0
H  H8  1  0.21745080  0.42667671  0.42865958  1  0.616773  0  0.330886  0.423097  0  0.857366  0
H  H9  1  0.92717303  0.42800691  0.42735289  1  0.614644  0  0.330823  0.422953  0  0.856992  0
H  H10  1  0.45437542  0.61357222  0.04567647  1  0.065063  0  0.102353  0.110961  0  1.028604  0
H  H11  1  0.54593935  0.38562829  0.95516281  1  0.102246  0  0.102746  0.111353  0  1.027611  0
H  H12  1  0.68149349  0.60660317  0.81523113  1  0.135262  0  0.107226  0.111841  0  1.015018  0
H  H13  1  0.55472705  0.61224242  0.94439137  1  0.047701  0  0.104888  0.108174  0  1.006925  0
H  H14  1  0.31518507  0.39634014  0.18166736  1  0.122544  0  0.107416  0.11221  0  1.014779  0
H  H15  1  0.44437008  0.38831499  0.05498017  1  0.052048  0  0.104923  0.107973  0  1.007496  0
H  H16  1  0.11309232  0.95490434  0.38566537  1  0.069614  0  0.102604  0.111265  0  1.027935  0
H  H17  1  0.88619845  0.04538930  0.61361515  1  0.066827  0  0.102531  0.111564  0  1.027796  0
H  H18  1  0.10672648  0.18134183  0.39665627  1  0.087919  0  0.107334  0.111849  0  1.014635  0
H  H19  1  0.11218155  0.05478639  0.38839467  1  0.018198  0  0.104824  0.108124  0  1.007344  0
H  H20  1  0.89651805  0.81498573  0.60688678  1  0.131973  0  0.107197  0.112107  0  1.015183  0
H  H21  1  0.88847038  0.94426166  0.61227164  1  0.075  0  0.104998  0.108268  0  1.007301  0
H  H22  1  0.45269459  0.04782158  0.38645935  1  0.087456  0  0.102148  0.111136  0  1.02696  0
H  H23  1  0.54823289  0.95270969  0.61304876  1  0.084105  0  0.102336  0.11135  0  1.026948  0
H  H24  1  0.67901302  0.81638007  0.39672454  1  0.090463  0  0.109443  0.114728  0  1.002831  0
H  H25  1  0.55243234  0.94585109  0.38902988  1  0.053701  0  0.104503  0.10671  0  1.008722  0
H  H26  1  0.31762316  0.17971971  0.60720644  1  0.092757  0  0.109525  0.115165  0  1.00169  0
H  H27  1  0.44734004  0.05351406  0.61164471  1  0.069261  0  0.104571  0.107031  0  1.009151  0
H  H28  1  0.88610341  0.61301155  0.95290462  1  0.050457  0  0.101973  0.11123  0  1.026722  0
H  H29  1  0.11312514  0.38640232  0.04803326  1  0.054922  0  0.102147  0.111382  0  1.027221  0
H  H30  1  0.89551622  0.60691792  0.18017396  1  0.135997  0  0.109862  0.115033  0  1.001795  0
H  H31  1  0.88766042  0.61159749  0.05380245  1  0.040766  0  0.104626  0.107153  0  1.008548  0
H  H32  1  0.10791795  0.39645143  0.81684161  1  0.140082  0  0.109339  0.114953  0  1.002036  0
H  H33  1  0.11279710  0.38900346  0.94613534  1  0.038249  0  0.104587  0.106732  0  1.009588  0
H  H34  1  0.11176709  0.81804307  0.17903108  1  0.094466  0  0.100366  0.10489  0  1.052248  0
H  H35  1  0.89095823  0.81779793  0.17923301  1  0.104567  0  0.102639  0.108697  0  1.038011  0
H  H36  1  0.89124409  0.17815492  0.81878990  1  0.124896  0  0.100365  0.104998  0  1.050913  0
H  H37  1  0.11211179  0.17836421  0.81856440  1  0.099842  0  0.102469  0.107954  0  1.037739  0
H  H38  1  0.45381604  0.38459083  0.61477004  1  0.100927  0  0.102391  0.111722  0  1.026291  0
H  H39  1  0.54692407  0.61441659  0.38497958  1  0.06296  0  0.10231  0.111625  0  1.026563  0
H  H40  1  0.68042439  0.39584272  0.60733660  1  0.130235  0  0.107582  0.111971  0  1.014228  0
H  H41  1  0.55415789  0.38751415  0.61317818  1  0.077354  0  0.104887  0.108127  0  1.006471  0
H  H42  1  0.31623286  0.60688448  0.39644969  1  0.097327  0  0.107804  0.112217  0  1.013348  0
H  H43  1  0.44502030  0.61284642  0.38794432  1  0.080643  0  0.104716  0.108003  0  1.006413  0
H  H44  1  0.19747789  0.09190125  0.97319601  1  0.030857  0  0.092428  0.123626  0  0.996519  0
H  H45  1  0.19392519  0.13170445  0.86883801  1  0.024228  0  0.091412  0.125302  0  1.026406  0
H  H46  1  0.26259125  0.02745735  0.90808681  1  0.029309  0  0.092685  0.124047  0  0.996139  0
H  H47  1  0.26233207  0.90675779  0.02860551  1  0.033878  0  0.091309  0.123643  0  0.997808  0
H  H48  1  0.19295225  0.86847915  0.13273206  1  0.017263  0  0.085822  0.119835  0  1.046337  0
H  H49  1  0.19737593  0.97253677  0.09254121  1  0.0219  0  0.091269  0.123724  0  0.998532  0
H  H50  1  0.80236174  0.02764239  0.90762556  1  0.024417  0  0.091404  0.123719  0  0.997351  0
H  H51  1  0.80584339  0.13183981  0.86924325  1  0.032612  0  0.085728  0.120272  0  1.046491  0
H  H52  1  0.73761398  0.09160616  0.97337716  1  0.028273  0  0.091394  0.123537  0  0.998536  0
H  H53  1  0.73745856  0.97232768  0.09278154  1  0.023887  0  0.092314  0.123435  0  0.99746  0
H  H54  1  0.80560937  0.86803825  0.13255915  1  0.015417  0  0.0915  0.124827  0  1.025683  0
H  H55  1  0.80187495  0.90718200  0.02838229  1  0.015069  0  0.092508  0.12386  0  0.996457  0
C  C56  1  0.76332547  0.49857015  0.73249024  1  1.541255  0  0.233128  0.64753  0  4.104044  0
C  C57  1  0.00558764  0.73194921  0.49910741  1  1.568117  0  0.233821  0.649136  0  4.104004  0
C  C58  1  0.23238854  0.50525042  0.26364384  1  1.570256  0  0.234244  0.650504  0  4.101179  0
C  C59  1  0.99866891  0.26306744  0.50578834  1  1.569081  0  0.233529  0.648858  0  4.102491  0
C  C60  1  0.00211776  0.26111817  0.73467021  1  1.537661  0  0.236735  0.645005  0  4.083377  0
C  C61  1  0.76340806  0.50592821  0.49830585  1  1.570148  0  0.232424  0.646029  0  4.101644  0
C  C62  1  0.00210264  0.73390882  0.26193290  1  1.537872  0  0.236121  0.644194  0  4.083573  0
C  C63  1  0.23235769  0.49767660  0.50658111  1  1.574041  0  0.233001  0.646271  0  4.101334  0
C  C64  1  0.99929663  0.50373065  0.73315401  1  1.5751  0  0.233083  0.648351  0  4.103464  0
C  C65  1  0.23135527  0.26196785  0.50128231  1  1.558788  0  0.23352  0.649131  0  4.099714  0
C  C66  1  0.00538335  0.50073996  0.26256422  1  1.568068  0  0.234282  0.649379  0  4.100429  0
C  C67  1  0.76383755  0.73259934  0.50422265  1  1.568321  0  0.2342  0.650284  0  4.101682  0
C  C68  1  0.31067187  0.50774705  0.18600552  1  0.063892  0  -0.019263  -0.105512  0  3.918273  0
C  C69  1  0.68605857  0.49507253  0.81110230  1  0.075433  0  -0.018954  -0.103627  0  3.91904  0
C  C70  1  0.35208601  0.56886566  0.14574560  1  0.012958  0  0.025932  0.154009  0  4.000313  0
C  C71  1  0.42547535  0.56470822  0.07380798  1  0.070655  0  -0.094605  -0.204457  0  3.964539  0
C  C72  1  0.64603037  0.43255115  0.85277647  1  0.031035  0  0.026208  0.153489  0  4.001838  0
C  C73  1  0.57397840  0.43538489  0.92607303  1  0.023644  0  -0.095244  -0.204562  0  3.963255  0
C  C74  1  0.65039891  0.55858446  0.84722458  1  -0.060918  0  -0.077523  -0.066028  0  3.984667  0
C  C75  1  0.57888682  0.56116387  0.92006727  1  -0.040582  0  -0.090368  -0.136574  0  3.973109  0
C  C76  1  0.34699299  0.44360931  0.15048967  1  -0.065773  0  -0.077867  -0.066069  0  3.984772  0
C  C77  1  0.41989112  0.43966813  0.07904246  1  -0.085547  0  -0.09035  -0.136338  0  3.973852  0
C  C78  1  0.46107281  0.50082227  0.03852898  1  0.035211  0  0.001521  0.096443  0  3.980926  0
C  C79  1  0.53844482  0.49925139  0.96135543  1  -0.04229  0  0.002061  0.097077  0  3.980301  0
C  C80  1  0.00765949  0.81072171  0.49538885  1  0.042839  0  -0.019508  -0.105573  0  3.919748  0
C  C81  1  0.99549793  0.18556584  0.50807166  1  0.006515  0  -0.01874  -0.104159  0  3.917528  0
C  C82  1  0.06850806  0.85242035  0.43276819  1  0.008963  0  0.02613  0.153889  0  4.001364  0
C  C83  1  0.06439977  0.92580509  0.43546587  1  -0.010172  0  -0.095147  -0.204533  0  3.963012  0
C  C84  1  0.93320712  0.14533141  0.56912391  1  0.043673  0  0.02618  0.154559  0  4.000783  0
C  C85  1  0.93585506  0.07350475  0.56482417  1  -0.007218  0  -0.095448  -0.206696  0  3.965059  0
C  C86  1  0.05881853  0.15014796  0.44386392  1  0.051633  0  -0.077506  -0.065261  0  3.983054  0
C  C87  1  0.06127089  0.07879560  0.43978623  1  -0.024403  0  -0.090619  -0.137628  0  3.973311  0
C  C88  1  0.94364732  0.84694953  0.55880703  1  0.006684  0  -0.077429  -0.065792  0  3.984906  0
C  C89  1  0.93973584  0.91985820  0.56126153  1  -0.078145  0  -0.090795  -0.137034  0  3.973813  0
C  C90  1  0.00079954  0.96113357  0.49931178  1  0.049746  0  0.002064  0.096871  0  3.979791  0
C  C91  1  0.99942555  0.03830376  0.50088635  1  0.001847  0  0.002044  0.098171  0  3.979364  0
C  C92  1  0.31049060  0.18544283  0.49679724  1  0.026826  0  -0.018988  -0.104684  0  3.91938  0
C  C93  1  0.68614479  0.81065818  0.50714668  1  0.045789  0  -0.019334  -0.106106  0  3.91862  0
C  C94  1  0.35107478  0.14659552  0.43413571  1  -7.2e-05  0  0.026258  0.155263  0  3.998432  0
C  C95  1  0.42469395  0.07489938  0.43626953  1  0.05195  0  -0.095168  -0.204494  0  3.960625  0
C  C96  1  0.64717215  0.85117948  0.56813771  1  0.058737  0  0.026293  0.156543  0  3.998678  0
C  C97  1  0.57522552  0.92458618  0.56427670  1  -0.016399  0  -0.09528  -0.205785  0  3.962474  0
C  C98  1  0.64912367  0.84776543  0.44361246  1  -0.03068  0  -0.077376  -0.064641  0  3.983579  0
C  C99  1  0.57769306  0.92069852  0.43994672  1  -0.058837  0  -0.090223  -0.136859  0  3.975195  0
C  C100  1  0.34841790  0.14926481  0.55937639  1  0.000535  0  -0.077479  -0.066038  0  3.984916  0
C  C101  1  0.42160839  0.07814732  0.56123168  1  -0.0584  0  -0.089625  -0.136504  0  3.974182  0
C  C102  1  0.46148636  0.03852354  0.49954926  1  -0.02303  0  0.001761  0.096894  0  3.978248  0
C  C103  1  0.53862191  0.96114253  0.50080386  1  0.057281  0  0.001917  0.096893  0  3.979047  0
C  C104  1  0.99606294  0.50683137  0.81109245  1  0.041852  0  -0.018655  -0.104482  0  3.918676  0
C  C105  1  0.00734385  0.49650147  0.18585322  1  -0.006799  0  -0.019852  -0.106409  0  3.91959  0
C  C106  1  0.93357004  0.56793153  0.85149577  1  -0.003529  0  0.026593  0.156316  0  3.998617  0
C  C107  1  0.93597155  0.56418194  0.92485703  1  0.029479  0  -0.095081  -0.20546  0  3.961968  0
C  C108  1  0.06828078  0.43392244  0.14691393  1  0.046707  0  0.026295  0.156071  0  3.999569  0
C  C109  1  0.06423505  0.43617050  0.07515739  1  0.086793  0  -0.094955  -0.205162  0  3.961021  0
C  C110  1  0.94302856  0.55914568  0.14966897  1  -0.069945  0  -0.07705  -0.064232  0  3.983002  0
C  C111  1  0.93912450  0.56111448  0.07847974  1  0.008982  0  -0.090703  -0.138107  0  3.975207  0
C  C112  1  0.05952759  0.44338414  0.84817567  1  -0.061595  0  -0.077884  -0.065751  0  3.983318  0
C  C113  1  0.06173615  0.43985777  0.92101887  1  -0.044142  0  -0.089897  -0.136592  0  3.9759  0
C  C114  1  0.99950597  0.50074932  0.96140513  1  0.049429  0  0.001817  0.096713  0  3.979329  0
C  C115  1  0.00053717  0.49948058  0.03878923  1  -0.008038  0  0.002081  0.097433  0  3.978148  0
C  C116  1  0.06426282  0.84963689  0.14795503  1  -0.029845  0  -0.086002  -0.137956  0  3.943734  0
C  C117  1  0.06550156  0.92412286  0.07472219  1  0.016033  0  -0.006833  0.028022  0  3.997517  0
C  C118  1  0.13009309  0.96316696  0.03654350  1  -0.012515  0  -0.009045  0.06147  0  3.912737  0
C  C119  1  0.93799767  0.84950225  0.14807465  1  -0.047365  0  -0.08726  -0.142443  0  3.950774  0
C  C120  1  0.93552529  0.92399033  0.07482834  1  0.026492  0  -0.007522  0.025732  0  4.00542  0
C  C121  1  0.87020302  0.96297175  0.03666692  1  -0.016466  0  -0.011172  0.055502  0  3.918419  0
C  C122  1  0.93823020  0.14709817  0.85039842  1  -0.094599  0  -0.086653  -0.139733  0  3.945026  0
C  C123  1  0.93570990  0.07389549  0.92489517  1  -0.026664  0  -0.006172  0.029718  0  3.996763  0
C  C124  1  0.87024781  0.03573387  0.96391316  1  -0.013393  0  -0.009608  0.060708  0  3.911318  0
C  C125  1  0.06449501  0.14722210  0.85026245  1  -0.052419  0  -0.087982  -0.142586  0  3.950454  0
C  C126  1  0.06569383  0.07400860  0.92477784  1  0.024195  0  -0.007144  0.026316  0  4.005327  0
C  C127  1  0.13018267  0.03589909  0.96374566  1  -0.020275  0  -0.011288  0.055356  0  3.918122  0
C  C128  1  0.00155895  0.81280301  0.18387726  1  -0.058404  0  -0.026315  -0.044663  0  4.034148  0
C  C129  1  0.00045949  0.96177055  0.03726425  1  0.023369  0  0.000883  -0.003356  0  3.947787  0
C  C130  1  0.00181712  0.18307444  0.81354163  1  -0.004688  0  -0.025828  -0.043791  0  4.033344  0
C  C131  1  0.00053772  0.03646427  0.96255459  1  -0.076855  0  0.000634  -0.004678  0  3.948638  0
C  C132  1  0.31084310  0.49448423  0.50870996  1  0.010386  0  -0.018363  -0.102241  0  3.911665  0
C  C133  1  0.68604965  0.50810508  0.49495851  1  -0.027465  0  -0.018818  -0.102556  0  3.911246  0
C  C134  1  0.35205103  0.43180850  0.56994987  1  0.060855  0  0.024324  0.152941  0  4.001793  0
C  C135  1  0.42532227  0.43471503  0.56561164  1  -0.032923  0  -0.095463  -0.204574  0  3.959504  0
C  C136  1  0.64629299  0.56941102  0.43226653  1  0.077932  0  0.024414  0.153047  0  4.00124  0
C  C137  1  0.57442006  0.56517896  0.43510979  1  -0.009581  0  -0.094986  -0.20381  0  3.959436  0
C  C138  1  0.64990450  0.44346357  0.55893820  1  0.02114  0  -0.077541  -0.06691  0  3.983631  0
C  C139  1  0.57854767  0.43935917  0.56162757  1  -0.101148  0  -0.090181  -0.1359  0  3.970715  0
C  C140  1  0.34757692  0.55852570  0.44403047  1  0.004133  0  -0.078059  -0.06691  0  3.982254  0
C  C141  1  0.42037166  0.56127659  0.43981861  1  -0.082774  0  -0.089567  -0.135908  0  3.970005  0
C  C142  1  0.46126296  0.49905217  0.50121301  1  0.048173  0  0.001765  0.096599  0  3.976188  0
C  C143  1  0.53848249  0.50081933  0.49942715  1  0.017847  0  0.001703  0.096243  0  3.976717  0
C  C144  1  0.19889045  0.07424915  0.92598291  1  -0.043446  0  -0.236169  -0.390817  0  3.987336  0
C  C145  1  0.19853321  0.92534365  0.07503643  1  -0.008932  0  -0.238524  -0.396755  0  3.990449  0
C  C146  1  0.80112981  0.07416693  0.92611091  1  -0.036629  0  -0.238271  -0.396605  0  3.989336  0
C  C147  1  0.80091945  0.92517752  0.07507417  1  -1.7e-05  0  -0.235868  -0.389936  0  3.987766  0
Cl  Cl148  1  0.31811648  0.65269998  0.17941588  1  -0.190126  0  -0.00446  -0.071287  0  1.509265  0
Cl  Cl149  1  0.68026368  0.34843869  0.81938932  1  -0.192833  0  -0.004675  -0.071835  0  1.509013  0
Cl  Cl150  1  0.15173257  0.81897790  0.34868423  1  -0.20083  0  -0.004412  -0.071549  0  1.509833  0
Cl  Cl151  1  0.84965140  0.17894414  0.65298393  1  -0.189147  0  -0.004504  -0.071592  0  1.509285  0
Cl  Cl152  1  0.31583103  0.18182008  0.35067873  1  -0.191211  0  -0.00987  -0.07757  0  1.502537  0
Cl  Cl153  1  0.68259492  0.81619985  0.65139665  1  -0.193563  0  -0.009919  -0.07766  0  1.503375  0
Cl  Cl154  1  0.84993038  0.65121071  0.81642026  1  -0.188783  0  -0.010017  -0.077848  0  1.503336  0
Cl  Cl155  1  0.15179077  0.35046131  0.18205168  1  -0.191265  0  -0.009787  -0.07736  0  1.503432  0
Cl  Cl156  1  0.31781855  0.34713336  0.65431789  1  -0.196192  0  -0.012611  -0.082343  0  1.494077  0
Cl  Cl157  1  0.68086169  0.65379817  0.34767910  1  -0.197284  0  -0.012646  -0.082495  0  1.495271  0
O  O158  1  0.79494706  0.44122733  0.69959438  1  -1.174055  0  -0.364907  -0.624989  0  2.378652  0
O  O159  1  0.06429295  0.69892083  0.44189409  1  -1.17758  0  -0.365353  -0.62531  0  2.378625  0
O  O160  1  0.20040424  0.56300920  0.29609416  1  -1.169819  0  -0.364926  -0.625922  0  2.379253  0
O  O161  1  0.94050877  0.29536943  0.56367631  1  -1.175849  0  -0.364555  -0.625009  0  2.378726  0
O  O162  1  0.06134416  0.29240080  0.70377273  1  -1.186305  0  -0.366403  -0.629215  0  2.284473  0
O  O163  1  0.79604626  0.56466377  0.44002124  1  -1.180101  0  -0.364641  -0.625735  0  2.372123  0
O  O164  1  0.94251174  0.70299858  0.29319558  1  -1.192676  0  -0.366279  -0.628439  0  2.285676  0
O  O165  1  0.19925945  0.43940292  0.56536304  1  -1.181989  0  -0.364344  -0.625792  0  2.370216  0
O  O166  1  0.94181532  0.56215923  0.69971187  1  -1.182909  0  -0.365468  -0.624136  0  2.382108  0
O  O167  1  0.19832623  0.29493328  0.44337181  1  -1.179927  0  -0.365303  -0.623879  0  2.378286  0
O  O168  1  0.06330915  0.44272749  0.29555371  1  -1.173485  0  -0.365436  -0.624216  0  2.379184  0
O  O169  1  0.79627451  0.69915243  0.56269471  1  -1.169808  0  -0.365513  -0.625024  0  2.381838  0
O  O170  1  0.20294831  0.28981217  0.56174016  1  -1.172445  0  -0.346057  -0.613682  0  2.257729  0
O  O171  1  0.94545022  0.56111830  0.29051497  1  -1.182242  0  -0.346159  -0.613157  0  2.258731  0
O  O172  1  0.79305982  0.70556998  0.44297388  1  -1.176172  0  -0.345899  -0.611998  0  2.258824  0
O  O173  1  0.05830101  0.44241155  0.70621214  1  -1.176786  0  -0.345258  -0.611558  0  2.259924  0
O  O174  1  0.94301495  0.29246019  0.70379538  1  -1.177102  0  -0.352187  -0.614074  0  2.287624  0
O  O175  1  0.20457599  0.55788672  0.44534589  1  -1.17373  0  -0.34543  -0.609551  0  2.269174  0
O  O176  1  0.06074503  0.70305976  0.29325145  1  -1.186033  0  -0.351869  -0.613693  0  2.288116  0
O  O177  1  0.79212413  0.44473940  0.55859281  1  -1.177797  0  -0.344434  -0.608893  0  2.267913  0
O  O178  1  0.05857235  0.29246092  0.44528745  1  -1.179281  0  -0.347197  -0.611836  0  2.27177  0
O  O179  1  0.79307179  0.55803466  0.70423279  1  -1.172352  0  -0.346849  -0.610526  0  2.272675  0
O  O180  1  0.94464665  0.70370508  0.55859722  1  -1.173274  0  -0.34661  -0.61107  0  2.272178  0
O  O181  1  0.20365719  0.44471469  0.29300586  1  -1.174309  0  -0.347245  -0.612416  0  2.270766  0
O  O182  1  0.94784866  0.44869649  0.44774518  1  -1.244142  0  -0.69431  -1.06686  0  2.363605  0
O  O183  1  0.15569382  0.44702436  0.44940812  1  -1.245502  0  -0.694341  -1.067062  0  2.363293  0
O  O184  1  0.94860514  0.65635204  0.44745273  1  -1.23381  0  -0.694813  -1.067671  0  2.362621  0
O  O185  1  0.94759816  0.44674249  0.65702797  1  -1.257559  0  -0.694169  -1.066669  0  2.360965  0
O  O186  1  0.03836746  0.53704725  0.53908533  1  -1.198532  0  -0.792399  -1.148254  0  2.129333  0
O  O187  1  0.88545367  0.53841725  0.53773955  1  -1.198067  0  -0.791947  -1.147929  0  2.129537  0
O  O188  1  0.03836403  0.53876290  0.38525761  1  -1.194602  0  -0.792249  -1.148621  0  2.130645  0
O  O189  1  0.03760848  0.38455663  0.53946051  1  -1.196587  0  -0.792144  -1.148999  0  2.131397  0
