# generated using pymatgen
data_NdH19C27O8
_symmetry_space_group_name_H-M   'P 1'
_cell_length_a   8.55066753
_cell_length_b   13.23689215
_cell_length_c   15.45444300
_cell_angle_alpha   104.14313198
_cell_angle_beta   92.96876202
_cell_angle_gamma   101.30286271
_symmetry_Int_Tables_number   1
_chemical_formula_structural   NdH19C27O8
_chemical_formula_sum   'Nd2 H38 C54 O16'
_cell_volume   1654.11639638
_cell_formula_units_Z   2
loop_
 _symmetry_equiv_pos_site_id
 _symmetry_equiv_pos_as_xyz
  1  'x, y, z'
loop_
 _atom_site_type_symbol
 _atom_site_label
 _atom_site_symmetry_multiplicity
 _atom_site_fract_x
 _atom_site_fract_y
 _atom_site_fract_z
 _atom_site_occupancy
 _atom_site_hle17_bader_spin_density
 _atom_site_hle17_ddec_charge
 _atom_site_hle17_ddec_spin_density
 _atom_site_hle17_ddec_sum_bond_order
 _atom_site_hle17_magmom
 _atom_site_hse06_10hf_bader_spin_density
 _atom_site_hse06_10hf_ddec_charge
 _atom_site_hse06_10hf_ddec_spin_density
 _atom_site_hse06_10hf_ddec_sum_bond_order
 _atom_site_hse06_10hf_magmom
 _atom_site_hse06_bader_spin_density
 _atom_site_hse06_ddec_charge
 _atom_site_hse06_ddec_spin_density
 _atom_site_hse06_ddec_sum_bond_order
 _atom_site_hse06_magmom
 _atom_site_pbe_bader_spin_density
 _atom_site_pbe_cm5_charge
 _atom_site_pbe_ddec_charge
 _atom_site_pbe_ddec_spin_density
 _atom_site_pbe_ddec_sum_bond_order
 _atom_site_pbe_magmom
Nd  Nd0  1  0.08847022  0.16461793  0.54206213  1  0  2.226882  0  1.639389  0  0  2.061266  0  2.108513  0  0  2.107832  0  2.059824  0  0  1.489416  2.024882  0  2.147258  0
Nd  Nd1  1  0.91152122  0.83537102  0.45793285  1  0  2.226886  0  1.639387  0  0  2.061351  0  2.108396  0  0  2.107803  0  2.059893  0  0  1.489393  2.024963  0  2.14715  0
H  H2  1  0.42108855  0.31080556  0.55436569  1  0  0.44288  0  0.803177  0  0  0.429362  0  0.847395  0  0  0.437052  0  0.836526  0  0  0.339817  0.423877  0  0.855176  0
H  H3  1  0.57889859  0.68917741  0.44563681  1  0  0.442926  0  0.803058  0  0  0.429455  0  0.847248  0  0  0.437147  0  0.836371  0  0  0.339816  0.423971  0  0.855029  0
H  H4  1  0.27607506  0.35772752  0.52904409  1  0  0.441692  0  0.83613  0  0  0.418777  0  0.884082  0  0  0.428666  0  0.869586  0  0  0.31988  0.411777  0  0.894359  0
H  H5  1  0.72393422  0.64227275  0.47096200  1  0  0.441809  0  0.835914  0  0  0.418848  0  0.883973  0  0  0.428752  0  0.869454  0  0  0.319862  0.411828  0  0.894276  0
H  H6  1  0.75645325  0.15305417  0.57851182  1  0  0.431134  0  0.827461  0  0  0.412167  0  0.885163  0  0  0.420409  0  0.873211  0  0  0.321546  0.40633  0  0.891951  0
H  H7  1  0.24352605  0.84694832  0.42149549  1  0  0.431116  0  0.827516  0  0  0.412196  0  0.885102  0  0  0.420438  0  0.873152  0  0  0.321605  0.406365  0  0.89188  0
H  H8  1  0.73423648  0.05283237  0.49372006  1  0  0.436408  0  0.870701  0  0  0.403779  0  0.937741  0  0  0.414839  0  0.921751  0  0  0.298004  0.396006  0  0.948931  0
H  H9  1  0.26576476  0.94717317  0.50628756  1  0  0.436472  0  0.870601  0  0  0.403855  0  0.937624  0  0  0.414916  0  0.921633  0  0  0.298051  0.396079  0  0.948817  0
H  H10  1  0.89118513  0.38952026  0.80094985  1  0  0.102508  0  0.935997  0  0  0.113011  0  0.992883  0  0  0.116656  0  0.990346  0  0  0.104915  0.110371  0  0.994742  0
H  H11  1  0.10875958  0.61045892  0.19903319  1  0  0.102725  0  0.936252  0  0  0.113289  0  0.993039  0  0  0.116935  0  0.9905  0  0  0.105074  0.110649  0  0.994897  0
H  H12  1  0.89842676  0.69508536  0.66588127  1  0  0.11481  0  0.976047  0  0  0.122292  0  1.040841  0  0  0.12632  0  1.03826  0  0  0.105811  0.119329  0  1.04289  0
H  H13  1  0.10161123  0.30492003  0.33411747  1  0  0.114958  0  0.976016  0  0  0.122377  0  1.040875  0  0  0.126422  0  1.038271  0  0  0.105868  0.119414  0  1.042923  0
H  H14  1  0.51543938  0.04413319  0.89761490  1  0  0.087371  0  0.961773  0  0  0.100465  0  1.018959  0  0  0.103328  0  1.017868  0  0  0.098132  0.098392  0  1.019885  0
H  H15  1  0.48455243  0.95586868  0.10239796  1  0  0.087383  0  0.961685  0  0  0.100383  0  1.01897  0  0  0.103272  0  1.017851  0  0  0.098168  0.098309  0  1.019896  0
H  H16  1  0.38913250  0.14756168  0.81242269  1  0  0.100249  0  0.952015  0  0  0.110476  0  1.011212  0  0  0.113359  0  1.009896  0  0  0.104019  0.108353  0  1.012244  0
H  H17  1  0.61085592  0.85244896  0.18758751  1  0  0.100364  0  0.952094  0  0  0.110646  0  1.011215  0  0  0.113529  0  1.009892  0  0  0.104125  0.108508  0  1.012263  0
H  H18  1  0.91560378  0.15159440  0.23141041  1  0  0.101972  0  0.943612  0  0  0.113739  0  1.000014  0  0  0.116593  0  0.998584  0  0  0.10963  0.11167  0  1.001095  0
H  H19  1  0.08441040  0.84840272  0.76859840  1  0  0.10193  0  0.943792  0  0  0.113716  0  1.000173  0  0  0.116574  0  0.998738  0  0  0.109598  0.111647  0  1.001254  0
H  H20  1  0.65778334  0.86730784  0.65144494  1  0  0.097496  0  0.97018  0  0  0.107164  0  1.03363  0  0  0.110193  0  1.032459  0  0  0.106472  0.104993  0  1.034555  0
H  H21  1  0.34222448  0.13269089  0.34855814  1  0  0.097446  0  0.970265  0  0  0.107096  0  1.033751  0  0  0.110122  0  1.032574  0  0  0.106459  0.10492  0  1.034689  0
H  H22  1  0.69766109  0.99977328  0.95877665  1  0  0.085132  0  0.979997  0  0  0.096475  0  1.043844  0  0  0.099797  0  1.041193  0  0  0.098703  0.094135  0  1.045726  0
H  H23  1  0.30234020  0.00022889  0.04123602  1  0  0.085267  0  0.979786  0  0  0.09656  0  1.043671  0  0  0.099883  0  1.041021  0  0  0.098728  0.094219  0  1.045557  0
H  H24  1  0.52326891  0.96544106  0.56764082  1  0  0.103122  0  0.980314  0  0  0.111042  0  1.045595  0  0  0.114733  0  1.042515  0  0  0.104385  0.108296  0  1.048009  0
H  H25  1  0.47671921  0.03455801  0.43235829  1  0  0.103094  0  0.980359  0  0  0.111022  0  1.04564  0  0  0.114712  0  1.042564  0  0  0.104409  0.108276  0  1.048053  0
H  H26  1  0.80637237  0.55224331  0.88649079  1  0  0.092067  0  0.944842  0  0  0.104271  0  1.00011  0  0  0.107314  0  0.999294  0  0  0.100641  0.102091  0  1.00079  0
H  H27  1  0.19358996  0.44774848  0.11348940  1  0  0.092098  0  0.945064  0  0  0.10432  0  1.000298  0  0  0.107352  0  0.999481  0  0  0.100595  0.102141  0  1.000977  0
H  H28  1  0.99935928  0.84786279  0.25310393  1  0  0.110324  0  0.97249  0  0  0.117806  0  1.038088  0  0  0.121675  0  1.034479  0  0  0.11263  0.11505  0  1.040585  0
H  H29  1  0.00067249  0.15214092  0.74689222  1  0  0.11031  0  0.972415  0  0  0.117751  0  1.038068  0  0  0.121621  0  1.034458  0  0  0.112601  0.114996  0  1.040567  0
H  H30  1  0.98328594  0.53305377  0.58213750  1  0  0.106534  0  0.943685  0  0  0.114432  0  1.007217  0  0  0.118422  0  1.003638  0  0  0.105936  0.111521  0  1.009867  0
H  H31  1  0.01675349  0.46696190  0.41786496  1  0  0.106559  0  0.943817  0  0  0.114496  0  1.007298  0  0  0.118483  0  1.003725  0  0  0.105975  0.111584  0  1.009949  0
H  H32  1  0.91134435  0.77110290  0.09368507  1  0  0.091319  0  0.952051  0  0  0.105209  0  1.005397  0  0  0.108273  0  1.004077  0  0  0.10243  0.103017  0  1.006455  0
H  H33  1  0.08868676  0.22889839  0.90631114  1  0  0.091362  0  0.952166  0  0  0.105254  0  1.005512  0  0  0.108313  0  1.004198  0  0  0.102409  0.103065  0  1.006569  0
H  H34  1  0.91691990  0.73341854  0.95802458  1  0  0.089066  0  0.965842  0  0  0.099637  0  1.028698  0  0  0.102781  0  1.026702  0  0  0.100319  0.097377  0  1.030177  0
H  H35  1  0.08309968  0.26658795  0.04197235  1  0  0.089122  0  0.965776  0  0  0.099672  0  1.028645  0  0  0.102817  0  1.026652  0  0  0.10035  0.097422  0  1.030129  0
H  H36  1  0.83323935  0.07637604  0.07015710  1  0  0.088583  0  0.957583  0  0  0.102603  0  1.012358  0  0  0.105458  0  1.011243  0  0  0.101154  0.100575  0  1.013257  0
H  H37  1  0.16675804  0.92362723  0.92984401  1  0  0.088419  0  0.957648  0  0  0.102447  0  1.012413  0  0  0.105302  0  1.011299  0  0  0.101087  0.100415  0  1.013308  0
H  H38  1  0.67579569  0.75431542  0.71517386  1  0  0.10195  0  0.95547  0  0  0.112824  0  1.016959  0  0  0.11612  0  1.014791  0  0  0.107442  0.110458  0  1.018561  0
H  H39  1  0.32421516  0.24570331  0.28483006  1  0  0.101933  0  0.955351  0  0  0.112823  0  1.016823  0  0  0.116119  0  1.014656  0  0  0.107404  0.110459  0  1.01843  0
C  C40  1  0.84553338  0.63481725  0.78199042  1  0  0.064878  0  3.772062  0  0  0.079526  0  4.001653  0  0  0.081317  0  4.026052  0  0  -0.003364  0.078481  0  3.984976  0
C  C41  1  0.15449843  0.36518244  0.21800675  1  0  0.064931  0  3.772235  0  0  0.079685  0  4.001809  0  0  0.081474  0  4.026209  0  0  -0.003312  0.078639  0  3.985131  0
C  C42  1  0.89268606  0.45744984  0.77263040  1  0  -0.06261  0  3.75724  0  0  -0.086926  0  4.005033  0  0  -0.085911  0  4.025958  0  0  -0.08451  -0.087312  0  3.990742  0
C  C43  1  0.10728964  0.54253985  0.22735310  1  0  -0.062955  0  3.757382  0  0  -0.087264  0  4.005312  0  0  -0.086249  0  4.026234  0  0  -0.084646  -0.087649  0  3.991017  0
C  C44  1  0.89418659  0.62776045  0.69537614  1  0  -0.123782  0  3.712337  0  0  -0.142378  0  3.960008  0  0  -0.147275  0  3.980462  0  0  -0.089959  -0.139088  0  3.946155  0
C  C45  1  0.10584779  0.37224010  0.30462133  1  0  -0.124149  0  3.712795  0  0  -0.142673  0  3.960422  0  0  -0.147583  0  3.98087  0  0  -0.090003  -0.139377  0  3.946565  0
C  C46  1  0.94264142  0.45148636  0.68676079  1  0  -0.075107  0  3.783409  0  0  -0.052608  0  4.016058  0  0  -0.062524  0  4.041228  0  0  -0.023091  -0.046263  0  3.999133  0
C  C47  1  0.05737523  0.54850361  0.31322769  1  0  -0.07469  0  3.78261  0  0  -0.052464  0  4.015719  0  0  -0.062387  0  4.040903  0  0  -0.022877  -0.046116  0  3.998787  0
C  C48  1  0.52228136  0.02823474  0.82548853  1  0  -0.123053  0  3.742204  0  0  -0.140384  0  3.987844  0  0  -0.145805  0  4.009826  0  0  -0.091314  -0.136792  0  3.972912  0
C  C49  1  0.47771818  0.97177380  0.17452294  1  0  -0.123145  0  3.742327  0  0  -0.140355  0  3.987998  0  0  -0.14583  0  4.009943  0  0  -0.091467  -0.136767  0  3.973071  0
C  C50  1  0.44990417  0.08659800  0.77814667  1  0  -0.047809  0  3.740503  0  0  -0.071837  0  3.986468  0  0  -0.070153  0  4.007727  0  0  -0.078332  -0.07264  0  3.97199  0
C  C51  1  0.55007888  0.91340539  0.22186099  1  0  -0.047842  0  3.740698  0  0  -0.071958  0  3.986643  0  0  -0.070268  0  4.007902  0  0  -0.078403  -0.072745  0  3.97217  0
C  C52  1  0.59795320  0.94731378  0.78165089  1  0  0.07062  0  3.754404  0  0  0.085139  0  3.982804  0  0  0.087469  0  4.006736  0  0  0.001557  0.083707  0  3.966547  0
C  C53  1  0.40205647  0.05270086  0.21835463  1  0  0.070743  0  3.754341  0  0  0.08522  0  3.9828  0  0  0.087634  0  4.006619  0  0  0.001684  0.083771  0  3.966536  0
C  C54  1  0.35576628  0.11747210  0.63240902  1  0  0.636609  0  3.927216  0  0  0.590656  0  4.217921  0  0  0.624806  0  4.210165  0  0  0.191863  0.567595  0  4.222207  0
C  C55  1  0.64422316  0.88252775  0.36759163  1  0  0.636635  0  3.9271  0  0  0.590678  0  4.217814  0  0  0.624828  0  4.210046  0  0  0.191824  0.567621  0  4.222102  0
C  C56  1  0.91504551  0.06831665  0.20036547  1  0  -0.04245  0  3.729309  0  0  -0.067347  0  3.978489  0  0  -0.065175  0  3.999003  0  0  -0.074308  -0.06854  0  3.964582  0
C  C57  1  0.08493857  0.93167191  0.79963430  1  0  -0.042645  0  3.729072  0  0  -0.067596  0  3.978314  0  0  -0.065427  0  3.998823  0  0  -0.074307  -0.068788  0  3.964403  0
C  C58  1  0.59796329  0.92755153  0.68791609  1  0  -0.106861  0  3.708486  0  0  -0.126281  0  3.956037  0  0  -0.13154  0  3.977391  0  0  -0.085577  -0.122808  0  3.9416  0
C  C59  1  0.40203341  0.07244995  0.31208976  1  0  -0.106816  0  3.708515  0  0  -0.126189  0  3.95606  0  0  -0.131463  0  3.977397  0  0  -0.085568  -0.12272  0  3.941628  0
C  C60  1  0.72421258  0.92416682  0.92373083  1  0  -0.145515  0  3.691962  0  0  -0.173887  0  3.943158  0  0  -0.177046  0  3.963794  0  0  -0.08676  -0.171499  0  3.928993  0
C  C61  1  0.27578158  0.07583852  0.07627645  1  0  -0.145792  0  3.692421  0  0  -0.174079  0  3.943676  0  0  -0.177254  0  3.964329  0  0  -0.086796  -0.171714  0  3.9295  0
C  C62  1  0.96233182  0.00535899  0.25346027  1  0  -0.084246  0  3.766971  0  0  -0.062095  0  4.004898  0  0  -0.073115  0  4.030008  0  0  -0.017242  -0.055021  0  3.988085  0
C  C63  1  0.03764481  0.99464061  0.74653654  1  0  -0.083989  0  3.766721  0  0  -0.06189  0  4.004674  0  0  -0.072908  0  4.029783  0  0  -0.017255  -0.054813  0  3.987862  0
C  C64  1  0.44717624  0.06379686  0.68452643  1  0  -0.082626  0  3.780196  0  0  -0.05889  0  4.012777  0  0  -0.069182  0  4.037269  0  0  -0.025329  -0.052301  0  3.99633  0
C  C65  1  0.55280839  0.93619939  0.31548161  1  0  -0.082947  0  3.780382  0  0  -0.059167  0  4.012987  0  0  -0.069457  0  4.03747  0  0  -0.025418  -0.052586  0  3.996543  0
C  C66  1  0.80823920  0.87046263  0.97158465  1  0  0.05928  0  3.790664  0  0  0.067243  0  4.038904  0  0  0.066778  0  4.063642  0  0  -0.009974  0.067499  0  4.021957  0
C  C67  1  0.19176617  0.12953257  0.02842594  1  0  0.059332  0  3.790655  0  0  0.067183  0  4.038907  0  0  0.066737  0  4.063653  0  0  -0.010013  0.067453  0  4.02197  0
C  C68  1  0.52249042  0.98379218  0.64011669  1  0  -0.057208  0  3.7278  0  0  -0.081492  0  3.975771  0  0  -0.079252  0  3.994527  0  0  -0.083479  -0.082721  0  3.963098  0
C  C69  1  0.47748974  0.01619940  0.35988426  1  0  -0.057024  0  3.727957  0  0  -0.081353  0  3.975983  0  0  -0.079114  0  3.994734  0  0  -0.083471  -0.082579  0  3.96331  0
C  C70  1  0.84600353  0.54845575  0.81997263  1  0  -0.128418  0  3.764039  0  0  -0.146137  0  4.010788  0  0  -0.151315  0  4.032926  0  0  -0.094384  -0.142694  0  3.995657  0
C  C71  1  0.15399150  0.45154015  0.18000985  1  0  -0.128548  0  3.763868  0  0  -0.14628  0  4.010635  0  0  -0.151441  0  4.032755  0  0  -0.094454  -0.142835  0  3.995505  0
C  C72  1  0.96232869  0.89825323  0.21341355  1  0  -0.046457  0  3.716184  0  0  -0.074692  0  3.971303  0  0  -0.072119  0  3.990218  0  0  -0.072635  -0.076057  0  3.95828  0
C  C73  1  0.03769045  0.10174290  0.78658293  1  0  -0.046285  0  3.716248  0  0  -0.074446  0  3.971315  0  0  -0.071862  0  3.990208  0  0  -0.072472  -0.075811  0  3.958292  0
C  C74  1  0.67762894  0.88542550  0.83127749  1  0  0.058963  0  3.792243  0  0  0.074789  0  4.028017  0  0  0.074471  0  4.05239  0  0  -0.005807  0.074908  0  4.011433  0
C  C75  1  0.32237948  0.11458841  0.16872522  1  0  0.058958  0  3.792428  0  0  0.074753  0  4.028285  0  0  0.074407  0  4.052658  0  0  -0.005879  0.074926  0  4.011619  0
C  C76  1  0.94334372  0.53741098  0.64858016  1  0  -0.054911  0  3.730202  0  0  -0.07979  0  3.97842  0  0  -0.078394  0  3.998281  0  0  -0.080965  -0.08043  0  3.964855  0
C  C77  1  0.05668077  0.46258363  0.35141878  1  0  -0.054904  0  3.730322  0  0  -0.079734  0  3.978629  0  0  -0.078338  0  3.998499  0  0  -0.081132  -0.080374  0  3.965064  0
C  C78  1  0.99465996  0.35464964  0.63732959  1  0  0.652433  0  3.923408  0  0  0.608965  0  4.21029  0  0  0.643471  0  4.202433  0  0  0.197413  0.585692  0  4.214498  0
C  C79  1  0.00535773  0.64534561  0.36266792  1  0  0.652255  0  3.922932  0  0  0.608778  0  4.210006  0  0  0.643286  0  4.202139  0  0  0.197266  0.585503  0  4.214213  0
C  C80  1  0.00943227  0.05361779  0.35042149  1  0  0.68618  0  3.871284  0  0  0.63983  0  4.159878  0  0  0.675035  0  4.150549  0  0  0.217407  0.615957  0  4.165212  0
C  C81  1  0.99056050  0.94638477  0.64957343  1  0  0.685664  0  3.87134  0  0  0.639347  0  4.159943  0  0  0.67456  0  4.150612  0  0  0.217218  0.615469  0  4.165271  0
C  C82  1  0.91331631  0.85518612  0.12239628  1  0  -0.119829  0  3.729012  0  0  -0.136342  0  3.975211  0  0  -0.141728  0  3.995989  0  0  -0.088649  -0.132854  0  3.961148  0
C  C83  1  0.08668417  0.14481499  0.87760122  1  0  -0.119947  0  3.72889  0  0  -0.136533  0  3.975062  0  0  -0.141913  0  3.995844  0  0  -0.088678  -0.133043  0  3.961007  0
C  C84  1  0.86297291  0.91682865  0.06830913  1  0  0.063544  0  3.753974  0  0  0.078353  0  3.988914  0  0  0.080975  0  4.012389  0  0  0.000224  0.076759  0  3.972905  0
C  C85  1  0.13701026  0.08316672  0.93169993  1  0  0.063326  0  3.753646  0  0  0.078295  0  3.988433  0  0  0.080906  0  4.011916  0  0  0.00016  0.07669  0  3.972435  0
C  C86  1  0.84453273  0.77437227  0.92417030  1  0  -0.151652  0  3.698706  0  0  -0.178401  0  3.948898  0  0  -0.181636  0  3.969292  0  0  -0.087397  -0.175935  0  3.934837  0
C  C87  1  0.15548618  0.22564185  0.07583549  1  0  -0.151599  0  3.698391  0  0  -0.178213  0  3.948651  0  0  -0.181462  0  3.96905  0  0  -0.087237  -0.175777  0  3.934616  0
C  C88  1  0.86649409  0.02471399  0.10964363  1  0  -0.114677  0  3.744947  0  0  -0.133951  0  3.997236  0  0  -0.139419  0  4.019421  0  0  -0.08812  -0.130415  0  3.982239  0
C  C89  1  0.13347948  0.97528780  0.89035615  1  0  -0.114258  0  3.74493  0  0  -0.13354  0  3.997133  0  0  -0.139008  0  4.019326  0  0  -0.087999  -0.129994  0  3.982128  0
C  C90  1  0.79830881  0.73271533  0.83192994  1  0  0.055695  0  3.810401  0  0  0.071795  0  4.0461  0  0  0.071381  0  4.070486  0  0  -0.006684  0.072016  0  4.029395  0
C  C91  1  0.20170602  0.26728630  0.16806503  1  0  0.055772  0  3.81077  0  0  0.071616  0  4.046814  0  0  0.07121  0  4.071185  0  0  -0.006815  0.071848  0  4.030098  0
C  C92  1  0.71364416  0.78820183  0.78650181  1  0  -0.132599  0  3.672391  0  0  -0.163844  0  3.921692  0  0  -0.16639  0  3.941071  0  0  -0.079262  -0.161844  0  3.908368  0
C  C93  1  0.28636333  0.21180818  0.21349803  1  0  -0.132499  0  3.672421  0  0  -0.163658  0  3.921789  0  0  -0.166209  0  3.941178  0  0  -0.079108  -0.16168  0  3.908452  0
O  O94  1  0.33005117  0.29802200  0.50961717  1  0  -0.854104  0  1.790798  0  0  -0.810981  0  1.939176  0  0  -0.827763  0  1.911246  0  0  -0.601072  -0.798869  0  1.95886  0
O  O95  1  0.66994511  0.70198403  0.49037287  1  0  -0.854264  0  1.79059  0  0  -0.811174  0  1.939007  0  0  -0.827955  0  1.91106  0  0  -0.60105  -0.79904  0  1.958735  0
O  O96  1  0.01132967  0.99375531  0.40543502  1  0  -0.83561  0  2.095578  0  0  -0.77158  0  2.354853  0  0  -0.79735  0  2.343882  0  0  -0.441654  -0.75281  0  2.361734  0
O  O97  1  0.98866085  0.00624320  0.59455953  1  0  -0.835313  0  2.09588  0  0  -0.771244  0  2.355073  0  0  -0.797018  0  2.344099  0  0  -0.441514  -0.752474  0  2.361955  0
O  O98  1  0.32098853  0.07578317  0.54642862  1  0  -0.733339  0  2.040676  0  0  -0.669602  0  2.272716  0  0  -0.695604  0  2.262789  0  0  -0.382754  -0.65109  0  2.2789  0
O  O99  1  0.67901710  0.92421627  0.45357519  1  0  -0.733271  0  2.040439  0  0  -0.66957  0  2.272526  0  0  -0.695561  0  2.262601  0  0  -0.382698  -0.651043  0  2.278674  0
O  O100  1  0.78859792  0.13024164  0.51846816  1  0  -0.888927  0  1.82347  0  0  -0.842824  0  2.00347  0  0  -0.860926  0  1.975017  0  0  -0.631824  -0.829678  0  2.021701  0
O  O101  1  0.21138750  0.86975777  0.48154128  1  0  -0.88898  0  1.823442  0  0  -0.842938  0  2.003452  0  0  -0.861028  0  1.975003  0  0  -0.631959  -0.829791  0  2.021689  0
O  O102  1  0.30443884  0.19955738  0.67007494  1  0  -0.686902  0  1.927091  0  0  -0.640393  0  2.149226  0  0  -0.662853  0  2.139607  0  0  -0.37686  -0.624552  0  2.155423  0
O  O103  1  0.69554848  0.80044596  0.32991541  1  0  -0.686917  0  1.927057  0  0  -0.640402  0  2.149177  0  0  -0.662848  0  2.139562  0  0  -0.376865  -0.624563  0  2.15537  0
O  O104  1  0.06080502  0.35443083  0.56434926  1  0  -0.72438  0  1.93894  0  0  -0.668728  0  2.15949  0  0  -0.693345  0  2.147824  0  0  -0.388928  -0.651208  0  2.166891  0
O  O105  1  0.93922018  0.64555408  0.43565395  1  0  -0.724341  0  1.93863  0  0  -0.668632  0  2.159167  0  0  -0.693239  0  2.147508  0  0  -0.388713  -0.651108  0  2.16656  0
O  O106  1  0.04755954  0.15452096  0.38082204  1  0  -0.66936  0  1.95291  0  0  -0.616915  0  2.187591  0  0  -0.640608  0  2.177855  0  0  -0.369423  -0.600149  0  2.193741  0
O  O107  1  0.95239517  0.84546084  0.61916331  1  0  -0.669302  0  1.952545  0  0  -0.616843  0  2.187127  0  0  -0.640526  0  2.177396  0  0  -0.369432  -0.600086  0  2.19331  0
O  O108  1  0.97201896  0.27136332  0.66750588  1  0  -0.707344  0  1.958643  0  0  -0.654878  0  2.187687  0  0  -0.679184  0  2.176428  0  0  -0.390109  -0.637636  0  2.194794  0
O  O109  1  0.02797542  0.72863277  0.33249280  1  0  -0.707302  0  1.95863  0  0  -0.654828  0  2.187699  0  0  -0.679119  0  2.176443  0  0  -0.390168  -0.637589  0  2.194807  0
