# generated using pymatgen
data_CdP2H32C28S4(NO2)2
_symmetry_space_group_name_H-M   'P 1'
_cell_length_a   8.09733721
_cell_length_b   9.77294229
_cell_length_c   10.43958312
_cell_angle_alpha   91.67055591
_cell_angle_beta   101.52992939
_cell_angle_gamma   100.98369381
_symmetry_Int_Tables_number   1
_chemical_formula_structural   CdP2H32C28S4(NO2)2
_chemical_formula_sum   'Cd1 P2 H32 C28 S4 N2 O4'
_cell_volume   792.69146277
_cell_formula_units_Z   1
loop_
 _symmetry_equiv_pos_site_id
 _symmetry_equiv_pos_as_xyz
  1  'x, y, z'
loop_
 _atom_site_type_symbol
 _atom_site_label
 _atom_site_symmetry_multiplicity
 _atom_site_fract_x
 _atom_site_fract_y
 _atom_site_fract_z
 _atom_site_occupancy
 _atom_site_hle17_bader_spin_density
 _atom_site_hle17_ddec_charge
 _atom_site_hle17_ddec_spin_density
 _atom_site_hle17_ddec_sum_bond_order
 _atom_site_hle17_magmom
 _atom_site_hse06_10hf_bader_spin_density
 _atom_site_hse06_10hf_ddec_charge
 _atom_site_hse06_10hf_ddec_spin_density
 _atom_site_hse06_10hf_ddec_sum_bond_order
 _atom_site_hse06_10hf_magmom
 _atom_site_hse06_bader_spin_density
 _atom_site_hse06_ddec_charge
 _atom_site_hse06_ddec_spin_density
 _atom_site_hse06_ddec_sum_bond_order
 _atom_site_hse06_magmom
 _atom_site_pbe_bader_spin_density
 _atom_site_pbe_cm5_charge
 _atom_site_pbe_ddec_charge
 _atom_site_pbe_ddec_spin_density
 _atom_site_pbe_ddec_sum_bond_order
 _atom_site_pbe_magmom
Cd  Cd0  1  0.50000124  0.49999871  0.50000010  1  0  0.764504  0  2.210049  0  0  0.611908  0  2.664771  0  0  0.650056  0  2.639458  0  0  0.597312  0.58678  0  2.681765  0
P  P1  1  0.74262482  0.70920805  0.35558337  1  0  0.823217  0  4.655733  0  0  0.734304  0  5.127323  0  0  0.770461  0  5.116371  0  0  0.178727  0.708356  0  5.136259  0
P  P2  1  0.25737413  0.29079039  0.64441533  1  0  0.823255  0  4.655686  0  0  0.734344  0  5.127266  0  0  0.77047  0  5.116407  0  0  0.178736  0.708395  0  5.136199  0
H  H3  1  0.02464624  0.66088192  0.55216518  1  0  0.045988  0  0.953785  0  0  0.055156  0  1.02898  0  0  0.055708  0  1.028796  0  0  0.086293  0.055069  0  1.028864  0
H  H4  1  0.97535017  0.33911654  0.44783503  1  0  0.046024  0  0.95376  0  0  0.055193  0  1.028983  0  0  0.055747  0  1.028795  0  0  0.086287  0.055104  0  1.028869  0
H  H5  1  0.94352470  0.80468543  0.60712701  1  0  0.039374  0  0.940555  0  0  0.052189  0  1.007379  0  0  0.052779  0  1.006615  0  0  0.089  0.052043  0  1.007452  0
H  H6  1  0.05647046  0.19531302  0.39287300  1  0  0.039346  0  0.940587  0  0  0.052212  0  1.00739  0  0  0.052805  0  1.006623  0  0  0.089023  0.052064  0  1.007466  0
H  H7  1  0.28288143  0.82712967  0.50829670  1  0  0.101432  0  0.976507  0  0  0.123111  0  1.039838  0  0  0.124546  0  1.039627  0  0  0.077771  0.122062  0  1.040019  0
H  H8  1  0.71711625  0.17286880  0.49170467  1  0  0.101427  0  0.976474  0  0  0.123085  0  1.039828  0  0  0.124517  0  1.039624  0  0  0.077769  0.122036  0  1.040009  0
H  H9  1  0.26501332  0.85376879  0.67281271  1  0  0.117642  0  0.950695  0  0  0.137032  0  1.012094  0  0  0.138644  0  1.012169  0  0  0.090306  0.135457  0  1.012913  0
H  H10  1  0.73497932  0.14622964  0.32718594  1  0  0.117674  0  0.950636  0  0  0.13706  0  1.012031  0  0  0.138676  0  1.012104  0  0  0.090328  0.13549  0  1.012843  0
H  H11  1  0.19902053  0.97144845  0.55548490  1  0  0.109364  0  0.976078  0  0  0.125979  0  1.044068  0  0  0.127646  0  1.044218  0  0  0.079573  0.12451  0  1.044287  0
H  H12  1  0.80097539  0.02855314  0.44451625  1  0  0.109339  0  0.97615  0  0  0.125963  0  1.044109  0  0  0.127627  0  1.044263  0  0  0.079559  0.124492  0  1.044329  0
H  H13  1  0.91123594  0.95230245  0.23113817  1  0  0.093389  0  0.956701  0  0  0.104937  0  1.017714  0  0  0.108025  0  1.015211  0  0  0.104303  0.102968  0  1.019119  0
H  H14  1  0.08876047  0.04769600  0.76886204  1  0  0.093376  0  0.956688  0  0  0.104928  0  1.017698  0  0  0.108015  0  1.015197  0  0  0.104298  0.102959  0  1.019103  0
H  H15  1  0.83775553  0.03935989  0.01092043  1  0  0.102928  0  0.966622  0  0  0.11481  0  1.026431  0  0  0.117994  0  1.025616  0  0  0.101502  0.11267  0  1.026918  0
H  H16  1  0.16224416  0.96064171  0.98908132  1  0  0.102891  0  0.966672  0  0  0.11476  0  1.026494  0  0  0.117941  0  1.025682  0  0  0.101496  0.11262  0  1.026981  0
H  H17  1  0.39475014  0.70142923  0.90993869  1  0  0.116339  0  0.945926  0  0  0.125753  0  1.008012  0  0  0.129676  0  1.005946  0  0  0.102378  0.123062  0  1.009565  0
H  H18  1  0.60524857  0.29857338  0.09005909  1  0  0.116328  0  0.945859  0  0  0.125737  0  1.007961  0  0  0.129659  0  1.005895  0  0  0.102372  0.123046  0  1.009514  0
H  H19  1  0.47354119  0.61168573  0.12987347  1  0  0.088879  0  0.973027  0  0  0.098613  0  1.037229  0  0  0.100374  0  1.037822  0  0  0.096623  0.097518  0  1.036607  0
H  H20  1  0.52645322  0.38831479  0.87012455  1  0  0.088863  0  0.973089  0  0  0.098594  0  1.037288  0  0  0.100339  0  1.037896  0  0  0.096607  0.0975  0  1.036666  0
H  H21  1  0.67840558  0.12451578  0.83811547  1  0  0.07491  0  0.964621  0  0  0.090421  0  1.035086  0  0  0.08991  0  1.037016  0  0  0.090814  0.090547  0  1.034177  0
H  H22  1  0.32159487  0.87548373  0.16188540  1  0  0.074922  0  0.964618  0  0  0.090428  0  1.035089  0  0  0.089917  0  1.037019  0  0  0.09081  0.090554  0  1.034179  0
H  H23  1  0.59891539  0.04048730  0.67726968  1  0  0.104365  0  0.949846  0  0  0.120676  0  1.015071  0  0  0.121333  0  1.015319  0  0  0.099659  0.120613  0  1.014392  0
H  H24  1  0.40108684  0.95951429  0.32272959  1  0  0.104371  0  0.949834  0  0  0.120712  0  1.015022  0  0  0.121368  0  1.015273  0  0  0.09967  0.120651  0  1.014345  0
H  H25  1  0.79313647  0.00523366  0.77559879  1  0  0.074815  0  0.940889  0  0  0.091304  0  1.009422  0  0  0.091655  0  1.008554  0  0  0.093056  0.091507  0  1.009476  0
H  H26  1  0.20686702  0.99476792  0.22440069  1  0  0.07483  0  0.940854  0  0  0.091299  0  1.009402  0  0  0.091649  0  1.008535  0  0  0.093046  0.091502  0  1.009457  0
H  H27  1  0.19568703  0.66129112  0.36998984  1  0  0.078328  0  0.964508  0  0  0.08626  0  1.031121  0  0  0.088399  0  1.029205  0  0  0.11208  0.084733  0  1.032408  0
H  H28  1  0.80431417  0.33870631  0.63001207  1  0  0.078374  0  0.964513  0  0  0.086312  0  1.03111  0  0  0.08845  0  1.029198  0  0  0.112107  0.084784  0  1.032399  0
H  H29  1  0.99912325  0.67785975  0.16104835  1  0  0.103354  0  0.97428  0  0  0.111708  0  1.039382  0  0  0.114583  0  1.038647  0  0  0.103554  0.109531  0  1.040341  0
H  H30  1  0.00088580  0.32214394  0.83895110  1  0  0.103393  0  0.974276  0  0  0.111749  0  1.039374  0  0  0.114645  0  1.038577  0  0  0.103557  0.109539  0  1.040372  0
H  H31  1  0.14888810  0.31070362  0.01258781  1  0  0.0975  0  0.998952  0  0  0.105969  0  1.063763  0  0  0.107682  0  1.065721  0  0  0.100488  0.104625  0  1.062787  0
H  H32  1  0.85111084  0.68929484  0.98741280  1  0  0.097584  0  0.999006  0  0  0.106058  0  1.063784  0  0  0.107774  0  1.065738  0  0  0.100542  0.104711  0  1.062814  0
H  H33  1  0.33564672  0.30914659  0.23136082  1  0  0.077126  0  0.964173  0  0  0.080198  0  1.037749  0  0  0.083161  0  1.035172  0  0  0.107013  0.077018  0  1.041891  0
H  H34  1  0.66435172  0.69084977  0.76863967  1  0  0.077136  0  0.964197  0  0  0.080205  0  1.037781  0  0  0.083169  0  1.035203  0  0  0.107014  0.077025  0  1.041919  0
C  C35  1  0.02320679  0.77249582  0.54220119  1  0  0.167974  0  3.60721  0  0  0.115448  0  3.87192  0  0  0.124309  0  3.877335  0  0  -0.072458  0.109103  0  3.86838  0
C  C36  1  0.97679014  0.22750472  0.45779914  1  0  0.168008  0  3.607187  0  0  0.115362  0  3.872021  0  0  0.124227  0  3.87743  0  0  -0.072494  0.109021  0  3.868478  0
C  C37  1  0.20190102  0.86130894  0.57066180  1  0  -0.324054  0  3.689951  0  0  -0.39954  0  3.933524  0  0  -0.403002  0  3.942153  0  0  -0.257965  -0.39681  0  3.92826  0
C  C38  1  0.79809539  0.13868952  0.42934032  1  0  -0.324093  0  3.689884  0  0  -0.399533  0  3.933509  0  0  -0.402996  0  3.942133  0  0  -0.257966  -0.396802  0  3.928242  0
C  C39  1  0.69787217  0.77656766  0.19580034  1  0  -0.185776  0  3.789311  0  0  -0.15366  0  4.03739  0  0  -0.164056  0  4.061391  0  0  -0.039803  -0.146854  0  4.022667  0
C  C40  1  0.30212450  0.22343185  0.80420089  1  0  -0.185717  0  3.789233  0  0  -0.153624  0  4.037353  0  0  -0.164017  0  4.061347  0  0  -0.039757  -0.146812  0  4.022618  0
C  C41  1  0.79852175  0.89688722  0.16073074  1  0  -0.02848  0  3.766446  0  0  -0.051986  0  4.01896  0  0  -0.04763  0  4.036646  0  0  -0.084076  -0.054757  0  4.006797  0
C  C42  1  0.20147619  0.10311227  0.83926781  1  0  -0.028525  0  3.766402  0  0  -0.052022  0  4.018926  0  0  -0.047664  0  4.036605  0  0  -0.084102  -0.054793  0  4.006758  0
C  C43  1  0.75661223  0.94639692  0.03646186  1  0  -0.218364  0  3.760656  0  0  -0.235344  0  4.010797  0  0  -0.242674  0  4.03012  0  0  -0.113776  -0.229743  0  3.996771  0
C  C44  1  0.24339050  0.05360154  0.96353744  1  0  -0.218298  0  3.760651  0  0  -0.235261  0  4.010805  0  0  -0.242591  0  4.030133  0  0  -0.113747  -0.22966  0  3.996779  0
C  C45  1  0.60989502  0.87612214  0.94657840  1  0  0.278402  0  3.80981  0  0  0.268929  0  4.066521  0  0  0.282378  0  4.081953  0  0  0.087948  0.259768  0  4.055121  0
C  C46  1  0.39010595  0.12387944  0.05342068  1  0  0.278445  0  3.809819  0  0  0.268935  0  4.066556  0  0  0.282359  0  4.081991  0  0  0.087922  0.259773  0  4.055158  0
C  C47  1  0.50638018  0.75638892  0.98193556  1  0  -0.187199  0  3.732712  0  0  -0.20683  0  3.987044  0  0  -0.213218  0  4.004511  0  0  -0.102142  -0.202325  0  3.974877  0
C  C48  1  0.49361826  0.24361266  0.01806312  1  0  -0.187148  0  3.73267  0  0  -0.206771  0  3.987007  0  0  -0.21316  0  4.004476  0  0  -0.102138  -0.202267  0  3.974842  0
C  C49  1  0.55121527  0.70690844  0.10451372  1  0  -0.032464  0  3.770546  0  0  -0.050785  0  4.013577  0  0  -0.04773  0  4.034028  0  0  -0.082244  -0.052744  0  3.999952  0
C  C50  1  0.44878469  0.29309418  0.89548522  1  0  -0.032529  0  3.770569  0  0  -0.05084  0  4.013607  0  0  -0.047769  0  4.034058  0  0  -0.082265  -0.052801  0  3.999982  0
C  C51  1  0.66540614  0.02800746  0.77696889  1  0  -0.070489  0  3.622447  0  0  -0.167433  0  3.884103  0  0  -0.160596  0  3.889242  0  0  -0.142356  -0.172671  0  3.881859  0
C  C52  1  0.33459583  0.97199308  0.22303033  1  0  -0.070548  0  3.622471  0  0  -0.167512  0  3.884113  0  0  -0.160698  0  3.889243  0  0  -0.142393  -0.172753  0  3.881871  0
C  C53  1  0.18102865  0.58538341  0.28817009  1  0  0.132208  0  3.718552  0  0  0.099576  0  3.976845  0  0  0.106922  0  3.994023  0  0  0.045851  0.094947  0  3.964785  0
C  C54  1  0.81897258  0.41461397  0.71182607  1  0  0.132373  0  3.718385  0  0  0.099694  0  3.976651  0  0  0.107039  0  3.993831  0  0  0.045958  0.095065  0  3.964584  0
C  C55  1  0.07156757  0.59442831  0.16935657  1  0  -0.145857  0  3.694225  0  0  -0.164348  0  3.942763  0  0  -0.17061  0  3.961979  0  0  -0.082063  -0.160557  0  3.930229  0
C  C56  1  0.92843844  0.40557331  0.83064618  1  0  -0.145951  0  3.694127  0  0  -0.164432  0  3.942675  0  0  -0.170687  0  3.961902  0  0  -0.082075  -0.160615  0  3.930159  0
C  C57  1  0.05621259  0.49637059  0.06454412  1  0  0.094135  0  3.743294  0  0  0.107716  0  3.967178  0  0  0.111444  0  3.987979  0  0  0.01105  0.105277  0  3.952748  0
C  C58  1  0.94379191  0.50362995  0.93545454  1  0  0.094391  0  3.743182  0  0  0.107883  0  3.967142  0  0  0.11161  0  3.987944  0  0  0.011075  0.105446  0  3.952705  0
C  C59  1  0.15239922  0.39070720  0.08832173  1  0  -0.156785  0  3.695779  0  0  -0.171054  0  3.933598  0  0  -0.178203  0  3.955573  0  0  -0.085002  -0.166234  0  3.918774  0
C  C60  1  0.84760652  0.60929340  0.91168384  1  0  -0.156998  0  3.695826  0  0  -0.171261  0  3.933702  0  0  -0.178409  0  3.95567  0  0  -0.085148  -0.166443  0  3.918883  0
C  C61  1  0.25817269  0.38889327  0.21051448  1  0  0.120192  0  3.730889  0  0  0.090522  0  3.985387  0  0  0.097128  0  4.00307  0  0  0.04122  0.086247  0  3.974151  0
C  C62  1  0.74182651  0.61110624  0.78948619  1  0  0.120251  0  3.730893  0  0  0.090527  0  3.98536  0  0  0.097131  0  4.003044  0  0  0.041236  0.086252  0  3.974121  0
S  S63  1  0.59477930  0.77140521  0.47091088  1  0  -0.540731  0  1.95512  0  0  -0.496819  0  2.29709  0  0  -0.514996  0  2.286738  0  0  -0.201768  -0.48412  0  2.30615  0
S  S64  1  0.40521813  0.22859218  0.52908756  1  0  -0.540737  0  1.955144  0  0  -0.496807  0  2.297089  0  0  -0.51499  0  2.286777  0  0  -0.20175  -0.484107  0  2.306148  0
S  S65  1  0.72301094  0.50149520  0.33801758  1  0  -0.535846  0  1.911315  0  0  -0.492076  0  2.245657  0  0  -0.510531  0  2.236597  0  0  -0.210399  -0.480125  0  2.252972  0
S  S66  1  0.27698852  0.49850533  0.66198028  1  0  -0.535881  0  1.911312  0  0  -0.492105  0  2.245651  0  0  -0.510553  0  2.236601  0  0  -0.210422  -0.480151  0  2.252962  0
N  N67  1  0.27390852  0.48537600  0.30870995  1  0  -0.316601  0  3.304985  0  0  -0.242562  0  3.563251  0  0  -0.261212  0  3.584998  0  0  -0.328357  -0.229584  0  3.547986  0
N  N68  1  0.72609420  0.51462248  0.69129221  1  0  -0.316858  0  3.305068  0  0  -0.24267  0  3.563236  0  0  -0.261318  0  3.584981  0  0  -0.328424  -0.229692  0  3.547971  0
O  O69  1  0.94084157  0.78977412  0.40725704  1  0  -0.430884  0  2.253283  0  0  -0.34317  0  2.496728  0  0  -0.364772  0  2.494469  0  0  -0.215553  -0.327634  0  2.498164  0
O  O70  1  0.05915511  0.21022537  0.59274228  1  0  -0.430917  0  2.253261  0  0  -0.343173  0  2.496756  0  0  -0.364778  0  2.494499  0  0  -0.215539  -0.327639  0  2.498193  0
O  O71  1  0.55910648  0.91287971  0.82242011  1  0  -0.2506  0  2.350154  0  0  -0.170979  0  2.584785  0  0  -0.190581  0  2.589572  0  0  -0.179904  -0.156885  0  2.582993  0
O  O72  1  0.44089550  0.08712082  0.17757815  1  0  -0.250636  0  2.35026  0  0  -0.170963  0  2.584868  0  0  -0.190503  0  2.589618  0  0  -0.179845  -0.156863  0  2.583072  0
