# generated using pymatgen
data_Cu4H6C6N9Cl3O
_symmetry_space_group_name_H-M   'P 1'
_cell_length_a   6.03729285
_cell_length_b   11.50628616
_cell_length_c   11.50629515
_cell_angle_alpha   120.00027109
_cell_angle_beta   90.00011127
_cell_angle_gamma   89.99989726
_symmetry_Int_Tables_number   1
_chemical_formula_structural   Cu4H6C6N9Cl3O
_chemical_formula_sum   'Cu8 H12 C12 N18 Cl6 O2'
_cell_volume   692.21717211
_cell_formula_units_Z   2
loop_
 _symmetry_equiv_pos_site_id
 _symmetry_equiv_pos_as_xyz
  1  'x, y, z'
loop_
 _atom_site_type_symbol
 _atom_site_label
 _atom_site_symmetry_multiplicity
 _atom_site_fract_x
 _atom_site_fract_y
 _atom_site_fract_z
 _atom_site_occupancy
 _atom_site_pbe_bader_spin_density
 _atom_site_pbe_cm5_charge
 _atom_site_pbe_ddec_charge
 _atom_site_pbe_ddec_spin_density
 _atom_site_pbe_ddec_sum_bond_order
 _atom_site_pbe_magmom
Cu  Cu0  1  0.24999926  0.57007616  0.42991907  1  0  0.699887  0.767828  0  2.500974  0
Cu  Cu1  1  0.24999868  0.57007544  0.14015733  1  0  0.699892  0.767886  0  2.500759  0
Cu  Cu2  1  0.25000037  0.85983940  0.42992054  1  0  0.69997  0.767852  0  2.501112  0
Cu  Cu3  1  0.74999933  0.42992365  0.85984300  1  0  0.699943  0.767945  0  2.500967  0
Cu  Cu4  1  0.74999929  0.14016068  0.57008116  1  0  0.699936  0.767827  0  2.501042  0
Cu  Cu5  1  0.75000040  0.42992393  0.57008263  1  0  0.69991  0.767903  0  2.500773  0
Cu  Cu6  1  0.24999960  0.99999426  0.99999757  1  0  0.530257  0.291499  0  2.489051  0
Cu  Cu7  1  0.75000006  0.00000483  0.00000102  1  0  0.530268  0.291517  0  2.489077  0
H  H8  1  0.24999796  0.25168160  0.30963469  1  0  0.129064  0.11451  0  1.007574  0
H  H9  1  0.24999841  0.69036277  0.94205084  1  0  0.12909  0.114608  0  1.007561  0
H  H10  1  0.25000418  0.05794721  0.74831136  1  0  0.129088  0.114654  0  1.007497  0
H  H11  1  0.75000125  0.30963732  0.05795087  1  0  0.129078  0.114594  0  1.007532  0
H  H12  1  0.74999879  0.94204886  0.25168485  1  0  0.129069  0.114634  0  1.007494  0
H  H13  1  0.74999998  0.30963278  0.25168689  1  0  0.129093  0.114688  0  1.007474  0
H  H14  1  0.24999833  0.05794713  0.30963233  1  0  0.1291  0.114678  0  1.007487  0
H  H15  1  0.24999924  0.25168116  0.94205089  1  0  0.129083  0.114618  0  1.007468  0
H  H16  1  0.74999839  0.74831949  0.69037099  1  0  0.129085  0.114653  0  1.007494  0
H  H17  1  0.74999968  0.94205396  0.69036640  1  0  0.12908  0.114676  0  1.007478  0
H  H18  1  0.74999877  0.74831993  0.05795479  1  0  0.12906  0.114513  0  1.00756  0
H  H19  1  0.24999968  0.69036430  0.74831157  1  0  0.129099  0.114673  0  1.007526  0
C  C20  1  0.24999776  0.27930687  0.23252323  1  0  0.140695  0.144244  0  3.937571  0
C  C21  1  0.24999480  0.76747461  0.04678764  1  0  0.140439  0.143714  0  3.938115  0
C  C22  1  0.25000244  0.95321052  0.72068571  1  0  0.140385  0.143575  0  3.938019  0
C  C23  1  0.74999989  0.23252749  0.95321420  1  0  0.140539  0.143881  0  3.937965  0
C  C24  1  0.75000054  0.04678756  0.27931151  1  0  0.140464  0.143741  0  3.938085  0
C  C25  1  0.75000184  0.23252281  0.27931206  1  0  0.14045  0.143708  0  3.938049  0
C  C26  1  0.24999814  0.95321132  0.23252377  1  0  0.14043  0.143671  0  3.938038  0
C  C27  1  0.24999904  0.27930641  0.04678728  1  0  0.140655  0.144147  0  3.937499  0
C  C28  1  0.74999860  0.72069422  0.76748071  1  0  0.140581  0.143916  0  3.937684  0
C  C29  1  0.75000152  0.04678977  0.76747670  1  0  0.140468  0.143674  0  3.938022  0
C  C30  1  0.74999897  0.72069368  0.95321703  1  0  0.140683  0.144161  0  3.937518  0
C  C31  1  0.24999948  0.76747527  0.72068516  1  0  0.140423  0.143622  0  3.938109  0
N  N32  1  0.24999757  0.40693921  0.26208969  1  0  -0.283592  -0.157777  0  3.632145  0
N  N33  1  0.24999837  0.73790754  0.14485271  1  0  -0.28346  -0.157528  0  3.631999  0
N  N34  1  0.25000402  0.85514324  0.59305056  1  0  -0.283364  -0.157295  0  3.631732  0
N  N35  1  0.74999633  0.26209556  0.85514963  1  0  -0.28338  -0.157471  0  3.632185  0
N  N36  1  0.75000061  0.14485384  0.40694529  1  0  -0.283422  -0.157418  0  3.631964  0
N  N37  1  0.75000204  0.26208943  0.40694409  1  0  -0.283417  -0.157484  0  3.631929  0
N  N38  1  0.24999839  0.85514543  0.26209022  1  0  -0.283386  -0.157377  0  3.631898  0
N  N39  1  0.24999899  0.40693892  0.14485199  1  0  -0.283629  -0.157843  0  3.632074  0
N  N40  1  0.74999878  0.59305987  0.73791498  1  0  -0.283617  -0.157776  0  3.632302  0
N  N41  1  0.74999962  0.14485767  0.73791125  1  0  -0.283514  -0.157516  0  3.632156  0
N  N42  1  0.74999901  0.59306016  0.85514921  1  0  -0.283507  -0.157648  0  3.632181  0
N  N43  1  0.25000093  0.73790865  0.59305227  1  0  -0.283388  -0.157366  0  3.631842  0
N  N44  1  0.24999930  0.19549085  0.09774677  1  0  -0.396762  -0.308611  0  3.693654  0
N  N45  1  0.24999962  0.90224920  0.09774679  1  0  -0.396672  -0.308341  0  3.693867  0
N  N46  1  0.25000271  0.90225095  0.80450165  1  0  -0.396691  -0.308363  0  3.693958  0
N  N47  1  0.74999839  0.09775189  0.90225281  1  0  -0.396716  -0.308404  0  3.693935  0
N  N48  1  0.75000027  0.09774813  0.19549694  1  0  -0.396728  -0.308489  0  3.694048  0
N  N49  1  0.74999871  0.80450924  0.90225667  1  0  -0.396774  -0.308526  0  3.693685  0
Cl  Cl50  1  0.24999475  0.45360454  0.54638916  1  0  -0.285036  -0.522637  0  1.285646  0
Cl  Cl51  1  0.24999713  0.45359640  0.90720322  1  0  -0.285061  -0.522649  0  1.285441  0
Cl  Cl52  1  0.25000205  0.09277358  0.54638381  1  0  -0.285002  -0.522603  0  1.285751  0
Cl  Cl53  1  0.74999756  0.54639566  0.09278143  1  0  -0.285027  -0.522622  0  1.28565  0
Cl  Cl54  1  0.75000092  0.90722350  0.45361291  1  0  -0.285015  -0.522639  0  1.285745  0
Cl  Cl55  1  0.74999995  0.54639956  0.45360412  1  0  -0.285045  -0.52263  0  1.285442  0
O  O56  1  0.25000220  0.66666969  0.33333793  1  0  -0.50152  -0.707392  0  2.090198  0
O  O57  1  0.74999912  0.33333442  0.66667273  1  0  -0.50154  -0.707402  0  2.090195  0
