# generated using pymatgen
data_CoH14C10(N4O)2
_symmetry_space_group_name_H-M   'P 1'
_cell_length_a   7.38662985
_cell_length_b   7.50134162
_cell_length_c   8.03252202
_cell_angle_alpha   71.80805455
_cell_angle_beta   89.98004339
_cell_angle_gamma   60.73210693
_symmetry_Int_Tables_number   1
_chemical_formula_structural   CoH14C10(N4O)2
_chemical_formula_sum   'Co1 H14 C10 N8 O2'
_cell_volume   362.57408899
_cell_formula_units_Z   1
loop_
 _symmetry_equiv_pos_site_id
 _symmetry_equiv_pos_as_xyz
  1  'x, y, z'
loop_
 _atom_site_type_symbol
 _atom_site_label
 _atom_site_symmetry_multiplicity
 _atom_site_fract_x
 _atom_site_fract_y
 _atom_site_fract_z
 _atom_site_occupancy
 _atom_site_pbe_bader_charge
 _atom_site_pbe_bader_spin_density
 _atom_site_pbe_cm5_charge
 _atom_site_pbe_ddec_charge
 _atom_site_pbe_ddec_spin_density
 _atom_site_pbe_ddec_sum_bond_order
 _atom_site_pbe_magmom
Co  Co0  1  0.00000420  0.00000000  0.50000045  1  1.334554  2.582621  0.727429  1.034661  2.798411  2.583319  2.568
H  H1  1  0.76554970  0.46909884  0.23451831  1  0.139106  0.001707  0.119171  0.045532  0.000639  1.057753  0.001
H  H2  1  0.23445170  0.53089520  0.76548554  1  0.13907  0.001707  0.119171  0.045535  0.000639  1.05774  0.001
H  H3  1  0.76553592  0.46818430  0.71684006  1  0.087551  0.000111  0.105377  0.120824  0.0  1.025151  0.0
H  H4  1  0.23446902  0.53181626  0.28316187  1  0.087531  0.00011  0.105374  0.120806  0.0  1.025149  0.0
H  H5  1  0.75698137  0.24750316  0.87777937  1  0.058187  -7e-05  0.107662  0.128469  -0.000136  0.984582  0.0
H  H6  1  0.00487338  0.75033521  0.12329814  1  0.061893  -6.8e-05  0.107881  0.128806  -0.000134  0.984474  0.0
H  H7  1  0.24302872  0.75249248  0.12221903  1  0.05803  -7.1e-05  0.10766  0.12847  -0.000136  0.984555  0.0
H  H8  1  0.99513402  0.24966862  0.87670408  1  0.061839  -6.8e-05  0.107882  0.128781  -0.000134  0.984477  0.0
H  H9  1  0.61084051  0.77802320  0.01056982  1  0.052481  -1.2e-05  0.105748  0.118194  -5.7e-05  1.024516  0.0
H  H10  1  0.38915385  0.22197412  0.98943431  1  0.052472  -1.2e-05  0.105728  0.11819  -5.7e-05  1.024474  0.0
H  H11  1  0.49110186  0.77518469  0.81875778  1  0.091987  -6.4e-05  0.102344  0.121904  -0.000202  1.013277  0.0
H  H12  1  0.26718101  0.22339675  0.18168407  1  0.081158  -6.6e-05  0.102411  0.122039  -0.000206  1.014142  0.0
H  H13  1  0.50889521  0.22481263  0.18124635  1  0.091976  -6.4e-05  0.102335  0.121906  -0.000202  1.013275  0.0
H  H14  1  0.73281445  0.77660385  0.81832035  1  0.081223  -6.6e-05  0.102426  0.122037  -0.000206  1.014093  0.0
C  C15  1  0.23286046  0.22726604  0.57740945  1  1.530098  0.01013  0.311094  0.44986  0.004279  4.242963  0.01
C  C16  1  0.45895635  0.77317956  0.42228452  1  1.531196  0.009608  0.310874  0.44842  0.003956  4.241816  0.01
C  C17  1  0.76714449  0.77273451  0.42258378  1  1.530186  0.010127  0.311131  0.449964  0.004277  4.242682  0.01
C  C18  1  0.54104617  0.22682590  0.57770353  1  1.531286  0.009606  0.310768  0.448247  0.003955  4.24194  0.01
C  C19  1  0.81645239  0.36738834  0.15075991  1  1.309517  -0.002429  0.167842  0.285949  -0.002944  4.084412  -0.002
C  C20  1  0.18354685  0.63260734  0.84924346  1  1.309425  -0.002428  0.167803  0.28593  -0.002944  4.084403  -0.002
C  C21  1  0.82296486  0.35425681  0.85470150  1  0.279002  0.000379  -0.133095  -0.258365  9.8e-05  3.867589  0.0
C  C22  1  0.17704009  0.64574375  0.14530168  1  0.279051  0.000379  -0.133082  -0.258361  9.8e-05  3.867615  0.0
C  C23  1  0.64230192  0.71521516  0.90094644  1  0.233994  0.001208  -0.136912  -0.28774  0.000548  3.902359  0.001
C  C24  1  0.35769434  0.28478379  0.09905846  1  0.234024  0.001208  -0.136853  -0.287716  0.000548  3.902377  0.001
N  N25  1  0.09802323  0.20454762  0.52765059  1  -1.235488  0.05343  -0.376456  -0.554465  0.028067  3.217048  0.038
N  N26  1  0.30122724  0.79636984  0.47166656  1  -1.245274  0.053484  -0.375969  -0.553288  0.027954  3.217522  0.038
N  N27  1  0.90197468  0.79545623  0.47234790  1  -1.235621  0.053424  -0.376476  -0.554523  0.028065  3.216966  0.038
N  N28  1  0.69877365  0.20363891  0.52833423  1  -1.245407  0.053476  -0.375881  -0.553173  0.02795  3.21769  0.038
N  N29  1  0.37228124  0.25639727  0.64364478  1  -1.317114  0.019042  -0.305468  -0.390391  0.008404  3.524645  0.015
N  N30  1  0.62771369  0.74360985  0.35634777  1  -1.317137  0.019042  -0.305505  -0.390509  0.008403  3.524609  0.015
N  N31  1  0.76161193  0.47683552  0.97496991  1  -1.189728  0.000376  -0.282342  0.029373  -0.001064  3.709014  0.0
N  N32  1  0.23838920  0.52316178  0.02503423  1  -1.189466  0.000374  -0.282364  0.029315  -0.001064  3.709086  0.0
O  O33  1  0.91971449  0.16141400  0.21678296  1  -1.135788  0.061934  -0.29387  -0.472361  0.031595  2.397166  0.054
O  O34  1  0.08029343  0.83858329  0.78321745  1  -1.135811  0.061935  -0.29384  -0.472318  0.031596  2.39713  0.054
