# generated using pymatgen
data_NaH9C11O3
_symmetry_space_group_name_H-M   'P 1'
_cell_length_a   3.82071603
_cell_length_b   7.38991702
_cell_length_c   32.99312367
_cell_angle_alpha   89.99868651
_cell_angle_beta   90.89513267
_cell_angle_gamma   89.99905974
_symmetry_Int_Tables_number   1
_chemical_formula_structural   NaH9C11O3
_chemical_formula_sum   'Na4 H36 C44 O12'
_cell_volume   931.43971985
_cell_formula_units_Z   4
loop_
 _symmetry_equiv_pos_site_id
 _symmetry_equiv_pos_as_xyz
  1  'x, y, z'
loop_
 _atom_site_type_symbol
 _atom_site_label
 _atom_site_symmetry_multiplicity
 _atom_site_fract_x
 _atom_site_fract_y
 _atom_site_fract_z
 _atom_site_occupancy
 _atom_site_hle17_bader_spin_density
 _atom_site_hle17_ddec_charge
 _atom_site_hle17_ddec_spin_density
 _atom_site_hle17_ddec_sum_bond_order
 _atom_site_hle17_magmom
 _atom_site_hse06_10hf_bader_spin_density
 _atom_site_hse06_10hf_ddec_charge
 _atom_site_hse06_10hf_ddec_spin_density
 _atom_site_hse06_10hf_ddec_sum_bond_order
 _atom_site_hse06_10hf_magmom
 _atom_site_hse06_bader_spin_density
 _atom_site_hse06_ddec_charge
 _atom_site_hse06_ddec_spin_density
 _atom_site_hse06_ddec_sum_bond_order
 _atom_site_hse06_magmom
 _atom_site_pbe_bader_spin_density
 _atom_site_pbe_cm5_charge
 _atom_site_pbe_ddec_charge
 _atom_site_pbe_ddec_spin_density
 _atom_site_pbe_ddec_sum_bond_order
 _atom_site_pbe_magmom
Na  Na0  1  0.22698009  0.31756302  0.02195282  1  0  0.906405  0  0.37329  0  0  0.864788  0  0.518887  0  0  0.875793  0  0.495828  0  0  0.688929  0.856606  0  0.535506  0
Na  Na1  1  0.27301865  0.81755197  0.47805012  1  0  0.906405  0  0.373309  0  0  0.864797  0  0.518891  0  0  0.875805  0  0.495832  0  0  0.688973  0.856622  0  0.535506  0
Na  Na2  1  0.77301301  0.68244160  0.97804452  1  0  0.906452  0  0.373247  0  0  0.864793  0  0.51891  0  0  0.875801  0  0.495849  0  0  0.688942  0.856608  0  0.535529  0
Na  Na3  1  0.72697262  0.18244048  0.52195934  1  0  0.906428  0  0.373271  0  0  0.864805  0  0.518866  0  0  0.875815  0  0.495807  0  0  0.688959  0.856624  0  0.535483  0
H  H4  1  0.94369173  0.96088233  0.04984246  1  0  0.419496  0  0.883199  0  0  0.393058  0  0.940481  0  0  0.402805  0  0.926054  0  0  0.292852  0.386173  0  0.950673  0
H  H5  1  0.55629895  0.46087426  0.45015471  1  0  0.419464  0  0.883235  0  0  0.393074  0  0.940413  0  0  0.402813  0  0.926001  0  0  0.292843  0.386196  0  0.950595  0
H  H6  1  0.05632482  0.03910876  0.95015338  1  0  0.419548  0  0.883135  0  0  0.393128  0  0.940383  0  0  0.402873  0  0.925958  0  0  0.29287  0.386238  0  0.950583  0
H  H7  1  0.44370485  0.53912089  0.54984627  1  0  0.419529  0  0.88314  0  0  0.393117  0  0.940363  0  0  0.40286  0  0.925943  0  0  0.292856  0.386235  0  0.950554  0
H  H8  1  0.34411724  0.95043694  0.04980115  1  0  0.419313  0  0.88879  0  0  0.391659  0  0.948053  0  0  0.402151  0  0.932565  0  0  0.288874  0.384248  0  0.958982  0
H  H9  1  0.15588478  0.45042935  0.45019503  1  0  0.419345  0  0.88872  0  0  0.391703  0  0.947982  0  0  0.402198  0  0.932488  0  0  0.288887  0.384292  0  0.958914  0
H  H10  1  0.65589918  0.04955686  0.95019257  1  0  0.419206  0  0.888922  0  0  0.391628  0  0.948099  0  0  0.402123  0  0.932603  0  0  0.288858  0.384211  0  0.959036  0
H  H11  1  0.84412953  0.54956581  0.54980657  1  0  0.41941  0  0.888653  0  0  0.391714  0  0.947989  0  0  0.402209  0  0.932493  0  0  0.288903  0.384301  0  0.958922  0
H  H12  1  0.64754426  0.10953238  0.88683264  1  0  0.096623  0  0.986883  0  0  0.106412  0  1.051253  0  0  0.109491  0  1.048468  0  0  0.104063  0.104148  0  1.053304  0
H  H13  1  0.85241412  0.60954969  0.61316006  1  0  0.096546  0  0.986881  0  0  0.106344  0  1.051256  0  0  0.109423  0  1.048468  0  0  0.104064  0.104098  0  1.053266  0
H  H14  1  0.35247184  0.89046007  0.11315623  1  0  0.096482  0  0.98697  0  0  0.106332  0  1.051257  0  0  0.109409  0  1.048476  0  0  0.10405  0.104068  0  1.053306  0
H  H15  1  0.14751140  0.39045223  0.38684449  1  0  0.096423  0  0.98683  0  0  0.106244  0  1.051166  0  0  0.109319  0  1.048388  0  0  0.104034  0.10398  0  1.053213  0
H  H16  1  0.74643382  0.20278186  0.80950801  1  0  0.094256  0  0.978574  0  0  0.106451  0  1.041307  0  0  0.108905  0  1.041542  0  0  0.093924  0.104681  0  1.041273  0
H  H17  1  0.75345109  0.70277997  0.69048625  1  0  0.094279  0  0.978528  0  0  0.10649  0  1.041236  0  0  0.108946  0  1.041467  0  0  0.093918  0.104713  0  1.041215  0
H  H18  1  0.25353003  0.79723089  0.19048232  1  0  0.094151  0  0.978441  0  0  0.10636  0  1.041172  0  0  0.10881  0  1.041417  0  0  0.09388  0.104583  0  1.04114  0
H  H19  1  0.24646410  0.29723006  0.30952041  1  0  0.094246  0  0.978496  0  0  0.106395  0  1.041289  0  0  0.108863  0  1.041483  0  0  0.093863  0.104615  0  1.041258  0
H  H20  1  0.62950422  0.48412203  0.76504569  1  0  0.076871  0  0.964349  0  0  0.088656  0  1.02916  0  0  0.091061  0  1.027649  0  0  0.098258  0.086967  0  1.030173  0
H  H21  1  0.87041397  0.98411865  0.73495079  1  0  0.07693  0  0.964319  0  0  0.08867  0  1.029175  0  0  0.091042  0  1.027735  0  0  0.098205  0.086984  0  1.030177  0
H  H22  1  0.37047549  0.51590154  0.23494709  1  0  0.07684  0  0.964422  0  0  0.088562  0  1.029309  0  0  0.090937  0  1.027868  0  0  0.098163  0.086876  0  1.030312  0
H  H23  1  0.12954008  0.01592251  0.26504984  1  0  0.076891  0  0.964269  0  0  0.088608  0  1.029163  0  0  0.090981  0  1.02772  0  0  0.098151  0.086928  0  1.030173  0
H  H24  1  0.42262211  0.77695244  0.74974371  1  0  0.072498  0  0.975892  0  0  0.082463  0  1.044314  0  0  0.085344  0  1.04332  0  0  0.092849  0.080426  0  1.045081  0
H  H25  1  0.07729815  0.27695102  0.75025673  1  0  0.072557  0  0.975792  0  0  0.082503  0  1.044227  0  0  0.085379  0  1.043242  0  0  0.09288  0.080464  0  1.044991  0
H  H26  1  0.57730033  0.22306571  0.25025387  1  0  0.072537  0  0.975825  0  0  0.082446  0  1.044304  0  0  0.085322  0  1.043317  0  0  0.092824  0.080408  0  1.045067  0
H  H27  1  0.92269253  0.72307119  0.24974363  1  0  0.072506  0  0.975859  0  0  0.082406  0  1.044358  0  0  0.085283  0  1.04337  0  0  0.092813  0.080369  0  1.045123  0
H  H28  1  0.18654402  0.99084402  0.79396975  1  0  0.066663  0  0.974237  0  0  0.077555  0  1.041133  0  0  0.07989  0  1.039876  0  0  0.094823  0.075884  0  1.04206  0
H  H29  1  0.31345877  0.49082609  0.70603360  1  0  0.066688  0  0.974144  0  0  0.077602  0  1.041  0  0  0.079935  0  1.039748  0  0  0.094888  0.075937  0  1.041922  0
H  H30  1  0.81344949  0.00918767  0.20603395  1  0  0.06672  0  0.97424  0  0  0.077628  0  1.041098  0  0  0.07997  0  1.03982  0  0  0.094899  0.075958  0  1.042022  0
H  H31  1  0.68655534  0.50918259  0.29396497  1  0  0.066677  0  0.974083  0  0  0.077608  0  1.040906  0  0  0.079938  0  1.039662  0  0  0.094864  0.075941  0  1.041826  0
H  H32  1  0.06331724  0.96377310  0.86253824  1  0  0.086531  0  0.972979  0  0  0.09743  0  1.035636  0  0  0.100051  0  1.035168  0  0  0.101198  0.095564  0  1.036028  0
H  H33  1  0.43667843  0.46379220  0.63746342  1  0  0.086464  0  0.972947  0  0  0.097353  0  1.035607  0  0  0.09996  0  1.035199  0  0  0.101161  0.095484  0  1.036002  0
H  H34  1  0.93668670  0.03622340  0.13746486  1  0  0.0866  0  0.972863  0  0  0.097461  0  1.035555  0  0  0.100085  0  1.03508  0  0  0.101227  0.095593  0  1.035951  0
H  H35  1  0.56330935  0.53619889  0.36253270  1  0  0.086489  0  0.972913  0  0  0.097377  0  1.035617  0  0  0.100011  0  1.035146  0  0  0.101152  0.095503  0  1.036026  0
H  H36  1  0.15269438  0.72019266  0.90598244  1  0  0.097117  0  0.98221  0  0  0.103813  0  1.049236  0  0  0.108063  0  1.04519  0  0  0.110478  0.100763  0  1.052089  0
H  H37  1  0.34726155  0.22021156  0.59401620  1  0  0.096969  0  0.982168  0  0  0.103676  0  1.04922  0  0  0.107934  0  1.045166  0  0  0.110434  0.100625  0  1.052075  0
H  H38  1  0.84729346  0.27980114  0.09401459  1  0  0.097082  0  0.982151  0  0  0.103793  0  1.04918  0  0  0.108047  0  1.04514  0  0  0.110453  0.100742  0  1.052035  0
H  H39  1  0.65274749  0.77977006  0.40598479  1  0  0.097074  0  0.98223  0  0  0.103841  0  1.049177  0  0  0.108098  0  1.045131  0  0  0.11046  0.100789  0  1.052033  0
C  C40  1  0.43193752  0.38514766  0.89467776  1  0  -0.17983  0  3.740413  0  0  -0.165212  0  3.987614  0  0  -0.180765  0  4.016055  0  0  -0.039903  -0.154922  0  3.968264  0
C  C41  1  0.06813915  0.88514525  0.60532439  1  0  -0.179824  0  3.740474  0  0  -0.165203  0  3.987598  0  0  -0.180757  0  4.016034  0  0  -0.039856  -0.154918  0  3.968253  0
C  C42  1  0.56811318  0.61485291  0.10531993  1  0  -0.179636  0  3.740283  0  0  -0.16505  0  3.987423  0  0  -0.180604  0  4.015869  0  0  -0.039831  -0.154759  0  3.96807  0
C  C43  1  0.93185195  0.11483637  0.39468235  1  0  -0.179769  0  3.74017  0  0  -0.1653  0  3.987348  0  0  -0.180832  0  4.015804  0  0  -0.039859  -0.155014  0  3.967983  0
C  C44  1  0.58262736  0.23918299  0.87317707  1  0  -0.037186  0  3.71161  0  0  -0.0648  0  3.967181  0  0  -0.061373  0  3.988807  0  0  -0.080142  -0.066756  0  3.952228  0
C  C45  1  0.91741909  0.73917804  0.62682322  1  0  -0.037123  0  3.711599  0  0  -0.064776  0  3.967208  0  0  -0.061343  0  3.988827  0  0  -0.080206  -0.066727  0  3.952259  0
C  C46  1  0.41744414  0.76082705  0.12681852  1  0  -0.037162  0  3.711955  0  0  -0.064824  0  3.967581  0  0  -0.061401  0  3.989217  0  0  -0.080219  -0.066779  0  3.952621  0
C  C47  1  0.08255636  0.26080900  0.37318440  1  0  -0.036961  0  3.711516  0  0  -0.06457  0  3.967113  0  0  -0.061146  0  3.988748  0  0  -0.080248  -0.066524  0  3.952147  0
C  C48  1  0.63300932  0.28742759  0.83281704  1  0  -0.192662  0  3.761543  0  0  -0.2134  0  4.021775  0  0  -0.223206  0  4.048265  0  0  -0.1196  -0.206703  0  4.003565  0
C  C49  1  0.86699630  0.78741761  0.66718205  1  0  -0.192754  0  3.761504  0  0  -0.21349  0  4.021734  0  0  -0.223287  0  4.048193  0  0  -0.119631  -0.206794  0  4.00353  0
C  C50  1  0.36704121  0.71258786  0.16717792  1  0  -0.192545  0  3.761706  0  0  -0.213313  0  4.022011  0  0  -0.223111  0  4.04848  0  0  -0.119513  -0.20661  0  4.003805  0
C  C51  1  0.13296319  0.21257754  0.33282162  1  0  -0.192787  0  3.761663  0  0  -0.213513  0  4.021965  0  0  -0.223304  0  4.048439  0  0  -0.119524  -0.206808  0  4.003756  0
C  C52  1  0.51609635  0.55925876  0.79020701  1  0  -0.063261  0  3.738416  0  0  -0.07775  0  3.979316  0  0  -0.076543  0  3.998716  0  0  -0.070278  -0.078499  0  3.966123  0
C  C53  1  0.98392168  0.05924572  0.70979358  1  0  -0.063317  0  3.738488  0  0  -0.07776  0  3.979401  0  0  -0.076548  0  3.998777  0  0  -0.070223  -0.078505  0  3.9662  0
C  C54  1  0.48394116  0.44074722  0.20978916  1  0  -0.06327  0  3.73904  0  0  -0.077704  0  3.979913  0  0  -0.076497  0  3.999297  0  0  -0.070188  -0.07845  0  3.966714  0
C  C55  1  0.01608478  0.94076973  0.29020801  1  0  -0.063207  0  3.738507  0  0  -0.07763  0  3.979386  0  0  -0.076419  0  3.998766  0  0  -0.070127  -0.078394  0  3.966207  0
C  C56  1  0.39704202  0.73324952  0.78121442  1  0  -0.091381  0  3.793037  0  0  -0.105739  0  4.04559  0  0  -0.110287  0  4.068043  0  0  -0.097212  -0.102603  0  4.030296  0
C  C57  1  0.10296346  0.23323078  0.71878754  1  0  -0.091447  0  3.793015  0  0  -0.105793  0  4.045573  0  0  -0.110338  0  4.068018  0  0  -0.097246  -0.102652  0  4.030277  0
C  C58  1  0.60296428  0.26677270  0.21878475  1  0  -0.091423  0  3.793098  0  0  -0.105735  0  4.045663  0  0  -0.110276  0  4.06811  0  0  -0.097158  -0.102596  0  4.030365  0
C  C59  1  0.89704552  0.76677249  0.28121254  1  0  -0.091443  0  3.792901  0  0  -0.105754  0  4.045463  0  0  -0.110293  0  4.067901  0  0  -0.097198  -0.102617  0  4.030173  0
C  C60  1  0.25184625  0.86002290  0.80751384  1  0  -0.034768  0  3.766576  0  0  -0.046365  0  4.012378  0  0  -0.04528  0  4.033603  0  0  -0.077083  -0.046969  0  3.997866  0
C  C61  1  0.24816321  0.36000557  0.69248928  1  0  -0.034747  0  3.766389  0  0  -0.046355  0  4.012209  0  0  -0.045268  0  4.03344  0  0  -0.077167  -0.046962  0  3.997697  0
C  C62  1  0.74818629  0.13999120  0.19248626  1  0  -0.034658  0  3.766296  0  0  -0.046276  0  4.012064  0  0  -0.045186  0  4.033287  0  0  -0.077145  -0.046877  0  3.997547  0
C  C63  1  0.75183805  0.63999770  0.30751291  1  0  -0.034716  0  3.766507  0  0  -0.04632  0  4.012304  0  0  -0.045239  0  4.03354  0  0  -0.077151  -0.046922  0  3.997786  0
C  C64  1  0.17893417  0.84467860  0.84860812  1  0  -0.060979  0  3.732429  0  0  -0.074287  0  3.980841  0  0  -0.07837  0  4.003055  0  0  -0.082494  -0.071518  0  3.965802  0
C  C65  1  0.32110449  0.34467835  0.65139390  1  0  -0.060821  0  3.732167  0  0  -0.074117  0  3.980619  0  0  -0.078216  0  4.002835  0  0  -0.082382  -0.071352  0  3.96559  0
C  C66  1  0.82109061  0.15533550  0.15139349  1  0  -0.061147  0  3.732452  0  0  -0.074399  0  3.98084  0  0  -0.078489  0  4.003066  0  0  -0.082545  -0.071629  0  3.965799  0
C  C67  1  0.67892809  0.65531410  0.34860681  1  0  -0.060988  0  3.73247  0  0  -0.074328  0  3.980933  0  0  -0.078425  0  4.003169  0  0  -0.082431  -0.071558  0  3.965884  0
C  C68  1  0.23371079  0.69859284  0.87485454  1  0  -0.039376  0  3.679712  0  0  -0.058536  0  3.926891  0  0  -0.056271  0  3.94277  0  0  -0.053779  -0.059995  0  3.916202  0
C  C69  1  0.26633767  0.19858762  0.62514794  1  0  -0.039131  0  3.679708  0  0  -0.058337  0  3.926899  0  0  -0.05607  0  3.942773  0  0  -0.053766  -0.059799  0  3.916215  0
C  C70  1  0.76632690  0.30140773  0.12514436  1  0  -0.039212  0  3.679551  0  0  -0.058454  0  3.92672  0  0  -0.056198  0  3.942614  0  0  -0.053731  -0.059913  0  3.91603  0
C  C71  1  0.73368195  0.80139129  0.37485487  1  0  -0.039015  0  3.679621  0  0  -0.058287  0  3.926706  0  0  -0.056017  0  3.942615  0  0  -0.053658  -0.05975  0  3.916  0
C  C72  1  0.38201245  0.53065296  0.86681396  1  0  0.057951  0  3.715143  0  0  0.066995  0  3.944169  0  0  0.06838  0  3.969317  0  0  0.005998  0.066038  0  3.927294  0
C  C73  1  0.11804131  0.03065364  0.63318970  1  0  0.057768  0  3.715486  0  0  0.066866  0  3.944453  0  0  0.06825  0  3.969601  0  0  0.00602  0.065909  0  3.927581  0
C  C74  1  0.61804361  0.46935302  0.13318556  1  0  0.05778  0  3.715107  0  0  0.066946  0  3.944003  0  0  0.068325  0  3.969158  0  0  0.005995  0.065993  0  3.927124  0
C  C75  1  0.88196017  0.96933610  0.36681583  1  0  0.057695  0  3.715326  0  0  0.066969  0  3.944095  0  0  0.068298  0  3.969321  0  0  0.005969  0.066041  0  3.92718  0
C  C76  1  0.51194939  0.46629375  0.82697604  1  0  0.060026  0  3.772869  0  0  0.075453  0  4.002664  0  0  0.075901  0  4.02825  0  0  -0.005723  0.075133  0  3.985403  0
C  C77  1  0.98808475  0.96628618  0.67302397  1  0  0.060055  0  3.772984  0  0  0.075432  0  4.002812  0  0  0.075884  0  4.028391  0  0  -0.00568  0.075111  0  3.985555  0
C  C78  1  0.48810389  0.53371899  0.17302105  1  0  0.060068  0  3.772999  0  0  0.075477  0  4.002755  0  0  0.075933  0  4.028331  0  0  -0.005682  0.075156  0  3.985493  0
C  C79  1  0.01188247  0.03370898  0.32697789  1  0  0.059985  0  3.773016  0  0  0.075355  0  4.002748  0  0  0.075822  0  4.028337  0  0  -0.005738  0.075029  0  3.985479  0
C  C80  1  0.34444989  0.37684804  0.93794502  1  0  0.679704  0  3.943111  0  0  0.631177  0  4.242314  0  0  0.665826  0  4.23331  0  0  0.193722  0.607747  0  4.24763  0
C  C81  1  0.15559298  0.87686281  0.56205654  1  0  0.679452  0  3.943439  0  0  0.630946  0  4.242624  0  0  0.665591  0  4.233621  0  0  0.193635  0.607524  0  4.247932  0
C  C82  1  0.65554581  0.62313628  0.06205202  1  0  0.67949  0  3.943325  0  0  0.630967  0  4.242527  0  0  0.665613  0  4.233533  0  0  0.193487  0.607538  0  4.247835  0
C  C83  1  0.84440859  0.12311881  0.43795020  1  0  0.679493  0  3.943332  0  0  0.63109  0  4.242416  0  0  0.665725  0  4.233423  0  0  0.193696  0.607663  0  4.247722  0
O  O84  1  0.25886627  0.52071373  0.95726221  1  0  -0.805213  0  1.93578  0  0  -0.761777  0  2.188436  0  0  -0.782462  0  2.170957  0  0  -0.485257  -0.747199  0  2.199923  0
O  O85  1  0.24116430  0.02072931  0.54274239  1  0  -0.804962  0  1.935846  0  0  -0.761549  0  2.18847  0  0  -0.782239  0  2.171018  0  0  -0.485191  -0.746963  0  2.199938  0
O  O86  1  0.74111387  0.47926518  0.04273723  1  0  -0.80508  0  1.935723  0  0  -0.761658  0  2.188372  0  0  -0.782335  0  2.170881  0  0  -0.485199  -0.7471  0  2.199902  0
O  O87  1  0.75887123  0.97923742  0.45726348  1  0  -0.805186  0  1.935761  0  0  -0.761803  0  2.188306  0  0  -0.782489  0  2.170865  0  0  -0.485278  -0.747271  0  2.199892  0
O  O88  1  0.36147743  0.22264774  0.95621288  1  0  -0.731993  0  1.997751  0  0  -0.666097  0  2.219279  0  0  -0.690515  0  2.20453  0  0  -0.383548  -0.649079  0  2.229044  0
O  O89  1  0.13848092  0.72268076  0.54378394  1  0  -0.731949  0  1.997672  0  0  -0.666038  0  2.219171  0  0  -0.690442  0  2.204422  0  0  -0.383662  -0.649029  0  2.228926  0
O  O90  1  0.63847610  0.77732576  0.04377987  1  0  -0.731987  0  1.997656  0  0  -0.666035  0  2.21915  0  0  -0.690457  0  2.204409  0  0  -0.383505  -0.649022  0  2.228908  0
O  O91  1  0.86147600  0.27730357  0.45622064  1  0  -0.731809  0  1.997697  0  0  -0.665962  0  2.21915  0  0  -0.690366  0  2.204412  0  0  -0.383587  -0.64895  0  2.228906  0
O  O92  1  0.15115680  0.04026372  0.05197274  1  0  -0.896848  0  1.720651  0  0  -0.852013  0  1.87539  0  0  -0.868625  0  1.843501  0  0  -0.670938  -0.840191  0  1.897699  0
O  O93  1  0.34882929  0.54026183  0.44802526  1  0  -0.896822  0  1.720679  0  0  -0.852007  0  1.87536  0  0  -0.868632  0  1.843512  0  0  -0.67088  -0.840191  0  1.897652  0
O  O94  1  0.84885970  0.95972602  0.94802219  1  0  -0.896809  0  1.720653  0  0  -0.852018  0  1.875213  0  0  -0.86865  0  1.843365  0  0  -0.670956  -0.840189  0  1.897537  0
O  O95  1  0.65117727  0.45973739  0.55197785  1  0  -0.896976  0  1.720542  0  0  -0.852084  0  1.875273  0  0  -0.868723  0  1.843447  0  0  -0.670933  -0.84027  0  1.897574  0
