# generated using pymatgen
data_Hg2H14C14Se(SN2)4
_symmetry_space_group_name_H-M   'P 1'
_cell_length_a   9.40232341
_cell_length_b   10.41401512
_cell_length_c   12.89420789
_cell_angle_alpha   111.04485698
_cell_angle_beta   98.11423338
_cell_angle_gamma   91.74825729
_symmetry_Int_Tables_number   1
_chemical_formula_structural   Hg2H14C14Se(SN2)4
_chemical_formula_sum   'Hg4 H28 C28 Se2 S8 N16'
_cell_volume   1162.02629267
_cell_formula_units_Z   2
loop_
 _symmetry_equiv_pos_site_id
 _symmetry_equiv_pos_as_xyz
  1  'x, y, z'
loop_
 _atom_site_type_symbol
 _atom_site_label
 _atom_site_symmetry_multiplicity
 _atom_site_fract_x
 _atom_site_fract_y
 _atom_site_fract_z
 _atom_site_occupancy
 _atom_site_hle17_bader_spin_density
 _atom_site_hle17_ddec_charge
 _atom_site_hle17_ddec_spin_density
 _atom_site_hle17_ddec_sum_bond_order
 _atom_site_hle17_magmom
 _atom_site_hse06_10hf_bader_spin_density
 _atom_site_hse06_10hf_ddec_charge
 _atom_site_hse06_10hf_ddec_spin_density
 _atom_site_hse06_10hf_ddec_sum_bond_order
 _atom_site_hse06_10hf_magmom
 _atom_site_hse06_bader_spin_density
 _atom_site_hse06_ddec_charge
 _atom_site_hse06_ddec_spin_density
 _atom_site_hse06_ddec_sum_bond_order
 _atom_site_hse06_magmom
 _atom_site_pbe_bader_spin_density
 _atom_site_pbe_cm5_charge
 _atom_site_pbe_ddec_charge
 _atom_site_pbe_ddec_spin_density
 _atom_site_pbe_ddec_sum_bond_order
 _atom_site_pbe_magmom
Hg  Hg0  1  0.79783423  0.35028433  0.77556482  1  0  0.65777  0  2.064724  0  0  0.500429  0  2.547051  0  0  0.541826  0  2.522814  0  0  0.558883  0.472326  0  2.56305  0
Hg  Hg1  1  0.20216656  0.64971789  0.22443535  1  0  0.657783  0  2.064732  0  0  0.500442  0  2.547066  0  0  0.541843  0  2.522826  0  0  0.558881  0.472342  0  2.563066  0
Hg  Hg2  1  0.34024269  0.17988826  0.92447451  1  0  0.673899  0  2.112017  0  0  0.542277  0  2.593128  0  0  0.58122  0  2.568689  0  0  0.539761  0.515444  0  2.610055  0
Hg  Hg3  1  0.65975870  0.82010879  0.07552578  1  0  0.673923  0  2.111999  0  0  0.542308  0  2.593115  0  0  0.581251  0  2.568676  0  0  0.539768  0.515475  0  2.610044  0
H  H4  1  0.00376893  0.64818506  0.84898013  1  0  0.296995  0  0.946266  0  0  0.274586  0  1.015371  0  0  0.282878  0  1.008474  0  0  0.308617  0.268749  0  1.020247  0
H  H5  1  0.99623274  0.35181509  0.15101954  1  0  0.29694  0  0.946371  0  0  0.274548  0  1.015442  0  0  0.28284  0  1.00855  0  0  0.308613  0.268712  0  1.020318  0
H  H6  1  0.60971251  0.14953784  0.52147429  1  0  0.297924  0  0.924834  0  0  0.276782  0  0.99266  0  0  0.285043  0  0.985493  0  0  0.315108  0.270901  0  0.997912  0
H  H7  1  0.39028828  0.85046437  0.47852588  1  0  0.297898  0  0.924866  0  0  0.276751  0  0.992696  0  0  0.285017  0  0.985529  0  0  0.315094  0.270867  0  0.997949  0
H  H8  1  0.02842626  0.18256410  0.58326165  1  0  0.117968  0  0.95898  0  0  0.13546  0  1.024222  0  0  0.137189  0  1.024084  0  0  0.086898  0.134304  0  1.024229  0
H  H9  1  0.97157336  0.81743707  0.41673733  1  0  0.117937  0  0.958992  0  0  0.135461  0  1.02421  0  0  0.137193  0  1.02407  0  0  0.086899  0.134305  0  1.024219  0
H  H10  1  0.05720746  0.23917136  0.47225119  1  0  0.122663  0  0.949001  0  0  0.143583  0  1.007508  0  0  0.145614  0  1.006845  0  0  0.09181  0.142127  0  1.008029  0
H  H11  1  0.94279215  0.76082982  0.52774779  1  0  0.122653  0  0.949033  0  0  0.143572  0  1.007546  0  0  0.145603  0  1.006882  0  0  0.091803  0.142115  0  1.008065  0
H  H12  1  0.88297945  0.23691252  0.51022382  1  0  0.119782  0  0.958457  0  0  0.135374  0  1.02921  0  0  0.13771  0  1.027828  0  0  0.087735  0.133853  0  1.029886  0
H  H13  1  0.11702007  0.76308763  0.48977563  1  0  0.119801  0  0.958437  0  0  0.135373  0  1.029225  0  0  0.137708  0  1.027844  0  0  0.087736  0.133854  0  1.029899  0
H  H14  1  0.12544025  0.84414667  0.77399881  1  0  0.122019  0  0.929467  0  0  0.142794  0  0.987675  0  0  0.144796  0  0.986804  0  0  0.093967  0.141085  0  0.988833  0
H  H15  1  0.87456133  0.15585245  0.22600054  1  0  0.122018  0  0.929522  0  0  0.142789  0  0.987727  0  0  0.14479  0  0.986858  0  0  0.093961  0.141079  0  0.988886  0
H  H16  1  0.26739821  0.77517611  0.69821284  1  0  0.11888  0  0.964158  0  0  0.133188  0  1.034803  0  0  0.135467  0  1.033728  0  0  0.090378  0.131698  0  1.035348  0
H  H17  1  0.73260347  0.22482403  0.30178759  1  0  0.118895  0  0.964128  0  0  0.133195  0  1.034779  0  0  0.135476  0  1.033704  0  0  0.090379  0.131707  0  1.035325  0
H  H18  1  0.27444662  0.78493278  0.83938238  1  0  0.132447  0  0.94383  0  0  0.148796  0  1.009236  0  0  0.150061  0  1.009991  0  0  0.094275  0.148042  0  1.008356  0
H  H19  1  0.72555399  0.21506736  0.16061796  1  0  0.13247  0  0.943823  0  0  0.148814  0  1.009233  0  0  0.15008  0  1.009987  0  0  0.094282  0.148059  0  1.008356  0
H  H20  1  0.48108326  0.59262518  0.80697250  1  0  0.135839  0  0.960896  0  0  0.155327  0  1.02163  0  0  0.156784  0  1.022209  0  0  0.091599  0.154379  0  1.021158  0
H  H21  1  0.51891519  0.40737497  0.19302683  1  0  0.135817  0  0.96101  0  0  0.155306  0  1.021738  0  0  0.156764  0  1.022321  0  0  0.091585  0.154359  0  1.021268  0
H  H22  1  0.50380911  0.66271556  0.70343800  1  0  0.125403  0  0.948532  0  0  0.146766  0  1.007915  0  0  0.14827  0  1.008064  0  0  0.093107  0.145677  0  1.007884  0
H  H23  1  0.49619052  0.33728562  0.29656253  1  0  0.125384  0  0.948549  0  0  0.146726  0  1.007952  0  0  0.148251  0  1.008075  0  0  0.09311  0.145637  0  1.007919  0
H  H24  1  0.65545624  0.61164604  0.77429504  1  0  0.103111  0  0.980644  0  0  0.116016  0  1.059069  0  0  0.117875  0  1.058399  0  0  0.078629  0.114836  0  1.059322  0
H  H25  1  0.34454212  0.38835308  0.22570476  1  0  0.103076  0  0.980688  0  0  0.115977  0  1.059111  0  0  0.117834  0  1.058445  0  0  0.078606  0.114797  0  1.059366  0
H  H26  1  0.42044012  0.08706035  0.33897258  1  0  0.131429  0  0.956117  0  0  0.149075  0  1.018887  0  0  0.150607  0  1.019227  0  0  0.093612  0.147974  0  1.018659  0
H  H27  1  0.57956057  0.91294083  0.66102651  1  0  0.131438  0  0.956094  0  0  0.149083  0  1.018865  0  0  0.150615  0  1.019207  0  0  0.093621  0.147981  0  1.018637  0
H  H28  1  0.28087742  0.20016597  0.34156204  1  0  0.11477  0  0.964823  0  0  0.130154  0  1.034663  0  0  0.132499  0  1.033395  0  0  0.08777  0.128436  0  1.035777  0
H  H29  1  0.71912318  0.79983418  0.65843751  1  0  0.114776  0  0.964813  0  0  0.130161  0  1.034659  0  0  0.132509  0  1.033387  0  0  0.087775  0.128443  0  1.035771  0
H  H30  1  0.27701923  0.08464228  0.41465059  1  0  0.124939  0  0.952423  0  0  0.145793  0  1.012581  0  0  0.147538  0  1.012049  0  0  0.089408  0.144575  0  1.01305  0
H  H31  1  0.72298244  0.91535786  0.58534829  1  0  0.124896  0  0.952442  0  0  0.145757  0  1.012602  0  0  0.147503  0  1.012066  0  0  0.089386  0.144539  0  1.013071  0
C  C32  1  0.03628391  0.40179040  0.62472741  1  0  0.238813  0  3.799016  0  0  0.225931  0  4.075016  0  0  0.238159  0  4.092326  0  0  0.089539  0.218039  0  4.062989  0
C  C33  1  0.96371454  0.59820975  0.37527192  1  0  0.238815  0  3.799077  0  0  0.225943  0  4.075064  0  0  0.238172  0  4.092373  0  0  0.089532  0.218053  0  4.063039  0
C  C34  1  0.99901870  0.25745567  0.54350276  1  0  -0.364109  0  3.72487  0  0  -0.440872  0  3.961583  0  0  -0.444301  0  3.967037  0  0  -0.246648  -0.438291  0  3.957517  0
C  C35  1  0.00098092  0.74254551  0.45649622  1  0  -0.36407  0  3.724857  0  0  -0.440859  0  3.961574  0  0  -0.444292  0  3.967026  0  0  -0.246637  -0.438276  0  3.957502  0
C  C36  1  0.13479400  0.50552064  0.62175916  1  0  -0.269996  0  3.693292  0  0  -0.250771  0  3.968697  0  0  -0.260588  0  3.991901  0  0  -0.075835  -0.244519  0  3.953056  0
C  C37  1  0.86520660  0.49447951  0.37824039  1  0  -0.270091  0  3.693442  0  0  -0.250845  0  3.968813  0  0  -0.260663  0  3.99202  0  0  -0.075882  -0.244593  0  3.953175  0
C  C38  1  0.12642161  0.62381582  0.71661802  1  0  0.271723  0  3.723696  0  0  0.257653  0  3.98738  0  0  0.269151  0  4.004902  0  0  0.108123  0.250078  0  3.975309  0
C  C39  1  0.87357890  0.37618330  0.28338201  1  0  0.271697  0  3.723797  0  0  0.257623  0  3.987488  0  0  0.269121  0  4.005014  0  0  0.108118  0.250047  0  3.975423  0
C  C40  1  0.20239037  0.76455598  0.75925919  1  0  -0.363043  0  3.724188  0  0  -0.438634  0  3.961557  0  0  -0.442216  0  3.9684  0  0  -0.239434  -0.435879  0  3.95657  0
C  C41  1  0.79761131  0.23544417  0.24074124  1  0  -0.363064  0  3.724214  0  0  -0.438645  0  3.961573  0  0  -0.442228  0  3.968419  0  0  -0.239435  -0.435882  0  3.956571  0
C  C42  1  0.51596535  0.44625615  0.64817190  1  0  0.251412  0  3.792774  0  0  0.240085  0  4.064242  0  0  0.252945  0  4.080659  0  0  0.093448  0.231731  0  4.05275  0
C  C43  1  0.48403417  0.55374399  0.35182754  1  0  0.251463  0  3.792634  0  0  0.240142  0  4.064076  0  0  0.252986  0  4.080518  0  0  0.093455  0.231788  0  4.052588  0
C  C44  1  0.54089290  0.58516655  0.73797227  1  0  -0.372457  0  3.735091  0  0  -0.451123  0  3.972283  0  0  -0.455114  0  3.979277  0  0  -0.251506  -0.448137  0  3.967233  0
C  C45  1  0.45910662  0.41483360  0.26202718  1  0  -0.372389  0  3.735236  0  0  -0.451032  0  3.972403  0  0  -0.455036  0  3.97939  0  0  -0.251473  -0.448045  0  3.967356  0
C  C46  1  0.40339809  0.39479356  0.55475042  1  0  -0.269583  0  3.69512  0  0  -0.250828  0  3.971003  0  0  -0.260532  0  3.993523  0  0  -0.074796  -0.244578  0  3.95588  0
C  C47  1  0.59660261  0.60520762  0.44524944  1  0  -0.269667  0  3.695144  0  0  -0.250884  0  3.970982  0  0  -0.260582  0  3.993501  0  0  -0.074826  -0.244636  0  3.955862  0
C  C48  1  0.42976447  0.25865448  0.49464137  1  0  0.269294  0  3.743435  0  0  0.252562  0  4.013847  0  0  0.26434  0  4.030999  0  0  0.105206  0.244959  0  4.001991  0
C  C49  1  0.57023622  0.74134669  0.50535771  1  0  0.269283  0  3.743533  0  0  0.252543  0  4.013932  0  0  0.264327  0  4.031085  0  0  0.105235  0.244937  0  4.002073  0
C  C50  1  0.34824640  0.15189099  0.39129847  1  0  -0.374073  0  3.736099  0  0  -0.451677  0  3.974775  0  0  -0.455332  0  3.981381  0  0  -0.24539  -0.449005  0  3.970147  0
C  C51  1  0.65175430  0.84811019  0.60870061  1  0  -0.374021  0  3.736048  0  0  -0.451638  0  3.97474  0  0  -0.455294  0  3.981345  0  0  -0.245382  -0.44897  0  3.970118  0
C  C52  1  0.65617696  0.39774217  0.99554232  1  0  0.277377  0  3.922405  0  0  0.261037  0  4.221695  0  0  0.281223  0  4.237015  0  0  0.146219  0.247332  0  4.210794  0
C  C53  1  0.34382551  0.60225488  0.00445808  1  0  0.277477  0  3.922207  0  0  0.261141  0  4.221489  0  0  0.281326  0  4.236808  0  0  0.146283  0.247436  0  4.210588  0
C  C54  1  0.94994439  0.19223393  0.91713092  1  0  0.246807  0  4.003471  0  0  0.2286  0  4.317229  0  0  0.246156  0  4.332743  0  0  0.133965  0.216286  0  4.307751  0
C  C55  1  0.05004939  0.80776209  0.08286753  1  0  0.246724  0  4.003595  0  0  0.22852  0  4.317348  0  0  0.246074  0  4.332862  0  0  0.133944  0.216205  0  4.307874  0
C  C56  1  0.40521118  0.04912872  0.10972834  1  0  0.26999  0  3.897177  0  0  0.25201  0  4.195081  0  0  0.2712  0  4.212638  0  0  0.155974  0.239257  0  4.182519  0
C  C57  1  0.59478806  0.95086833  0.89027096  1  0  0.269973  0  3.89721  0  0  0.251995  0  4.195108  0  0  0.271188  0  4.212666  0  0  0.156006  0.239243  0  4.182545  0
C  C58  1  0.30352716  0.09464160  0.65573600  1  0  0.269671  0  3.913251  0  0  0.256544  0  4.2159  0  0  0.274386  0  4.231636  0  0  0.151578  0.244436  0  4.205422  0
C  C59  1  0.69647129  0.90535855  0.34426334  1  0  0.26967  0  3.913256  0  0  0.256543  0  4.215906  0  0  0.274384  0  4.231642  0  0  0.151579  0.244435  0  4.205431  0
Se  Se60  1  0.25236457  0.49191514  0.50975081  1  0  0.143614  0  2.374412  0  0  0.123881  0  2.74163  0  0  0.120711  0  2.748511  0  0  0.114936  0.126003  0  2.737375  0
Se  Se61  1  0.74763495  0.50808501  0.49024786  1  0  0.143627  0  2.374438  0  0  0.123884  0  2.741618  0  0  0.120708  0  2.748498  0  0  0.114925  0.126006  0  2.737363  0
S  S62  1  0.77677220  0.50464928  0.97965983  1  0  -0.240815  0  2.293018  0  0  -0.201698  0  2.655738  0  0  -0.220402  0  2.650129  0  0  -0.105222  -0.188482  0  2.6593  0
S  S63  1  0.22322733  0.49535087  0.02034116  1  0  -0.240861  0  2.292968  0  0  -0.201755  0  2.655705  0  0  -0.220458  0  2.650092  0  0  -0.105235  -0.188538  0  2.659267  0
S  S64  1  0.87688107  0.12173400  0.78336170  1  0  -0.235057  0  2.245039  0  0  -0.196326  0  2.581792  0  0  -0.214238  0  2.577321  0  0  -0.100197  -0.184224  0  2.586176  0
S  S65  1  0.12310325  0.87826411  0.21664260  1  0  -0.235081  0  2.244914  0  0  -0.196345  0  2.581657  0  0  -0.214259  0  2.577184  0  0  -0.100196  -0.184245  0  2.586044  0
S  S66  1  0.25297419  0.10225325  0.06495384  1  0  -0.167044  0  2.344199  0  0  -0.125208  0  2.693028  0  0  -0.143686  0  2.689931  0  0  -0.0625  -0.113042  0  2.695609  0
S  S67  1  0.74702740  0.89774587  0.93504707  1  0  -0.167108  0  2.344126  0  0  -0.125273  0  2.692956  0  0  -0.143753  0  2.689858  0  0  -0.062557  -0.113102  0  2.695525  0
S  S68  1  0.29429859  0.24447145  0.75795203  1  0  -0.188841  0  2.316755  0  0  -0.155822  0  2.671585  0  0  -0.175217  0  2.671152  0  0  -0.077726  -0.143092  0  2.671923  0
S  S69  1  0.70569763  0.75552767  0.24204834  1  0  -0.188839  0  2.316749  0  0  -0.155823  0  2.671586  0  0  -0.175218  0  2.671155  0  0  -0.077727  -0.143093  0  2.671927  0
N  N70  1  0.97414868  0.45441693  0.71715788  1  0  -0.264147  0  3.175259  0  0  -0.210288  0  3.470246  0  0  -0.228151  0  3.489816  0  0  -0.243707  -0.198337  0  3.456814  0
N  N71  1  0.02585202  0.54558425  0.28284198  1  0  -0.26414  0  3.175243  0  0  -0.210281  0  3.47023  0  0  -0.228147  0  3.489805  0  0  -0.243681  -0.19833  0  3.456798  0
N  N72  1  0.02866064  0.58792215  0.77070984  1  0  -0.208717  0  3.449507  0  0  -0.15836  0  3.689509  0  0  -0.170936  0  3.707171  0  0  -0.28062  -0.149908  0  3.677505  0
N  N73  1  0.97134104  0.41207800  0.22929060  1  0  -0.208627  0  3.449524  0  0  -0.158293  0  3.689566  0  0  -0.170869  0  3.707227  0  0  -0.280595  -0.149839  0  3.677563  0
N  N74  1  0.60443326  0.34602591  0.64471173  1  0  -0.266401  0  3.187877  0  0  -0.207958  0  3.479297  0  0  -0.226335  0  3.499238  0  0  -0.242237  -0.195352  0  3.46519  0
N  N75  1  0.39556636  0.65397527  0.35528803  1  0  -0.266387  0  3.187834  0  0  -0.207952  0  3.479245  0  0  -0.226318  0  3.499192  0  0  -0.242215  -0.195351  0  3.465138  0
N  N76  1  0.55037003  0.23339993  0.55206940  1  0  -0.214562  0  3.455355  0  0  -0.166297  0  3.699945  0  0  -0.178966  0  3.717663  0  0  -0.282831  -0.15789  0  3.688002  0
N  N77  1  0.44963066  0.76660125  0.44792968  1  0  -0.214539  0  3.455365  0  0  -0.166259  0  3.699937  0  0  -0.178943  0  3.717666  0  0  -0.282841  -0.157839  0  3.687984  0
N  N78  1  0.57243834  0.32265231  0.01129718  1  0  -0.463511  0  2.829913  0  0  -0.415313  0  3.091283  0  0  -0.434626  0  3.101252  0  0  -0.349556  -0.402094  0  3.084156  0
N  N79  1  0.42756412  0.67734474  0.98870322  1  0  -0.463582  0  2.829829  0  0  -0.415389  0  3.091207  0  0  -0.434701  0  3.101171  0  0  -0.34961  -0.402172  0  3.084082  0
N  N80  1  0.00335688  0.24200701  0.01266919  1  0  -0.467493  0  2.786041  0  0  -0.434804  0  3.0362  0  0  -0.449358  0  3.046041  0  0  -0.348922  -0.424698  0  3.029733  0
N  N81  1  0.99664588  0.75799314  0.98733291  1  0  -0.467413  0  2.786232  0  0  -0.434719  0  3.036393  0  0  -0.449272  0  3.046232  0  0  -0.348902  -0.424611  0  3.029925  0
N  N82  1  0.51111614  0.01393166  0.14859303  1  0  -0.449764  0  2.8072  0  0  -0.400337  0  3.068195  0  0  -0.420063  0  3.079868  0  0  -0.342317  -0.386692  0  3.059733  0
N  N83  1  0.48888642  0.98606643  0.85140768  1  0  -0.4497  0  2.807274  0  0  -0.400274  0  3.06827  0  0  -0.419999  0  3.07994  0  0  -0.342311  -0.386627  0  3.059803  0
N  N84  1  0.30707329  0.99239741  0.57772014  1  0  -0.454893  0  2.675401  0  0  -0.418364  0  2.899565  0  0  -0.433564  0  2.909853  0  0  -0.331088  -0.408293  0  2.892874  0
N  N85  1  0.69292838  0.00760274  0.42227875  1  0  -0.454886  0  2.675416  0  0  -0.418356  0  2.899576  0  0  -0.433555  0  2.909864  0  0  -0.331087  -0.408285  0  2.892886  0
