# generated using pymatgen
data_CuSiH12C24N8(O4F3)2
_symmetry_space_group_name_H-M   'P 1'
_cell_length_a   7.88399173
_cell_length_b   13.78503742
_cell_length_c   13.78476644
_cell_angle_alpha   89.90365819
_cell_angle_beta   90.34896470
_cell_angle_gamma   90.35209864
_symmetry_Int_Tables_number   1
_chemical_formula_structural   CuSiH12C24N8(O4F3)2
_chemical_formula_sum   'Cu1 Si1 H12 C24 N8 O8 F6'
_cell_volume   1498.08577088
_cell_formula_units_Z   1
loop_
 _symmetry_equiv_pos_site_id
 _symmetry_equiv_pos_as_xyz
  1  'x, y, z'
loop_
 _atom_site_type_symbol
 _atom_site_label
 _atom_site_symmetry_multiplicity
 _atom_site_fract_x
 _atom_site_fract_y
 _atom_site_fract_z
 _atom_site_occupancy
 _atom_site_pbe_bader_charge
 _atom_site_pbe_bader_spin_density
 _atom_site_pbe_cm5_charge
 _atom_site_pbe_ddec_charge
 _atom_site_pbe_ddec_spin_density
 _atom_site_pbe_ddec_sum_bond_order
 _atom_site_pbe_magmom
Cu  Cu0  1  0.50002605  0.50147309  0.49851211  1  1.090626  0.574215  0.777208  0.706597  0.734698  2.28176  0.572
Si  Si1  1  0.00001195  0.50002067  0.49996370  1  3.183298  -0.000206  0.241381  1.715377  -0.000413  3.972339  0.0
H  H2  1  0.23908749  0.65891877  0.49816399  1  0.200153  0.002162  0.127003  0.117938  0.001033  1.030395  0.002
H  H3  1  0.23165050  0.83878772  0.50020247  1  0.164774  0.001107  0.122814  0.140745  0.000596  0.995101  0.001
H  H4  1  0.76906692  0.65761469  0.49320028  1  0.254344  0.002297  0.130811  0.127407  0.001123  1.038831  0.002
H  H5  1  0.23118369  0.34398547  0.49251068  1  0.221041  0.002205  0.129823  0.126943  0.001055  1.042526  0.002
H  H6  1  0.76113639  0.34297170  0.49860459  1  0.232648  0.001996  0.125351  0.116382  0.000976  1.035804  0.002
H  H7  1  0.76886587  0.16315442  0.50044551  1  0.168258  0.001043  0.122692  0.14041  0.000564  0.993804  0.001
H  H8  1  0.23892651  0.50151219  0.65700101  1  0.233352  0.001996  0.125525  0.116559  0.000977  1.035684  0.002
H  H9  1  0.23115785  0.49966965  0.83681315  1  0.167969  0.001043  0.122648  0.140403  0.000564  0.993501  0.001
H  H10  1  0.76890528  0.50742716  0.65599870  1  0.22132  0.002205  0.129593  0.126537  0.001056  1.04273  0.002
H  H11  1  0.23096544  0.50685020  0.34238463  1  0.255026  0.002294  0.130761  0.127287  0.001122  1.03922  0.002
H  H12  1  0.76093341  0.50170192  0.34105278  1  0.199699  0.002165  0.127108  0.117851  0.001034  1.030819  0.002
H  H13  1  0.76834756  0.49973104  0.16118009  1  0.164634  0.001107  0.122777  0.140725  0.000596  0.995156  0.001
C  C14  1  0.35654893  0.70088960  0.49908300  1  0.433074  -0.000613  0.066225  0.110723  -0.001123  3.860236  0.0
C  C15  1  0.35320888  0.80155471  0.50120494  1  0.043441  0.006286  -0.052238  -0.124734  0.004267  3.830456  0.005
C  C16  1  0.50637117  0.85464454  0.50423305  1  0.184207  -0.003172  0.035475  0.131619  -0.003597  4.076073  -0.002
C  C17  1  0.65647837  0.79962329  0.50154417  1  0.213259  0.005726  0.096717  -0.002204  0.003843  3.865758  0.005
C  C18  1  0.65190646  0.69912146  0.49671701  1  0.499886  -0.000998  0.067326  0.055596  -0.001368  3.873926  -0.001
C  C19  1  0.50552883  0.95683134  0.50580815  1  -0.015586  -0.000873  -0.011801  -0.051528  -0.000977  4.043079  0.0
C  C20  1  0.49543906  0.04493859  0.50566871  1  -0.29282  -0.001047  -0.01098  -0.049421  -0.001111  4.041424  0.0
C  C21  1  0.49438007  0.14713500  0.50396371  1  0.170943  -0.003029  0.035085  0.130065  -0.003425  4.078361  -0.002
C  C22  1  0.34422526  0.20209859  0.50089762  1  0.172384  0.005507  0.096237  -0.00193  0.003621  3.866347  0.004
C  C23  1  0.34855264  0.30265725  0.49624350  1  0.574572  -0.001066  0.065488  0.053125  -0.001283  3.875605  -0.001
C  C24  1  0.64369255  0.30105689  0.49925833  1  0.360168  -0.000418  0.064529  0.108885  -0.00105  3.864706  0.0
C  C25  1  0.64730450  0.20037139  0.50127045  1  0.049464  0.005835  -0.052724  -0.124213  0.004023  3.831274  0.005
C  C26  1  0.35637445  0.50082041  0.69891557  1  0.359672  -0.000419  0.064699  0.108842  -0.001053  3.865129  0.0
C  C27  1  0.35273228  0.49881909  0.79960448  1  0.049538  0.005836  -0.052644  -0.12391  0.004024  3.83121  0.005
C  C28  1  0.50564619  0.49607820  0.85284534  1  0.171297  -0.00303  0.035211  0.129963  -0.003426  4.078251  -0.002
C  C29  1  0.65580483  0.49909943  0.79788635  1  0.172158  0.005508  0.096217  -0.001987  0.003621  3.866359  0.004
C  C30  1  0.65151407  0.50373170  0.69732442  1  0.574154  -0.001066  0.065711  0.053558  -0.001281  3.875425  -0.001
C  C31  1  0.50456315  0.49436736  0.95504083  1  -0.293772  -0.001044  -0.011414  -0.050156  -0.001109  4.042242  0.0
C  C32  1  0.49446251  0.49423290  0.04313690  1  0.116382  -0.000837  -0.011549  -0.050911  -0.000978  4.042462  0.0
C  C33  1  0.49362676  0.49578981  0.14534242  1  0.053032  -0.003208  0.035459  0.13152  -0.003596  4.075838  -0.002
C  C34  1  0.34353364  0.49850098  0.20035694  1  0.213319  0.005728  0.096707  -0.002382  0.003845  3.865975  0.005
C  C35  1  0.34811366  0.50331287  0.30087811  1  0.498345  -0.000998  0.067559  0.056094  -0.001371  3.873243  -0.001
C  C36  1  0.64346930  0.50085436  0.29909305  1  0.43359  -0.000617  0.066004  0.110474  -0.001123  3.860993  0.0
C  C37  1  0.64679768  0.49875935  0.19841645  1  0.043319  0.00629  -0.052199  -0.12469  0.004269  3.830364  0.005
N  N38  1  0.50330566  0.65066165  0.49760451  1  -1.201145  0.094212  -0.326014  -0.206236  0.062971  3.559193  0.083
N  N39  1  0.49696525  0.35139851  0.49759126  1  -1.172238  0.089379  -0.324096  -0.206811  0.059596  3.547275  0.078
N  N40  1  0.50310643  0.50242229  0.64857507  1  -1.172312  0.089387  -0.32452  -0.207041  0.059598  3.547475  0.078
N  N41  1  0.49672951  0.50237625  0.34932428  1  -1.200155  0.094192  -0.325909  -0.206057  0.062956  3.559609  0.083
N  N42  1  0.82403046  0.84706160  0.50477819  1  0.41936  0.001255  0.064508  0.520486  0.000737  4.222231  0.001
N  N43  1  0.17684527  0.15451121  0.50366053  1  0.368979  0.001196  0.064225  0.521324  0.0007  4.220596  0.001
N  N44  1  0.82317346  0.49631087  0.84548583  1  0.367387  0.001197  0.064313  0.521626  0.0007  4.219871  0.001
N  N45  1  0.17595985  0.49529408  0.15294565  1  0.418023  0.001255  0.064168  0.52041  0.000737  4.222313  0.001
O  O46  1  0.84504688  0.91175400  0.56580425  1  -0.433528  0.00224  -0.115814  -0.312764  0.001408  1.887014  0.002
O  O47  1  0.93126446  0.81772396  0.44659671  1  -0.441259  0.000519  -0.109694  -0.304624  0.000276  1.887404  0.0
O  O48  1  0.15630791  0.09026480  0.56528760  1  -0.40702  0.002114  -0.116063  -0.313404  0.001329  1.885276  0.002
O  O49  1  0.06925877  0.18322234  0.44453357  1  -0.422639  0.000492  -0.110822  -0.306229  0.000261  1.886291  0.0
O  O50  1  0.84368181  0.43467295  0.90971789  1  -0.406373  0.002113  -0.116059  -0.313494  0.001329  1.884832  0.002
O  O51  1  0.93078205  0.55544418  0.81679353  1  -0.421865  0.000493  -0.110881  -0.306332  0.000262  1.886094  0.0
O  O52  1  0.15488405  0.43427749  0.08825438  1  -0.432096  0.00224  -0.115873  -0.313009  0.001407  1.887344  0.002
O  O53  1  0.06877439  0.55349312  0.18230811  1  -0.440858  0.000519  -0.109359  -0.30428  0.000275  1.886681  0.0
F  F54  1  0.21995564  0.50026651  0.50038254  1  -0.831155  -0.001814  -0.204991  -0.533357  -0.001981  1.374584  -0.001
F  F55  1  0.78007223  0.49962301  0.49970120  1  -0.831217  -0.001815  -0.204914  -0.533454  -0.001982  1.374916  -0.001
F  F56  1  0.00007346  0.58738960  0.41263894  1  -0.821081  0.000289  -0.237877  -0.533963  0.000244  1.114227  0.0
F  F57  1  0.99998476  0.41219941  0.58772948  1  -0.829977  0.000162  -0.25106  -0.541481  0.000151  1.064007  0.0
F  F58  1  0.00072668  0.58746155  0.58738016  1  -0.825476  0.000234  -0.243947  -0.537467  0.000203  1.091109  0.0
F  F59  1  0.99926318  0.41266676  0.41247045  1  -0.824527  0.000233  -0.243913  -0.5374  0.000202  1.091256  0.0
