# generated using pymatgen
data_Zn2H9C11NO7
_symmetry_space_group_name_H-M   'P 1'
_cell_length_a   7.46660258
_cell_length_b   11.81504566
_cell_length_c   13.71503677
_cell_angle_alpha   94.05819965
_cell_angle_beta   90.00016535
_cell_angle_gamma   89.99994175
_symmetry_Int_Tables_number   1
_chemical_formula_structural   Zn2H9C11NO7
_chemical_formula_sum   'Zn8 H36 C44 N4 O28'
_cell_volume   1206.88289823
_cell_formula_units_Z   4
loop_
 _symmetry_equiv_pos_site_id
 _symmetry_equiv_pos_as_xyz
  1  'x, y, z'
loop_
 _atom_site_type_symbol
 _atom_site_label
 _atom_site_symmetry_multiplicity
 _atom_site_fract_x
 _atom_site_fract_y
 _atom_site_fract_z
 _atom_site_occupancy
 _atom_site_hle17_bader_spin_density
 _atom_site_hle17_ddec_charge
 _atom_site_hle17_ddec_spin_density
 _atom_site_hle17_ddec_sum_bond_order
 _atom_site_hle17_magmom
 _atom_site_hse06_10hf_bader_spin_density
 _atom_site_hse06_10hf_ddec_charge
 _atom_site_hse06_10hf_ddec_spin_density
 _atom_site_hse06_10hf_ddec_sum_bond_order
 _atom_site_hse06_10hf_magmom
 _atom_site_hse06_bader_spin_density
 _atom_site_hse06_ddec_charge
 _atom_site_hse06_ddec_spin_density
 _atom_site_hse06_ddec_sum_bond_order
 _atom_site_hse06_magmom
 _atom_site_pbe_bader_spin_density
 _atom_site_pbe_cm5_charge
 _atom_site_pbe_ddec_charge
 _atom_site_pbe_ddec_spin_density
 _atom_site_pbe_ddec_sum_bond_order
 _atom_site_pbe_magmom
Zn  Zn0  1  0.44078718  0.82520075  0.89610540  1  0  1.140725  0  1.821683  0  0  0.967549  0  2.305534  0  0  1.017039  0  2.241195  0  0  0.671129  0.932594  0  2.349999  0
Zn  Zn1  1  0.94079078  0.17479920  0.60389523  1  0  1.140756  0  1.821793  0  0  0.967565  0  2.305651  0  0  1.01705  0  2.241309  0  0  0.671117  0.932609  0  2.350133  0
Zn  Zn2  1  0.55921029  0.17479875  0.10389466  1  0  1.14077  0  1.821729  0  0  0.967586  0  2.305561  0  0  1.017071  0  2.241223  0  0  0.671142  0.932632  0  2.350035  0
Zn  Zn3  1  0.05921339  0.82520030  0.39610628  1  0  1.140755  0  1.821833  0  0  0.967562  0  2.305671  0  0  1.01705  0  2.241332  0  0  0.671127  0.932606  0  2.350139  0
Zn  Zn4  1  0.22190396  0.91214607  0.21098168  1  0  1.161671  0  1.716752  0  0  0.988496  0  2.179652  0  0  1.039952  0  2.115921  0  0  0.673054  0.952135  0  2.223704  0
Zn  Zn5  1  0.72190734  0.08785205  0.28901800  1  0  1.161751  0  1.716726  0  0  0.988519  0  2.179667  0  0  1.039977  0  2.115931  0  0  0.673076  0.952153  0  2.223725  0
Zn  Zn6  1  0.77809351  0.08785428  0.78901697  1  0  1.161811  0  1.716804  0  0  0.988505  0  2.179726  0  0  1.03996  0  2.115993  0  0  0.673045  0.952143  0  2.223785  0
Zn  Zn7  1  0.27809148  0.91214660  0.71098346  1  0  1.161757  0  1.716737  0  0  0.988545  0  2.17963  0  0  1.040002  0  2.115897  0  0  0.673082  0.952177  0  2.223693  0
H  H8  1  0.16150069  0.95192331  0.87372867  1  0  0.401761  0  0.910636  0  0  0.372446  0  0.973578  0  0  0.382455  0  0.959308  0  0  0.273268  0.365299  0  0.983751  0
H  H9  1  0.66150060  0.04807762  0.62627159  1  0  0.401684  0  0.910756  0  0  0.372406  0  0.973647  0  0  0.382416  0  0.959375  0  0  0.273258  0.365259  0  0.98382  0
H  H10  1  0.83849812  0.04807619  0.12627285  1  0  0.401667  0  0.910786  0  0  0.372398  0  0.973664  0  0  0.382408  0  0.959392  0  0  0.273254  0.365255  0  0.98383  0
H  H11  1  0.33849821  0.95192272  0.37372706  1  0  0.401657  0  0.910803  0  0  0.372386  0  0.973682  0  0  0.382396  0  0.95941  0  0  0.273248  0.365239  0  0.983856  0
H  H12  1  0.77961404  0.77601955  0.14466085  1  0  0.128518  0  0.928517  0  0  0.140012  0  0.988427  0  0  0.142389  0  0.987477  0  0  0.118882  0.138279  0  0.989277  0
H  H13  1  0.27961789  0.22398109  0.35533980  1  0  0.128515  0  0.928511  0  0  0.140008  0  0.988421  0  0  0.142384  0  0.987472  0  0  0.118897  0.138278  0  0.989265  0
H  H14  1  0.22038343  0.22398250  0.85533936  1  0  0.128531  0  0.928481  0  0  0.140023  0  0.988398  0  0  0.142399  0  0.987448  0  0  0.118898  0.138285  0  0.989253  0
H  H15  1  0.72038092  0.77601756  0.64466020  1  0  0.128526  0  0.928507  0  0  0.140009  0  0.988422  0  0  0.142383  0  0.987473  0  0  0.118901  0.138279  0  0.989267  0
H  H16  1  0.64577406  0.65787601  0.11130398  1  0  0.108638  0  0.951297  0  0  0.124232  0  1.010478  0  0  0.125465  0  1.010327  0  0  0.121592  0.123373  0  1.010628  0
H  H17  1  0.14577656  0.34212384  0.38869642  1  0  0.108635  0  0.951291  0  0  0.124212  0  1.010489  0  0  0.125444  0  1.010339  0  0  0.12161  0.123348  0  1.010645  0
H  H18  1  0.35422609  0.34212433  0.88869686  1  0  0.108628  0  0.951329  0  0  0.124223  0  1.010512  0  0  0.125456  0  1.010361  0  0  0.121594  0.123361  0  1.01066  0
H  H19  1  0.85422360  0.65787311  0.61130348  1  0  0.108618  0  0.951397  0  0  0.124219  0  1.010547  0  0  0.125452  0  1.010396  0  0  0.121601  0.12336  0  1.010694  0
H  H20  1  0.00653497  0.80349654  0.95592027  1  0  0.113333  0  0.909759  0  0  0.127275  0  0.970507  0  0  0.129606  0  0.968454  0  0  0.121609  0.125585  0  0.972102  0
H  H21  1  0.50653688  0.19650617  0.54408058  1  0  0.11333  0  0.909749  0  0  0.127271  0  0.970489  0  0  0.1296  0  0.96844  0  0  0.121604  0.125584  0  0.972085  0
H  H22  1  0.99346250  0.19650805  0.04407937  1  0  0.113262  0  0.909776  0  0  0.12721  0  0.970521  0  0  0.129537  0  0.968473  0  0  0.121577  0.125521  0  0.972117  0
H  H23  1  0.49346060  0.80349248  0.45592016  1  0  0.113257  0  0.909741  0  0  0.127203  0  0.970492  0  0  0.12953  0  0.968445  0  0  0.121573  0.125512  0  0.972087  0
H  H24  1  0.88388600  0.88775022  0.04193735  1  0  0.134834  0  0.938943  0  0  0.146739  0  0.998911  0  0  0.149706  0  0.997317  0  0  0.127618  0.144596  0  1.000152  0
H  H25  1  0.38388790  0.11225037  0.45806420  1  0  0.134895  0  0.938895  0  0  0.146788  0  0.998864  0  0  0.149754  0  0.997271  0  0  0.12764  0.144642  0  1.000112  0
H  H26  1  0.11611013  0.11225268  0.95806292  1  0  0.134877  0  0.938863  0  0  0.146759  0  0.998862  0  0  0.149725  0  0.997267  0  0  0.12762  0.144613  0  1.000107  0
H  H27  1  0.61610958  0.88774659  0.54193716  1  0  0.13485  0  0.938885  0  0  0.146751  0  0.998858  0  0  0.149716  0  0.997265  0  0  0.127617  0.144601  0  1.000109  0
H  H28  1  0.90157092  0.71554527  0.81500790  1  0  0.104151  0  0.987091  0  0  0.111392  0  1.054602  0  0  0.114922  0  1.053288  0  0  0.098665  0.108847  0  1.055706  0
H  H29  1  0.40156976  0.28445724  0.68499282  1  0  0.104164  0  0.987095  0  0  0.111397  0  1.054611  0  0  0.114928  0  1.053296  0  0  0.098678  0.108851  0  1.055721  0
H  H30  1  0.09843325  0.28445847  0.18499241  1  0  0.104129  0  0.987067  0  0  0.111372  0  1.054584  0  0  0.1149  0  1.053273  0  0  0.098688  0.108828  0  1.055687  0
H  H31  1  0.59843173  0.71554311  0.31500801  1  0  0.104112  0  0.987086  0  0  0.111358  0  1.054596  0  0  0.114885  0  1.053289  0  0  0.098686  0.108813  0  1.055705  0
H  H32  1  0.96525038  0.53771807  0.71898481  1  0  0.089709  0  0.960155  0  0  0.099554  0  1.024777  0  0  0.102088  0  1.023434  0  0  0.099829  0.0977  0  1.025829  0
H  H33  1  0.46525077  0.46228356  0.78101523  1  0  0.089689  0  0.960152  0  0  0.099563  0  1.02475  0  0  0.102095  0  1.023409  0  0  0.099829  0.097709  0  1.025803  0
H  H34  1  0.03475111  0.46228482  0.28101400  1  0  0.089703  0  0.960158  0  0  0.099576  0  1.024757  0  0  0.102107  0  1.023418  0  0  0.099836  0.097738  0  1.025775  0
H  H35  1  0.53474938  0.53771509  0.21898550  1  0  0.089773  0  0.96011  0  0  0.099592  0  1.024756  0  0  0.102124  0  1.023416  0  0  0.099816  0.097741  0  1.025805  0
H  H36  1  0.68590470  0.52142851  0.04642196  1  0  0.099419  0  0.976883  0  0  0.110015  0  1.038621  0  0  0.113171  0  1.03749  0  0  0.100864  0.107767  0  1.039573  0
H  H37  1  0.18590330  0.47857132  0.45357777  1  0  0.099465  0  0.976853  0  0  0.110034  0  1.038627  0  0  0.113188  0  1.037495  0  0  0.100869  0.107785  0  1.039582  0
H  H38  1  0.31410215  0.47857268  0.95357821  1  0  0.099451  0  0.976894  0  0  0.110019  0  1.038664  0  0  0.113173  0  1.037537  0  0  0.100875  0.107771  0  1.039613  0
H  H39  1  0.81410355  0.52142733  0.54642150  1  0  0.09944  0  0.976904  0  0  0.110005  0  1.038679  0  0  0.113158  0  1.037553  0  0  0.100872  0.107759  0  1.039627  0
H  H40  1  0.76270922  0.34793983  0.95081822  1  0  0.095203  0  0.960343  0  0  0.105475  0  1.022613  0  0  0.108494  0  1.020485  0  0  0.100309  0.103268  0  1.024219  0
H  H41  1  0.26270943  0.65205936  0.54918063  1  0  0.095186  0  0.96035  0  0  0.105446  0  1.022632  0  0  0.108462  0  1.020508  0  0  0.100301  0.103239  0  1.024236  0
H  H42  1  0.23728959  0.65206137  0.04917976  1  0  0.09517  0  0.960342  0  0  0.105433  0  1.022624  0  0  0.108448  0  1.020503  0  0  0.100296  0.103228  0  1.02422  0
H  H43  1  0.73729340  0.34793844  0.45081932  1  0  0.095091  0  0.960444  0  0  0.105419  0  1.022647  0  0  0.108432  0  1.020534  0  0  0.100299  0.103215  0  1.024244  0
C  C44  1  0.50869819  0.81238904  0.10755021  1  0  0.710844  0  3.80822  0  0  0.656888  0  4.111744  0  0  0.691335  0  4.104956  0  0  0.22447  0.633377  0  4.115657  0
C  C45  1  0.00870230  0.18761089  0.39244706  1  0  0.710793  0  3.808035  0  0  0.656798  0  4.111623  0  0  0.691242  0  4.104836  0  0  0.224405  0.633299  0  4.115517  0
C  C46  1  0.49129794  0.18761216  0.89244704  1  0  0.710908  0  3.807967  0  0  0.656829  0  4.111685  0  0  0.691274  0  4.104899  0  0  0.224419  0.633331  0  4.115582  0
C  C47  1  0.99129651  0.81238691  0.60755289  1  0  0.71066  0  3.808112  0  0  0.656542  0  4.111882  0  0  0.690984  0  4.105104  0  0  0.224327  0.63304  0  4.11578  0
C  C48  1  0.67963003  0.74325718  0.09093341  1  0  -0.173704  0  3.650733  0  0  -0.231714  0  3.898557  0  0  -0.233101  0  3.9066  0  0  -0.05955  -0.230778  0  3.893041  0
C  C49  1  0.17963143  0.25674351  0.40906709  1  0  -0.173536  0  3.650698  0  0  -0.231519  0  3.898519  0  0  -0.232903  0  3.906559  0  0  -0.059491  -0.230586  0  3.893002  0
C  C50  1  0.32037012  0.25674402  0.90906602  1  0  -0.173743  0  3.650738  0  0  -0.231721  0  3.898588  0  0  -0.233108  0  3.906629  0  0  -0.059564  -0.230779  0  3.893065  0
C  C51  1  0.82036872  0.74325344  0.59093354  1  0  -0.17363  0  3.650842  0  0  -0.231544  0  3.898639  0  0  -0.232928  0  3.906681  0  0  -0.059517  -0.230621  0  3.893122  0
C  C52  1  0.81128762  0.91098235  0.89695985  1  0  0.703364  0  3.801324  0  0  0.643656  0  4.105997  0  0  0.678967  0  4.097935  0  0  0.225518  0.619552  0  4.1108  0
C  C53  1  0.31130643  0.08901511  0.60303896  1  0  0.703123  0  3.801545  0  0  0.643528  0  4.106126  0  0  0.678843  0  4.098057  0  0  0.225249  0.619429  0  4.110926  0
C  C54  1  0.18870450  0.08901884  0.10303885  1  0  0.702936  0  3.801627  0  0  0.643373  0  4.106187  0  0  0.678684  0  4.098129  0  0  0.225281  0.619272  0  4.110983  0
C  C55  1  0.68870444  0.91097929  0.39696151  1  0  0.702887  0  3.801642  0  0  0.643285  0  4.106246  0  0  0.678596  0  4.09819  0  0  0.225255  0.619182  0  4.111041  0
C  C56  1  0.86995044  0.83335586  0.97421114  1  0  -0.180843  0  3.670105  0  0  -0.236433  0  3.919314  0  0  -0.238269  0  3.926582  0  0  -0.059058  -0.235134  0  3.914219  0
C  C57  1  0.36995264  0.16664497  0.52579017  1  0  -0.180881  0  3.670175  0  0  -0.23645  0  3.919308  0  0  -0.238284  0  3.926569  0  0  -0.059013  -0.235157  0  3.914221  0
C  C58  1  0.13004703  0.16664704  0.02578986  1  0  -0.180642  0  3.669863  0  0  -0.236244  0  3.919062  0  0  -0.238064  0  3.926299  0  0  -0.058949  -0.234956  0  3.913982  0
C  C59  1  0.63004617  0.83335283  0.47421051  1  0  -0.180588  0  3.669731  0  0  -0.236185  0  3.918925  0  0  -0.238001  0  3.926154  0  0  -0.058947  -0.234892  0  3.913844  0
C  C60  1  0.78719667  0.63515711  0.93941514  1  0  0.216315  0  3.763723  0  0  0.20606  0  4.013444  0  0  0.217407  0  4.033816  0  0  0.102697  0.198412  0  3.999487  0
C  C61  1  0.28719606  0.36484461  0.56058536  1  0  0.216293  0  3.763735  0  0  0.20599  0  4.013524  0  0  0.217335  0  4.033899  0  0  0.10266  0.198356  0  3.999555  0
C  C62  1  0.21280750  0.36484409  0.06058575  1  0  0.216208  0  3.763631  0  0  0.20592  0  4.013414  0  0  0.217264  0  4.033789  0  0  0.102642  0.198275  0  3.999455  0
C  C63  1  0.71280677  0.63515658  0.43941481  1  0  0.216307  0  3.763516  0  0  0.205949  0  4.013399  0  0  0.217292  0  4.033778  0  0  0.102671  0.198313  0  3.99943  0
C  C64  1  0.86801230  0.63596259  0.84609355  1  0  -0.181602  0  3.727308  0  0  -0.19966  0  3.983199  0  0  -0.207703  0  4.004205  0  0  -0.10675  -0.194359  0  3.969024  0
C  C65  1  0.36801218  0.36403739  0.65390624  1  0  -0.18154  0  3.727158  0  0  -0.19958  0  3.983073  0  0  -0.207621  0  4.004076  0  0  -0.106744  -0.194285  0  3.968905  0
C  C66  1  0.13199321  0.36404030  0.15390672  1  0  -0.181416  0  3.727242  0  0  -0.199473  0  3.983178  0  0  -0.207515  0  4.004186  0  0  -0.10672  -0.194182  0  3.96901  0
C  C67  1  0.63199065  0.63595956  0.34609293  1  0  -0.181486  0  3.727297  0  0  -0.199519  0  3.983224  0  0  -0.207563  0  4.004235  0  0  -0.106762  -0.194225  0  3.969053  0
C  C68  1  0.90322771  0.53565186  0.79080120  1  0  -0.034939  0  3.751589  0  0  -0.05893  0  3.999708  0  0  -0.054755  0  4.019094  0  0  -0.082409  -0.061436  0  3.986436  0
C  C69  1  0.40322505  0.46435065  0.70919880  1  0  -0.034967  0  3.751566  0  0  -0.059002  0  3.99969  0  0  -0.054825  0  4.019076  0  0  -0.082427  -0.061507  0  3.986422  0
C  C70  1  0.09677512  0.46434933  0.20919896  1  0  -0.035069  0  3.751562  0  0  -0.059112  0  3.999695  0  0  -0.054936  0  4.019084  0  0  -0.082485  -0.061615  0  3.986436  0
C  C71  1  0.59677644  0.53565225  0.29080000  1  0  -0.035118  0  3.751706  0  0  -0.059096  0  3.999826  0  0  -0.054919  0  4.019215  0  0  -0.082443  -0.061604  0  3.986573  0
C  C72  1  0.74654249  0.52895502  0.97502838  1  0  -0.173429  0  3.734455  0  0  -0.190959  0  3.988201  0  0  -0.198949  0  4.009501  0  0  -0.102471  -0.185719  0  3.973843  0
C  C73  1  0.24653884  0.47104417  0.52497045  1  0  -0.173451  0  3.734341  0  0  -0.190953  0  3.988117  0  0  -0.198939  0  4.009414  0  0  -0.102461  -0.185719  0  3.973763  0
C  C74  1  0.25346302  0.47104702  0.02497038  1  0  -0.173418  0  3.734373  0  0  -0.19092  0  3.988152  0  0  -0.198907  0  4.009448  0  0  -0.102424  -0.185681  0  3.973792  0
C  C75  1  0.75346399  0.52895108  0.47502862  1  0  -0.173368  0  3.734311  0  0  -0.190856  0  3.988126  0  0  -0.198842  0  4.009424  0  0  -0.102382  -0.185627  0  3.973772  0
C  C76  1  0.78919368  0.42912128  0.92063307  1  0  -0.043571  0  3.752761  0  0  -0.068029  0  4.00331  0  0  -0.064213  0  4.022929  0  0  -0.08639  -0.070293  0  3.989917  0
C  C77  1  0.28919284  0.57087960  0.57936666  1  0  -0.043583  0  3.752647  0  0  -0.068038  0  4.003181  0  0  -0.064224  0  4.0228  0  0  -0.086405  -0.070303  0  3.98978  0
C  C78  1  0.21080915  0.57087992  0.07936637  1  0  -0.043525  0  3.75281  0  0  -0.067992  0  4.003335  0  0  -0.064176  0  4.022952  0  0  -0.086386  -0.070252  0  3.989936  0
C  C79  1  0.71081267  0.42912160  0.42063278  1  0  -0.043515  0  3.75292  0  0  -0.068012  0  4.003459  0  0  -0.064198  0  4.023076  0  0  -0.08646  -0.070279  0  3.990066  0
C  C80  1  0.86519453  0.43032152  0.82708715  1  0  -0.108455  0  3.804817  0  0  -0.087913  0  4.04322  0  0  -0.100246  0  4.067696  0  0  -0.037376  -0.079858  0  4.02669  0
C  C81  1  0.36519552  0.56967846  0.67291191  1  0  -0.108423  0  3.804806  0  0  -0.087847  0  4.043173  0  0  -0.10018  0  4.067649  0  0  -0.037363  -0.079793  0  4.026637  0
C  C82  1  0.13480562  0.56968222  0.17291098  1  0  -0.108394  0  3.804821  0  0  -0.08779  0  4.043138  0  0  -0.100124  0  4.067616  0  0  -0.03733  -0.079738  0  4.026617  0
C  C83  1  0.63480731  0.43031849  0.32708799  1  0  -0.108396  0  3.804864  0  0  -0.087852  0  4.043221  0  0  -0.100186  0  4.067701  0  0  -0.037308  -0.079791  0  4.026686  0
C  C84  1  0.89809028  0.32244502  0.76889576  1  0  0.66875  0  3.874031  0  0  0.617534  0  4.161127  0  0  0.654371  0  4.152441  0  0  0.214406  0.592381  0  4.16644  0
C  C85  1  0.39809007  0.67755580  0.73110413  1  0  0.668673  0  3.874159  0  0  0.617449  0  4.161258  0  0  0.654286  0  4.152573  0  0  0.214373  0.592299  0  4.166563  0
C  C86  1  0.10190451  0.67755788  0.23110086  1  0  0.668514  0  3.874362  0  0  0.617307  0  4.161448  0  0  0.654148  0  4.152762  0  0  0.214326  0.592139  0  4.166777  0
C  C87  1  0.60190740  0.32244115  0.26889795  1  0  0.668728  0  3.874007  0  0  0.617565  0  4.161034  0  0  0.654402  0  4.152349  0  0  0.214454  0.592414  0  4.16634  0
N  N88  1  0.75244598  0.73884793  0.99230538  1  0  -0.166994  0  3.400754  0  0  -0.082273  0  3.632097  0  0  -0.100334  0  3.655097  0  0  -0.29077  -0.069456  0  3.615677  0
N  N89  1  0.25244660  0.26115127  0.50769418  1  0  -0.167132  0  3.401035  0  0  -0.082375  0  3.632297  0  0  -0.100435  0  3.655293  0  0  -0.290811  -0.069563  0  3.61588  0
N  N90  1  0.24755417  0.26115242  0.00769472  1  0  -0.166986  0  3.400773  0  0  -0.082224  0  3.632033  0  0  -0.100287  0  3.655034  0  0  -0.290749  -0.069405  0  3.615607  0
N  N91  1  0.74755355  0.73884568  0.49230645  1  0  -0.167092  0  3.400871  0  0  -0.082319  0  3.632138  0  0  -0.100384  0  3.655142  0  0  -0.290794  -0.069499  0  3.615711  0
O  O92  1  0.40954446  0.84084938  0.03780395  1  0  -0.653403  0  2.104265  0  0  -0.578905  0  2.391558  0  0  -0.607832  0  2.372804  0  0  -0.315503  -0.558742  0  2.403944  0
O  O93  1  0.90954729  0.15914949  0.46219826  1  0  -0.653407  0  2.104076  0  0  -0.578882  0  2.391379  0  0  -0.607819  0  2.372648  0  0  -0.31548  -0.558726  0  2.403767  0
O  O94  1  0.59045436  0.15915012  0.96219683  1  0  -0.653435  0  2.104068  0  0  -0.57889  0  2.391418  0  0  -0.607825  0  2.37268  0  0  -0.315475  -0.558732  0  2.403804  0
O  O95  1  0.09045286  0.84084916  0.53780394  1  0  -0.653362  0  2.104144  0  0  -0.578808  0  2.391514  0  0  -0.607737  0  2.372766  0  0  -0.315461  -0.558648  0  2.403898  0
O  O96  1  0.46535205  0.83571091  0.19616306  1  0  -0.622131  0  2.037448  0  0  -0.548724  0  2.298734  0  0  -0.579342  0  2.286987  0  0  -0.303233  -0.527419  0  2.306206  0
O  O97  1  0.96535405  0.16428878  0.30383783  1  0  -0.622102  0  2.037494  0  0  -0.548688  0  2.298823  0  0  -0.579304  0  2.287075  0  0  -0.303196  -0.527385  0  2.306284  0
O  O98  1  0.53464676  0.16428944  0.80383559  1  0  -0.622126  0  2.037335  0  0  -0.548679  0  2.298683  0  0  -0.579296  0  2.286936  0  0  -0.303205  -0.527381  0  2.306154  0
O  O99  1  0.03464343  0.83571072  0.69616369  1  0  -0.621995  0  2.037399  0  0  -0.548558  0  2.298765  0  0  -0.579173  0  2.287021  0  0  -0.303168  -0.527257  0  2.30623  0
O  O100  1  0.66270186  0.90120683  0.85278144  1  0  -0.629877  0  2.112922  0  0  -0.553385  0  2.399098  0  0  -0.582144  0  2.380367  0  0  -0.297635  -0.533408  0  2.411528  0
O  O101  1  0.16269678  0.09879580  0.64722257  1  0  -0.630025  0  2.112625  0  0  -0.553441  0  2.398648  0  0  -0.582206  0  2.379913  0  0  -0.297624  -0.533463  0  2.411081  0
O  O102  1  0.33729829  0.09879521  0.14722096  1  0  -0.629907  0  2.113005  0  0  -0.55334  0  2.399043  0  0  -0.582103  0  2.380313  0  0  -0.297564  -0.533361  0  2.411472  0
O  O103  1  0.83729936  0.90120200  0.35278103  1  0  -0.629886  0  2.113078  0  0  -0.553317  0  2.399174  0  0  -0.582081  0  2.380445  0  0  -0.297554  -0.533338  0  2.411599  0
O  O104  1  0.91869914  0.99126024  0.87871326  1  0  -0.628947  0  2.062997  0  0  -0.543766  0  2.318523  0  0  -0.574958  0  2.304899  0  0  -0.294702  -0.522133  0  2.327447  0
O  O105  1  0.41869942  0.00874311  0.62128755  1  0  -0.628473  0  2.063324  0  0  -0.543599  0  2.319078  0  0  -0.574794  0  2.305457  0  0  -0.294509  -0.521969  0  2.327998  0
O  O106  1  0.08129833  0.00874181  0.12128622  1  0  -0.628436  0  2.062881  0  0  -0.54364  0  2.318693  0  0  -0.574833  0  2.305072  0  0  -0.294628  -0.522011  0  2.327611  0
O  O107  1  0.58129939  0.99125724  0.37871256  1  0  -0.628461  0  2.062948  0  0  -0.543605  0  2.318721  0  0  -0.574802  0  2.305105  0  0  -0.2946  -0.521975  0  2.32764  0
O  O108  1  0.90175569  0.32355052  0.67501584  1  0  -0.643506  0  2.029787  0  0  -0.572978  0  2.301221  0  0  -0.601466  0  2.284592  0  0  -0.319492  -0.553239  0  2.312119  0
O  O109  1  0.40175464  0.67644944  0.82498328  1  0  -0.643449  0  2.029814  0  0  -0.572911  0  2.301237  0  0  -0.601401  0  2.284607  0  0  -0.319454  -0.553178  0  2.312133  0
O  O110  1  0.09824312  0.67645322  0.32497938  1  0  -0.643437  0  2.029853  0  0  -0.572889  0  2.301298  0  0  -0.601359  0  2.284621  0  0  -0.319433  -0.55315  0  2.312202  0
O  O111  1  0.59824418  0.32354836  0.17501886  1  0  -0.643518  0  2.029651  0  0  -0.572984  0  2.301053  0  0  -0.601468  0  2.28441  0  0  -0.319482  -0.55325  0  2.311951  0
O  O112  1  0.91993843  0.23271905  0.81480770  1  0  -0.668994  0  2.078606  0  0  -0.597214  0  2.349679  0  0  -0.624072  0  2.332292  0  0  -0.325609  -0.578452  0  2.360969  0
O  O113  1  0.41993917  0.76728176  0.68519223  1  0  -0.669001  0  2.078723  0  0  -0.59723  0  2.349786  0  0  -0.624086  0  2.332389  0  0  -0.325628  -0.578469  0  2.361074  0
O  O114  1  0.08005100  0.76728300  0.18518741  1  0  -0.668853  0  2.078797  0  0  -0.597114  0  2.349826  0  0  -0.623988  0  2.332473  0  0  -0.325617  -0.57836  0  2.361147  0
O  O115  1  0.58005696  0.23271774  0.31481002  1  0  -0.669022  0  2.07876  0  0  -0.597278  0  2.349803  0  0  -0.624135  0  2.332417  0  0  -0.325719  -0.578533  0  2.361123  0
O  O116  1  0.28641823  0.94659589  0.85171134  1  0  -0.96701  0  1.826995  0  0  -0.866474  0  2.108291  0  0  -0.900006  0  2.070292  0  0  -0.59294  -0.842752  0  2.134227  0
O  O117  1  0.78642226  0.05340668  0.64828922  1  0  -0.96701  0  1.827107  0  0  -0.866479  0  2.108366  0  0  -0.900005  0  2.07036  0  0  -0.592963  -0.842755  0  2.134304  0
O  O118  1  0.71357924  0.05340530  0.14829028  1  0  -0.966988  0  1.827101  0  0  -0.866454  0  2.108334  0  0  -0.899983  0  2.07033  0  0  -0.592963  -0.842735  0  2.134269  0
O  O119  1  0.21358057  0.94659367  0.35171016  1  0  -0.966971  0  1.827147  0  0  -0.866457  0  2.108404  0  0  -0.899987  0  2.070402  0  0  -0.592954  -0.842736  0  2.13434  0
