# generated using pymatgen
data_AgH23C23S(NO2)2
_symmetry_space_group_name_H-M   'P 1'
_cell_length_a   8.08205937
_cell_length_b   10.59754936
_cell_length_c   13.00897140
_cell_angle_alpha   70.05968447
_cell_angle_beta   89.49131779
_cell_angle_gamma   85.41777330
_symmetry_Int_Tables_number   1
_chemical_formula_structural   AgH23C23S(NO2)2
_chemical_formula_sum   'Ag2 H46 C46 S2 N4 O8'
_cell_volume   1043.87103938
_cell_formula_units_Z   2
loop_
 _symmetry_equiv_pos_site_id
 _symmetry_equiv_pos_as_xyz
  1  'x, y, z'
loop_
 _atom_site_type_symbol
 _atom_site_label
 _atom_site_symmetry_multiplicity
 _atom_site_fract_x
 _atom_site_fract_y
 _atom_site_fract_z
 _atom_site_occupancy
 _atom_site_hle17_bader_spin_density
 _atom_site_hle17_ddec_charge
 _atom_site_hle17_ddec_spin_density
 _atom_site_hle17_ddec_sum_bond_order
 _atom_site_hle17_magmom
 _atom_site_hse06_10hf_bader_spin_density
 _atom_site_hse06_10hf_ddec_charge
 _atom_site_hse06_10hf_ddec_spin_density
 _atom_site_hse06_10hf_ddec_sum_bond_order
 _atom_site_hse06_10hf_magmom
 _atom_site_hse06_bader_spin_density
 _atom_site_hse06_ddec_charge
 _atom_site_hse06_ddec_spin_density
 _atom_site_hse06_ddec_sum_bond_order
 _atom_site_hse06_magmom
 _atom_site_pbe_bader_spin_density
 _atom_site_pbe_cm5_charge
 _atom_site_pbe_ddec_charge
 _atom_site_pbe_ddec_spin_density
 _atom_site_pbe_ddec_sum_bond_order
 _atom_site_pbe_magmom
Ag  Ag0  1  0.10741363  0.42483161  0.36459617  1  0  0.551331  0  1.403299  0  0  0.415801  0  1.828985  0  0  0.445211  0  1.785162  0  0  0.451182  0.398494  0  1.858451  0
Ag  Ag1  1  0.89258030  0.57516940  0.63540994  1  0  0.551358  0  1.403312  0  0  0.415828  0  1.829007  0  0  0.445238  0  1.785185  0  0  0.451172  0.398522  0  1.858471  0
H  H2  1  0.48097609  0.02972304  0.38075658  1  0  0.104246  0  0.962292  0  0  0.116964  0  1.021661  0  0  0.119105  0  1.021922  0  0  0.099795  0.115326  0  1.021516  0
H  H3  1  0.51903399  0.97027705  0.61923507  1  0  0.104165  0  0.962316  0  0  0.116847  0  1.021714  0  0  0.118984  0  1.021973  0  0  0.09977  0.115213  0  1.021563  0
H  H4  1  0.84207011  0.70375231  0.36878658  1  0  0.135554  0  0.976746  0  0  0.142207  0  1.039042  0  0  0.145533  0  1.037277  0  0  0.10687  0.139805  0  1.040452  0
H  H5  1  0.15793595  0.29623866  0.63121605  1  0  0.135511  0  0.976515  0  0  0.142108  0  1.038906  0  0  0.145433  0  1.037141  0  0  0.106827  0.139724  0  1.040294  0
H  H6  1  0.93330623  0.13867623  0.07518106  1  0  0.104519  0  0.952022  0  0  0.116279  0  1.019144  0  0  0.118433  0  1.016952  0  0  0.116404  0.114639  0  1.020907  0
H  H7  1  0.06668997  0.86132682  0.92481986  1  0  0.104508  0  0.95206  0  0  0.116286  0  1.019144  0  0  0.118437  0  1.016956  0  0  0.116416  0.114644  0  1.020905  0
H  H8  1  0.02902914  0.97782420  0.14904504  1  0  0.092383  0  0.934018  0  0  0.109078  0  0.993629  0  0  0.110147  0  0.992829  0  0  0.117013  0.108337  0  0.994211  0
H  H9  1  0.97096962  0.02217785  0.85095537  1  0  0.092362  0  0.934009  0  0  0.109047  0  0.993629  0  0  0.110116  0  0.992828  0  0  0.116997  0.108305  0  0.99421  0
H  H10  1  0.15598533  0.09124163  0.47487602  1  0  0.10241  0  0.991035  0  0  0.109549  0  1.059299  0  0  0.110878  0  1.060225  0  0  0.111803  0.108603  0  1.058757  0
H  H11  1  0.84401734  0.90875842  0.52512338  1  0  0.102399  0  0.991015  0  0  0.109543  0  1.059283  0  0  0.110871  0  1.060211  0  0  0.111804  0.108595  0  1.058739  0
H  H12  1  0.98690485  0.35105592  0.05566287  1  0  0.100079  0  0.938927  0  0  0.117848  0  0.997683  0  0  0.118699  0  0.998433  0  0  0.10474  0.117283  0  0.997174  0
H  H13  1  0.01309515  0.64894614  0.94433676  1  0  0.10009  0  0.938952  0  0  0.117857  0  0.997705  0  0  0.11871  0  0.998453  0  0  0.104749  0.11729  0  0.997198  0
H  H14  1  0.08286860  0.44684759  0.12272501  1  0  0.098063  0  0.92441  0  0  0.115899  0  0.984759  0  0  0.118069  0  0.982549  0  0  0.103651  0.114522  0  0.986126  0
H  H15  1  0.91713017  0.55315446  0.87727539  1  0  0.098048  0  0.924394  0  0  0.115867  0  0.984776  0  0  0.11804  0  0.982563  0  0  0.103629  0.114488  0  0.986144  0
H  H16  1  0.62090260  0.09811250  0.09414552  1  0  0.090695  0  0.955349  0  0  0.099454  0  1.021305  0  0  0.102455  0  1.019504  0  0  0.103632  0.097322  0  1.022609  0
H  H17  1  0.37909306  0.90188351  0.90585580  1  0  0.090648  0  0.955322  0  0  0.099429  0  1.021262  0  0  0.102429  0  1.019462  0  0  0.10361  0.097297  0  1.022568  0
H  H18  1  0.76081754  0.96992669  0.29418943  1  0  0.093578  0  0.965663  0  0  0.105643  0  1.025588  0  0  0.108076  0  1.024771  0  0  0.0965  0.103901  0  1.026146  0
H  H19  1  0.23919356  0.03006330  0.70581037  1  0  0.093573  0  0.965657  0  0  0.105695  0  1.025523  0  0  0.108128  0  1.024704  0  0  0.096492  0.103953  0  1.026079  0
H  H20  1  0.04596937  0.85558122  0.29662469  1  0  0.101409  0  0.975671  0  0  0.112493  0  1.037665  0  0  0.115171  0  1.03582  0  0  0.1071  0.110895  0  1.03872  0
H  H21  1  0.95401827  0.14442081  0.70337964  1  0  0.101442  0  0.975565  0  0  0.112538  0  1.037547  0  0  0.115216  0  1.035701  0  0  0.107115  0.110939  0  1.038603  0
H  H22  1  0.30189972  0.72224446  0.59789187  1  0  0.103588  0  0.937871  0  0  0.120621  0  0.997592  0  0  0.122288  0  0.996644  0  0  0.1011  0.119153  0  0.998625  0
H  H23  1  0.69810740  0.27776062  0.40210612  1  0  0.103584  0  0.937863  0  0  0.120649  0  0.99758  0  0  0.122318  0  0.996628  0  0  0.10109  0.119179  0  0.998612  0
H  H24  1  0.27015419  0.90019047  0.54071656  1  0  0.089483  0  0.957512  0  0  0.107414  0  1.020354  0  0  0.108544  0  1.020212  0  0  0.096339  0.106947  0  1.01969  0
H  H25  1  0.72985539  0.09981464  0.45927756  1  0  0.08944  0  0.957576  0  0  0.107398  0  1.020408  0  0  0.108528  0  1.020265  0  0  0.096341  0.10693  0  1.019742  0
H  H26  1  0.06764143  0.21476871  0.90656066  1  0  0.109657  0  0.965246  0  0  0.118517  0  1.027332  0  0  0.122628  0  1.024445  0  0  0.101135  0.115564  0  1.029537  0
H  H27  1  0.93235550  0.78523938  0.09343965  1  0  0.109672  0  0.965295  0  0  0.11855  0  1.027354  0  0  0.122662  0  1.024464  0  0  0.101134  0.115598  0  1.029558  0
H  H28  1  0.70126766  0.25107018  0.22131037  1  0  0.048579  0  0.93658  0  0  0.069476  0  0.994993  0  0  0.069755  0  0.99609  0  0  0.080688  0.0693  0  0.994205  0
H  H29  1  0.29872863  0.74893187  0.77869005  1  0  0.048557  0  0.936626  0  0  0.069465  0  0.995024  0  0  0.069745  0  0.996119  0  0  0.080673  0.06929  0  0.994236  0
H  H30  1  0.67797087  0.32234397  0.07811675  1  0  0.055037  0  0.963664  0  0  0.072748  0  1.029494  0  0  0.07319  0  1.030435  0  0  0.082658  0.072304  0  1.029058  0
H  H31  1  0.32203037  0.67765809  0.92188287  1  0  0.055095  0  0.963697  0  0  0.072774  0  1.029547  0  0  0.07324  0  1.030465  0  0  0.082665  0.072331  0  1.029113  0
H  H32  1  0.82145720  0.46218137  0.22495803  1  0  0.064923  0  0.94431  0  0  0.08165  0  1.011433  0  0  0.083514  0  1.00952  0  0  0.085405  0.080159  0  1.013105  0
H  H33  1  0.17854167  0.53781967  0.77504419  1  0  0.064938  0  0.944316  0  0  0.081677  0  1.011426  0  0  0.08354  0  1.009513  0  0  0.08542  0.080186  0  1.013097  0
H  H34  1  0.79274514  0.53392339  0.08201508  1  0  0.06665  0  0.947051  0  0  0.08812  0  1.002935  0  0  0.088118  0  1.005498  0  0  0.088885  0.087936  0  1.001392  0
H  H35  1  0.20725487  0.46607865  0.91798686  1  0  0.066642  0  0.94708  0  0  0.088121  0  1.002959  0  0  0.08812  0  1.005523  0  0  0.088879  0.087936  0  1.001417  0
H  H36  1  0.47668108  0.50654569  0.09789647  1  0  0.090105  0  0.962634  0  0  0.114509  0  1.019286  0  0  0.114976  0  1.021007  0  0  0.082169  0.113999  0  1.018335  0
H  H37  1  0.52331757  0.49345740  0.90209827  1  0  0.090117  0  0.96263  0  0  0.114521  0  1.019286  0  0  0.114988  0  1.021004  0  0  0.082149  0.114011  0  1.018333  0
H  H38  1  0.50109301  0.43838354  0.24209805  1  0  0.091498  0  0.958694  0  0  0.108717  0  1.028306  0  0  0.110664  0  1.027145  0  0  0.079652  0.10741  0  1.028937  0
H  H39  1  0.49889936  0.56162054  0.75789876  1  0  0.091511  0  0.958658  0  0  0.108739  0  1.028267  0  0  0.110686  0  1.027106  0  0  0.07965  0.107431  0  1.0289  0
H  H40  1  0.40849153  0.34531397  0.17034683  1  0  0.088027  0  0.965435  0  0  0.106446  0  1.032707  0  0  0.107518  0  1.033597  0  0  0.077492  0.105525  0  1.032287  0
H  H41  1  0.59150599  0.65468811  0.82964819  1  0  0.088036  0  0.965493  0  0  0.106469  0  1.032752  0  0  0.107531  0  1.033652  0  0  0.077488  0.105548  0  1.032331  0
H  H42  1  0.32547601  0.27631079  0.79986698  1  0  0.103752  0  0.961262  0  0  0.113482  0  1.021719  0  0  0.11614  0  1.02072  0  0  0.105021  0.111624  0  1.022433  0
H  H43  1  0.67452379  0.72369326  0.20013518  1  0  0.103728  0  0.961244  0  0  0.113461  0  1.021708  0  0  0.116121  0  1.020705  0  0  0.105006  0.111604  0  1.022421  0
H  H44  1  0.72418318  0.30999964  0.73013869  1  0  0.394795  0  0.900822  0  0  0.36008  0  0.985899  0  0  0.37273  0  0.972446  0  0  0.298272  0.351305  0  0.995139  0
H  H45  1  0.27581609  0.68999738  0.26986310  1  0  0.394848  0  0.900749  0  0  0.360124  0  0.985858  0  0  0.372776  0  0.972395  0  0  0.298258  0.351351  0  0.995099  0
H  H46  1  0.36708957  0.03320387  0.20089824  1  0  0.097073  0  0.967875  0  0  0.105849  0  1.033691  0  0  0.108674  0  1.033307  0  0  0.09897  0.103885  0  1.034115  0
H  H47  1  0.63290485  0.96679215  0.79910309  1  0  0.097135  0  0.967858  0  0  0.105913  0  1.033657  0  0  0.108739  0  1.033273  0  0  0.098987  0.103949  0  1.034081  0
C  C48  1  0.09986223  0.03323379  0.32926901  1  0  0.111546  0  3.780113  0  0  0.104621  0  4.039216  0  0  0.105802  0  4.061645  0  0  0.076327  0.10387  0  4.024618  0
C  C49  1  0.90014282  0.96676725  0.67073164  1  0  0.111556  0  3.780143  0  0  0.104642  0  4.039231  0  0  0.10582  0  4.061662  0  0  0.076353  0.103891  0  4.024633  0
C  C50  1  0.53993232  0.92814723  0.39951041  1  0  -0.160809  0  3.79422  0  0  -0.18428  0  4.05168  0  0  -0.187293  0  4.072714  0  0  -0.119545  -0.181943  0  4.036717  0
C  C51  1  0.46007311  0.07184986  0.60047979  1  0  -0.160673  0  3.793946  0  0  -0.184086  0  4.051434  0  0  -0.187091  0  4.072459  0  0  -0.119502  -0.181753  0  4.036474  0
C  C52  1  0.47373389  0.81613435  0.47170763  1  0  0.007464  0  3.697063  0  0  0.031317  0  3.957985  0  0  0.03143  0  3.98177  0  0  -0.023453  0.031426  0  3.941522  0
C  C53  1  0.52627249  0.18386572  0.52828789  1  0  0.007447  0  3.696941  0  0  0.03129  0  3.957901  0  0  0.031403  0  3.981683  0  0  -0.023491  0.031395  0  3.941437  0
C  C54  1  0.73521682  0.75910715  0.38892619  1  0  -0.192834  0  3.724144  0  0  -0.207768  0  4.000629  0  0  -0.208615  0  4.017786  0  0  -0.111404  -0.20683  0  3.988776  0
C  C55  1  0.26478830  0.24088082  0.61107496  1  0  -0.192789  0  3.724255  0  0  -0.207677  0  4.000777  0  0  -0.208525  0  4.017945  0  0  -0.111389  -0.206749  0  3.988908  0
C  C56  1  0.04201706  0.25009164  0.22501028  1  0  0.328769  0  3.677435  0  0  0.299729  0  3.945446  0  0  0.315253  0  3.961116  0  0  0.222092  0.290888  0  3.93338  0
C  C57  1  0.95798533  0.74991140  0.77499214  1  0  0.328639  0  3.677574  0  0  0.299585  0  3.945608  0  0  0.315108  0  3.96128  0  0  0.222102  0.290744  0  3.933539  0
C  C58  1  0.04311903  0.08618806  0.12509217  1  0  -0.049273  0  3.631435  0  0  -0.116214  0  3.881111  0  0  -0.112182  0  3.890416  0  0  -0.048823  -0.118872  0  3.874668  0
C  C59  1  0.95688231  0.91381299  0.87490773  1  0  -0.049234  0  3.631314  0  0  -0.116149  0  3.880985  0  0  -0.112116  0  3.89029  0  0  -0.048783  -0.118798  0  3.874523  0
C  C60  1  0.20013108  0.12055301  0.06048667  1  0  0.09236  0  3.716204  0  0  0.108816  0  3.958659  0  0  0.110299  0  3.982723  0  0  -0.005106  0.108104  0  3.942212  0
C  C61  1  0.79986758  0.87945005  0.93951269  1  0  0.092389  0  3.716316  0  0  0.108767  0  3.958885  0  0  0.11025  0  3.982949  0  0  -0.005142  0.108055  0  3.942429  0
C  C62  1  0.12096375  0.11671742  0.38960212  1  0  -0.021433  0  3.690433  0  0  -0.063125  0  3.955552  0  0  -0.059687  0  3.97654  0  0  0.005651  -0.067015  0  3.942976  0
C  C63  1  0.87903780  0.88328160  0.61040064  1  0  -0.021411  0  3.690476  0  0  -0.063112  0  3.955594  0  0  -0.059676  0  3.976582  0  0  0.005683  -0.067  0  3.943015  0
C  C64  1  0.98903763  0.37412370  0.13172497  1  0  -0.214345  0  3.721221  0  0  -0.260604  0  3.981758  0  0  -0.262779  0  3.99173  0  0  -0.154588  -0.259208  0  3.974265  0
C  C65  1  0.01096259  0.62587633  0.86827753  1  0  -0.214267  0  3.72123  0  0  -0.260507  0  3.981752  0  0  -0.262683  0  3.991727  0  0  -0.154555  -0.259106  0  3.974255  0
C  C66  1  0.49935520  0.12471032  0.05373579  1  0  -0.050373  0  3.753852  0  0  -0.07286  0  4.000204  0  0  -0.071914  0  4.021734  0  0  -0.0763  -0.073168  0  3.985945  0
C  C67  1  0.50064169  0.87528570  0.94626552  1  0  -0.050349  0  3.753663  0  0  -0.072838  0  4.000046  0  0  -0.071873  0  4.021592  0  0  -0.076307  -0.073147  0  3.985787  0
C  C68  1  0.68967894  0.89544726  0.35252087  1  0  -0.095152  0  3.8345  0  0  -0.110865  0  4.093634  0  0  -0.112361  0  4.113941  0  0  -0.119415  -0.109668  0  4.079276  0
C  C69  1  0.31032712  0.10454374  0.64747868  1  0  -0.095182  0  3.834632  0  0  -0.110942  0  4.093752  0  0  -0.112439  0  4.114061  0  0  -0.11935  -0.109746  0  4.079396  0
C  C70  1  0.11033491  0.88970904  0.35442235  1  0  -0.14813  0  3.774413  0  0  -0.182662  0  4.035627  0  0  -0.181376  0  4.055003  0  0  -0.090876  -0.184334  0  4.022925  0
C  C71  1  0.88966292  0.11028999  0.64557889  1  0  -0.148189  0  3.774259  0  0  -0.182723  0  4.035486  0  0  -0.181438  0  4.054864  0  0  -0.090897  -0.184396  0  4.022783  0
C  C72  1  0.18732491  0.79010163  0.43921170  1  0  -0.038722  0  3.675105  0  0  -0.013409  0  3.91757  0  0  -0.020658  0  3.939356  0  0  -0.01744  -0.008597  0  3.90306  0
C  C73  1  0.81267539  0.20989742  0.56078722  1  0  -0.038693  0  3.675031  0  0  -0.013389  0  3.917589  0  0  -0.020637  0  3.939374  0  0  -0.017441  -0.008578  0  3.903076  0
C  C74  1  0.30444204  0.80859032  0.52175753  1  0  -0.161343  0  3.749957  0  0  -0.213005  0  3.989355  0  0  -0.212704  0  4.000818  0  0  -0.157985  -0.212729  0  3.98071  0
C  C75  1  0.69556310  0.19140975  0.47823800  1  0  -0.161348  0  3.749869  0  0  -0.213068  0  3.98932  0  0  -0.212762  0  4.000772  0  0  -0.158019  -0.212782  0  3.980665  0
C  C76  1  0.18956810  0.18763735  0.94722970  1  0  -0.138652  0  3.731529  0  0  -0.15543  0  3.97873  0  0  -0.1609  0  4.000063  0  0  -0.093601  -0.151815  0  3.964308  0
C  C77  1  0.81043006  0.81237075  0.05276828  1  0  -0.138651  0  3.731569  0  0  -0.155408  0  3.978775  0  0  -0.160881  0  4.000114  0  0  -0.093544  -0.151793  0  3.964352  0
C  C78  1  0.48877200  0.19372260  0.94073789  1  0  -0.092547  0  3.789502  0  0  -0.068339  0  4.018396  0  0  -0.078176  0  4.043344  0  0  -0.02078  -0.062051  0  4.002103  0
C  C79  1  0.51122728  0.80627441  0.05926621  1  0  -0.092501  0  3.789368  0  0  -0.06835  0  4.018355  0  0  -0.078246  0  4.043385  0  0  -0.020788  -0.062061  0  4.002063  0
C  C80  1  0.67701040  0.34766171  0.15350558  1  0  -0.064589  0  3.706743  0  0  -0.097395  0  3.965467  0  0  -0.098128  0  3.98117  0  0  -0.173126  -0.096776  0  3.954499  0
C  C81  1  0.32298950  0.65234135  0.84649378  1  0  -0.064654  0  3.706956  0  0  -0.097453  0  3.965702  0  0  -0.0982  0  3.981401  0  0  -0.173135  -0.096833  0  3.954735  0
C  C82  1  0.64264983  0.23488606  0.87882667  1  0  0.646027  0  3.851213  0  0  0.597172  0  4.150665  0  0  0.630471  0  4.142043  0  0  0.22643  0.574409  0  4.156307  0
C  C83  1  0.35734677  0.76511296  0.12117612  1  0  0.646003  0  3.851102  0  0  0.597168  0  4.150541  0  0  0.630483  0  4.141922  0  0  0.226455  0.574406  0  4.156184  0
C  C84  1  0.81730653  0.43748406  0.14924656  1  0  -0.099486  0  3.664804  0  0  -0.137668  0  3.919905  0  0  -0.139042  0  3.934289  0  0  -0.165149  -0.136409  0  3.909889  0
C  C85  1  0.18269368  0.56251598  0.85075439  1  0  -0.099457  0  3.664809  0  0  -0.13766  0  3.919926  0  0  -0.139034  0  3.934314  0  0  -0.165139  -0.136402  0  3.909906  0
C  C86  1  0.50647864  0.41272056  0.16694068  1  0  -0.285314  0  3.712612  0  0  -0.355742  0  3.955524  0  0  -0.358065  0  3.966249  0  0  -0.250429  -0.353718  0  3.948107  0
C  C87  1  0.49351734  0.58728452  0.83305738  1  0  -0.285352  0  3.712773  0  0  -0.355805  0  3.955648  0  0  -0.358125  0  3.966393  0  0  -0.250401  -0.353782  0  3.948229  0
C  C88  1  0.33303691  0.22339225  0.88772263  1  0  -0.04785  0  3.726884  0  0  -0.071744  0  3.972949  0  0  -0.070329  0  3.993801  0  0  -0.078296  -0.07247  0  3.958928  0
C  C89  1  0.66696165  0.77661181  0.11227800  1  0  -0.047838  0  3.726706  0  0  -0.071729  0  3.972812  0  0  -0.070296  0  3.993675  0  0  -0.078304  -0.072455  0  3.958794  0
C  C90  1  0.35648629  0.08807629  0.11311133  1  0  -0.122177  0  3.717636  0  0  -0.142434  0  3.967852  0  0  -0.147053  0  3.989253  0  0  -0.09373  -0.139668  0  3.95382  0
C  C91  1  0.64350773  0.91192376  0.88688812  1  0  -0.122229  0  3.717687  0  0  -0.142464  0  3.96793  0  0  -0.147081  0  3.989326  0  0  -0.093701  -0.139699  0  3.953899  0
C  C92  1  0.16857693  0.64755204  0.44724882  1  0  0.614864  0  3.916049  0  0  0.559714  0  4.209336  0  0  0.593616  0  4.204281  0  0  0.19361  0.535962  0  4.213733  0
C  C93  1  0.83142101  0.35244598  0.55275347  1  0  0.614914  0  3.916152  0  0  0.559721  0  4.209513  0  0  0.593622  0  4.20446  0  0  0.193636  0.535968  0  4.213912  0
S  S94  1  0.59487020  0.67132408  0.47968075  1  0  0.138864  0  2.756771  0  0  0.150765  0  3.112913  0  0  0.148717  0  3.11569  0  0  0.08316  0.151846  0  3.110654  0
S  S95  1  0.40513174  0.32867094  0.52031772  1  0  0.138878  0  2.756803  0  0  0.150793  0  3.112928  0  0  0.148742  0  3.115706  0  0  0.083195  0.151873  0  3.110675  0
N  N96  1  0.08489120  0.24856559  0.32475922  1  0  -0.396513  0  3.352268  0  0  -0.317058  0  3.65554  0  0  -0.339759  0  3.671739  0  0  -0.374693  -0.302375  0  3.644652  0
N  N97  1  0.91511127  0.75143647  0.67524040  1  0  -0.396442  0  3.352355  0  0  -0.316956  0  3.655592  0  0  -0.339661  0  3.671804  0  0  -0.374665  -0.302274  0  3.644701  0
N  N98  1  0.04815252  0.12132767  0.22469554  1  0  -0.160571  0  3.471219  0  0  -0.07299  0  3.689241  0  0  -0.089216  0  3.714147  0  0  -0.236632  -0.061741  0  3.671506  0
N  N99  1  0.95184490  0.87867540  0.77530229  1  0  -0.160583  0  3.471327  0  0  -0.07301  0  3.689356  0  0  -0.089235  0  3.714262  0  0  -0.236759  -0.061765  0  3.671619  0
O  O100  1  0.14003650  0.62829427  0.35493597  1  0  -0.645183  0  2.169534  0  0  -0.55069  0  2.430493  0  0  -0.58202  0  2.417172  0  0  -0.340039  -0.530264  0  2.440087  0
O  O101  1  0.85995989  0.37170681  0.64506011  1  0  -0.645182  0  2.169876  0  0  -0.550691  0  2.430884  0  0  -0.582025  0  2.417568  0  0  -0.340023  -0.530268  0  2.440482  0
O  O102  1  0.61767029  0.27929431  0.77110209  1  0  -0.550403  0  2.127713  0  0  -0.500543  0  2.354773  0  0  -0.524077  0  2.343718  0  0  -0.331194  -0.483998  0  2.361868  0
O  O103  1  0.38232796  0.72070068  0.22890256  1  0  -0.550486  0  2.127544  0  0  -0.500614  0  2.354556  0  0  -0.524153  0  2.343501  0  0  -0.331224  -0.484071  0  2.361651  0
O  O104  1  0.77934330  0.22908178  0.92328007  1  0  -0.584561  0  1.929326  0  0  -0.543185  0  2.152145  0  0  -0.563341  0  2.142522  0  0  -0.305865  -0.529276  0  2.158612  0
O  O105  1  0.22065618  0.77091323  0.07672150  1  0  -0.584533  0  1.929293  0  0  -0.543169  0  2.152104  0  0  -0.563323  0  2.142477  0  0  -0.305851  -0.529259  0  2.158572  0
O  O106  1  0.17886131  0.55568727  0.53856529  1  0  -0.597079  0  1.999777  0  0  -0.542989  0  2.254021  0  0  -0.566437  0  2.242506  0  0  -0.315279  -0.527846  0  2.262648  0
O  O107  1  0.82112756  0.44431478  0.46143672  1  0  -0.597178  0  1.999653  0  0  -0.543045  0  2.25388  0  0  -0.566517  0  2.242419  0  0  -0.315335  -0.5279  0  2.262504  0
