# generated using pymatgen
data_ZnH8C23I2(NO3)2
_symmetry_space_group_name_H-M   'P 1'
_cell_length_a   13.83283443
_cell_length_b   15.31794635
_cell_length_c   16.11447969
_cell_angle_alpha   90.64111505
_cell_angle_beta   89.89347473
_cell_angle_gamma   89.11502118
_symmetry_Int_Tables_number   1
_chemical_formula_structural   ZnH8C23I2(NO3)2
_chemical_formula_sum   'Zn2 H16 C46 I4 N4 O12'
_cell_volume   3413.87894403
_cell_formula_units_Z   2
loop_
 _symmetry_equiv_pos_site_id
 _symmetry_equiv_pos_as_xyz
  1  'x, y, z'
loop_
 _atom_site_type_symbol
 _atom_site_label
 _atom_site_symmetry_multiplicity
 _atom_site_fract_x
 _atom_site_fract_y
 _atom_site_fract_z
 _atom_site_occupancy
 _atom_site_pbe_bader_charge
 _atom_site_pbe_bader_spin_density
 _atom_site_pbe_cm5_charge
 _atom_site_pbe_ddec_charge
 _atom_site_pbe_ddec_spin_density
 _atom_site_pbe_ddec_sum_bond_order
 _atom_site_pbe_magmom
Zn  Zn0  1  0.59967693  0.50027435  0.50004639  1  1.290715  0  0.665873  0.812506  0  2.452046  0
Zn  Zn1  1  0.40032264  0.49972651  0.49995252  1  1.299014  0  0.665844  0.812454  0  2.452102  0
H  H2  1  0.41481873  0.63057213  0.05349408  1  0.064429  0  0.102198  0.090372  0  0.989305  0
H  H3  1  0.58518085  0.36942808  0.94650607  1  0.064422  0  0.102211  0.090396  0  0.989395  0
H  H4  1  0.58086155  0.63056080  0.94945868  1  0.073442  0  0.10422  0.093517  0  0.985899  0
H  H5  1  0.41913803  0.36943941  0.05054085  1  0.073441  0  0.104219  0.093512  0  0.985892  0
H  H6  1  0.33256940  0.49999145  0.94990643  1  0.066209  0  0.101356  0.088892  0  0.990731  0
H  H7  1  0.66743090  0.50000875  0.05009248  1  0.066278  0  0.101345  0.088826  0  0.9908  0
H  H8  1  0.40822355  0.22618914  0.40188845  1  0.082621  0  0.09346  0.105889  0  1.044366  0
H  H9  1  0.59177676  0.77381044  0.59811666  1  0.082483  0  0.093436  0.105845  0  1.044378  0
H  H10  1  0.64729006  0.07373785  0.67145171  1  0.08076  0  0.085524  0.100243  0  1.06899  0
H  H11  1  0.35271240  0.92626302  0.32855278  1  0.080883  0  0.08552  0.100284  0  1.068961  0
H  H12  1  0.75261829  0.39768253  0.41663419  1  0.112889  0  0.139344  0.122524  0  0.956164  0
H  H13  1  0.24737841  0.60231637  0.58336347  1  0.111976  0  0.13935  0.122499  0  0.956158  0
H  H14  1  0.74900222  0.59828430  0.59032728  1  0.172696  0  0.134936  0.121169  0  0.995977  0
H  H15  1  0.25099878  0.40171782  0.40966543  1  0.17269  0  0.134881  0.121093  0  0.995908  0
H  H16  1  0.08876743  0.66797977  0.63874863  1  0.157094  0  0.134037  0.149374  0  0.960533  0
H  H17  1  0.91123283  0.33202429  0.36124099  1  0.156988  0  0.13407  0.149364  0  0.960506  0
C  C18  1  0.49809146  0.67086590  0.49706436  1  1.629075  0  0.213086  0.606212  0  4.169397  0
C  C19  1  0.50191172  0.32913561  0.50293765  1  1.628899  0  0.213103  0.606254  0  4.169105  0
C  C20  1  0.50133310  0.49760940  0.33786791  1  1.612854  0  0.214622  0.668626  0  4.24595  0
C  C21  1  0.49866575  0.50239145  0.66212914  1  1.612986  0  0.21469  0.668675  0  4.245829  0
C  C22  1  0.54503066  0.57262073  0.97291067  1  -0.023206  0  -0.067431  -0.074681  0  3.624758  0
C  C23  1  0.45496819  0.42737948  0.02708886  1  -0.023123  0  -0.067391  -0.074603  0  3.624655  0
C  C24  1  0.45250736  0.57258697  0.02874352  1  -0.006754  0  -0.068514  -0.074801  0  3.628016  0
C  C25  1  0.54749296  0.42741191  0.97125476  1  -0.006785  0  -0.06854  -0.074878  0  3.62809  0
C  C26  1  0.50064164  0.49860243  0.24853354  1  0.117279  0  -0.062697  -0.213092  0  4.023955  0
C  C27  1  0.49935503  0.50139845  0.75146848  1  0.117235  0  -0.062867  -0.213335  0  4.024334  0
C  C28  1  0.59315954  0.49996350  0.02699945  1  -0.033517  0  -0.070916  -0.079541  0  3.637584  0
C  C29  1  0.40684004  0.50003670  0.97299945  1  -0.033522  0  -0.070919  -0.079631  0  3.63763  0
C  C30  1  0.50087929  0.49991965  0.08522321  1  0.188785  0  0.00725  0.122804  0  3.800702  0
C  C31  1  0.49911885  0.50007991  0.91477755  1  0.188639  0  0.00724  0.122837  0  3.800454  0
C  C32  1  0.50041287  0.49954708  0.17290638  1  -0.468467  0  -0.035064  -0.048142  0  4.099356  0
C  C33  1  0.49958236  0.50045377  0.82708820  1  -0.468284  0  -0.034976  -0.04798  0  4.099499  0
C  C34  1  0.44908691  0.18754787  0.44654959  1  -0.003605  0  -0.088916  -0.137179  0  3.944926  0
C  C35  1  0.55091483  0.81245300  0.55345428  1  -0.003622  0  -0.088938  -0.137198  0  3.944873  0
C  C36  1  0.50272564  0.23112444  0.50696811  1  0.070187  0  -0.018296  -0.038373  0  3.98528  0
C  C37  1  0.49727611  0.76887512  0.49303576  1  0.069845  0  -0.018295  -0.038364  0  3.985389  0
C  C38  1  0.55354683  0.18329154  0.56676701  1  -0.301832  0  -0.039682  -0.008647  0  3.823748  0
C  C39  1  0.44645420  0.81670869  0.43323934  1  -0.301511  0  -0.039608  -0.008547  0  3.823705  0
C  C40  1  0.55354137  0.09085900  0.56514651  1  0.024243  0  -0.010525  0.057839  0  4.005597  0
C  C41  1  0.44645891  0.90914386  0.43486110  1  0.024379  0  -0.010631  0.057796  0  4.005374  0
C  C42  1  0.50000789  0.04658403  0.50136715  1  0.109772  0  0.006538  0.016487  0  3.891077  0
C  C43  1  0.49999385  0.95341685  0.49863983  1  -0.024902  0  0.006623  0.016424  0  3.891122  0
C  C44  1  0.44650265  0.09641564  0.44175967  1  -0.025245  0  -0.01386  0.045798  0  4.037478  0
C  C45  1  0.55349911  0.90358395  0.55824853  1  -0.024992  0  -0.013876  0.045857  0  4.037611  0
C  C46  1  0.60644170  0.03953892  0.62377912  1  0.074855  0  -0.106929  -0.169971  0  4.006847  0
C  C47  1  0.39356147  0.96046325  0.37622414  1  0.074773  0  -0.106942  -0.170068  0  4.006789  0
C  C48  1  0.60736524  0.95049049  0.61999446  1  -0.284086  0  -0.045059  0.027296  0  3.902311  0
C  C49  1  0.39263505  0.04951040  0.38001190  1  -0.284032  0  -0.045114  0.02729  0  3.902122  0
C  C50  1  0.79634627  0.44192749  0.45391847  1  0.496483  0  0.081466  0.073145  0  3.832667  0
C  C51  1  0.20365188  0.55807140  0.54607919  1  0.497179  0  0.081401  0.073062  0  3.83275  0
C  C52  1  0.79453459  0.55548829  0.55211073  1  0.539207  0  0.077429  0.077917  0  3.821941  0
C  C53  1  0.20546423  0.44451451  0.44788571  1  0.539227  0  0.077491  0.078034  0  3.821773  0
C  C54  1  0.89600155  0.55886555  0.55478407  1  0.007357  0  0.012882  -0.003954  0  3.977611  0
C  C55  1  0.10399582  0.44113855  0.44520990  1  0.007168  0  0.012909  -0.004047  0  3.977589  0
C  C56  1  0.94866434  0.49993075  0.50160239  1  0.094082  0  0.024296  0.032521  0  3.918686  0
C  C57  1  0.05133230  0.50007336  0.49839282  1  -0.019447  0  0.024294  0.032645  0  3.918625  0
C  C58  1  0.89754581  0.43955048  0.45099598  1  0.088384  0  0.008835  0.045791  0  4.030492  0
C  C59  1  0.10245229  0.56045231  0.54899736  1  0.088994  0  0.0088  0.045749  0  4.030655  0
C  C60  1  0.95147158  0.61894475  0.60423012  1  0.229729  0  0.091458  0.04449  0  3.899547  0
C  C61  1  0.04852940  0.38105930  0.39575888  1  0.229695  0  0.091413  0.044394  0  3.899559  0
C  C62  1  0.05007096  0.62064801  0.60089184  1  -0.007487  0  -0.050165  -0.133462  0  3.908853  0
C  C63  1  0.94993078  0.37935215  0.39910147  1  -0.0068  0  -0.050213  -0.133421  0  3.90866  0
I  I64  1  0.62365628  0.25106713  0.66400244  1  0.120482  0  0.077473  -0.01387  0  1.446226  0
I  I65  1  0.37634688  0.74893634  0.33600082  1  0.120618  0  0.077448  -0.013924  0  1.446245  0
I  I66  1  0.69358363  0.88190324  0.70629937  1  0.10979  0  0.062846  -0.036319  0  1.374361  0
I  I67  1  0.30641883  0.11809829  0.29370512  1  0.10989  0  0.062855  -0.036325  0  1.374313  0
N  N68  1  0.74812673  0.49902508  0.50254563  1  -1.2581  0  -0.307073  -0.165364  0  3.532258  0
N  N69  1  0.25187140  0.50097512  0.49745265  1  -1.258054  0  -0.306981  -0.165182  0  3.532209  0
N  N70  1  0.90382801  0.68044351  0.66345464  1  0.395632  0  0.06033  0.512851  0  4.208693  0
N  N71  1  0.09616860  0.31956252  0.33653314  1  0.395523  0  0.060327  0.512895  0  4.208433  0
O  O72  1  0.58099291  0.63400259  0.49783913  1  -1.158065  0  -0.313394  -0.532133  0  2.296019  0
O  O73  1  0.41900954  0.36599891  0.50216102  1  -1.158021  0  -0.313412  -0.532178  0  2.295935  0
O  O74  1  0.41687539  0.63371142  0.50168754  1  -1.159865  0  -0.317142  -0.552866  0  2.358922  0
O  O75  1  0.58312852  0.36628941  0.49831136  1  -1.159883  0  -0.317136  -0.552845  0  2.358676  0
O  O76  1  0.58384457  0.49773522  0.37310300  1  -1.139428  0  -0.320063  -0.54628  0  2.26381  0
O  O77  1  0.41615356  0.50226498  0.62689529  1  -1.139489  0  -0.320046  -0.546287  0  2.263956  0
O  O78  1  0.41916645  0.49688682  0.37401708  1  -1.152142  0  -0.317804  -0.54803  0  2.289529  0
O  O79  1  0.58083312  0.50311469  0.62598184  1  -1.152178  0  -0.317799  -0.547968  0  2.289474  0
O  O80  1  0.82982032  0.65521510  0.69887498  1  -0.435729  0  -0.119775  -0.317396  0  1.902256  0
O  O81  1  0.94242633  0.75187186  0.67496985  1  -0.432175  0  -0.126073  -0.322069  0  1.878675  0
O  O82  1  0.17018498  0.34479092  0.30111960  1  -0.435992  0  -0.119762  -0.317371  0  1.902132  0
O  O83  1  0.05756877  0.24814002  0.32501052  1  -0.431936  0  -0.126109  -0.32213  0  1.878545  0
