# generated using pymatgen
data_ZnH15C20N3O4
_symmetry_space_group_name_H-M   'P 1'
_cell_length_a   8.91388661
_cell_length_b   15.03092069
_cell_length_c   16.50943117
_cell_angle_alpha   89.99904428
_cell_angle_beta   89.99971600
_cell_angle_gamma   87.95654782
_symmetry_Int_Tables_number   1
_chemical_formula_structural   ZnH15C20N3O4
_chemical_formula_sum   'Zn4 H60 C80 N12 O16'
_cell_volume   2210.59167790
_cell_formula_units_Z   4
loop_
 _symmetry_equiv_pos_site_id
 _symmetry_equiv_pos_as_xyz
  1  'x, y, z'
loop_
 _atom_site_type_symbol
 _atom_site_label
 _atom_site_symmetry_multiplicity
 _atom_site_fract_x
 _atom_site_fract_y
 _atom_site_fract_z
 _atom_site_occupancy
 _atom_site_pbe_bader_charge
 _atom_site_pbe_bader_spin_density
 _atom_site_pbe_cm5_charge
 _atom_site_pbe_ddec_charge
 _atom_site_pbe_ddec_spin_density
 _atom_site_pbe_ddec_sum_bond_order
 _atom_site_pbe_magmom
Zn  Zn0  1  0.90651954  0.85762743  0.31787111  1  1.251399  0  0.689315  0.746854  0  2.371066  0
Zn  Zn1  1  0.59348735  0.64237601  0.81787103  1  1.251602  0  0.689447  0.747099  0  2.370846  0
Zn  Zn2  1  0.09346641  0.14237770  0.68212585  1  1.251303  0  0.689312  0.747056  0  2.370799  0
Zn  Zn3  1  0.40651659  0.35762278  0.18213987  1  1.251404  0  0.689383  0.747062  0  2.370859  0
H  H4  1  0.86174150  0.02935255  0.40276663  1  0.116504  0  0.107246  0.113051  0  1.046663  0
H  H5  1  0.63827829  0.47063099  0.90276135  1  0.116598  0  0.107154  0.113055  0  1.046719  0
H  H6  1  0.13824786  0.97064519  0.59723397  1  0.116071  0  0.107318  0.113073  0  1.046676  0
H  H7  1  0.36175378  0.52935529  0.09724046  1  0.116136  0  0.107317  0.11312  0  1.046575  0
H  H8  1  0.16771936  0.23764877  0.44294961  1  0.113755  0  0.103593  0.11352  0  1.014568  0
H  H9  1  0.33226026  0.26235973  0.94295856  1  0.113544  0  0.103557  0.113501  0  1.01462  0
H  H10  1  0.83225988  0.76235316  0.55705523  1  0.113685  0  0.103554  0.113486  0  1.014639  0
H  H11  1  0.66773016  0.73764997  0.05704265  1  0.11364  0  0.103575  0.113467  0  1.014621  0
H  H12  1  0.14329682  0.12021399  0.20713261  1  0.093623  0  0.1019  0.109874  0  1.032123  0
H  H13  1  0.35670733  0.37978031  0.70714029  1  0.093492  0  0.101961  0.109969  0  1.032216  0
H  H14  1  0.85670826  0.87978145  0.79287405  1  0.093506  0  0.101961  0.109986  0  1.03215  0
H  H15  1  0.64331006  0.62022155  0.29286758  1  0.093385  0  0.101891  0.109896  0  1.032143  0
H  H16  1  0.65501828  0.83954618  0.43218018  1  0.112281  0  0.122087  0.09817  0  0.983795  0
H  H17  1  0.84494954  0.66044398  0.93219612  1  0.112201  0  0.122075  0.098176  0  0.983685  0
H  H18  1  0.34495540  0.16044454  0.56779680  1  0.112082  0  0.122103  0.09817  0  0.983714  0
H  H19  1  0.15503759  0.33955048  0.06781780  1  0.112137  0  0.122077  0.098131  0  0.983641  0
H  H20  1  0.39740790  0.91147208  0.46029782  1  0.124088  0  0.110844  0.12929  0  1.009664  0
H  H21  1  0.10257157  0.58852430  0.96030884  1  0.124449  0  0.110872  0.12931  0  1.009569  0
H  H22  1  0.60256470  0.08851201  0.53968340  1  0.124241  0  0.110849  0.12929  0  1.009403  0
H  H23  1  0.89741103  0.41147757  0.03971236  1  0.124237  0  0.110805  0.129263  0  1.009539  0
H  H24  1  0.31493423  0.04210214  0.37827093  1  0.153892  0  0.108826  0.110573  0  1.016647  0
H  H25  1  0.18506950  0.45790839  0.87827542  1  0.153778  0  0.108827  0.110552  0  1.016658  0
H  H26  1  0.68506632  0.95790271  0.62173391  1  0.154296  0  0.10881  0.110562  0  1.016551  0
H  H27  1  0.81493213  0.54210442  0.12174699  1  0.154653  0  0.108829  0.110583  0  1.016593  0
H  H28  1  0.48551390  0.09843411  0.26973474  1  0.108986  0  0.106056  0.123733  0  1.012671  0
H  H29  1  0.01451318  0.40157925  0.76973266  1  0.10913  0  0.106026  0.123636  0  1.012636  0
H  H30  1  0.51449667  0.90158385  0.73028524  1  0.109373  0  0.106018  0.123561  0  1.012548  0
H  H31  1  0.98551764  0.59843100  0.23028248  1  0.109108  0  0.106058  0.123677  0  1.012514  0
H  H32  1  0.73303628  0.98572860  0.17227781  1  0.116031  0  0.120678  0.121581  0  0.972065  0
H  H33  1  0.76697073  0.51427546  0.67228168  1  0.11589  0  0.120667  0.121571  0  0.972026  0
H  H34  1  0.26695413  0.01428176  0.82771977  1  0.116406  0  0.120673  0.121604  0  0.972015  0
H  H35  1  0.23303990  0.48573252  0.32772983  1  0.115894  0  0.120663  0.121574  0  0.972044  0
H  H36  1  0.74030893  0.09525553  0.21335454  1  0.039903  0  0.10318  0.089193  0  0.982896  0
H  H37  1  0.75971352  0.40474533  0.71335179  1  0.039916  0  0.103099  0.089101  0  0.982866  0
H  H38  1  0.25969272  0.90475329  0.78665212  1  0.039621  0  0.103162  0.089134  0  0.982896  0
H  H39  1  0.24031175  0.59525305  0.28664639  1  0.039771  0  0.10316  0.08915  0  0.982887  0
H  H40  1  0.19832762  0.76631790  0.34594275  1  0.09633  0  0.12279  0.092315  0  0.980391  0
H  H41  1  0.30170439  0.73369017  0.84594253  1  0.113755  0  0.122819  0.09234  0  0.980187  0
H  H42  1  0.80166749  0.23365379  0.65402272  1  0.113659  0  0.122877  0.092276  0  0.980273  0
H  H43  1  0.69831745  0.26632025  0.15404657  1  0.113632  0  0.122871  0.092397  0  0.980383  0
H  H44  1  0.45596676  0.75890641  0.28359629  1  0.100106  0  0.105468  0.109656  0  1.027972  0
H  H45  1  0.04404550  0.74111779  0.78360328  1  0.099691  0  0.105463  0.10962  0  1.027916  0
H  H46  1  0.54402039  0.24108406  0.71636615  1  0.099796  0  0.105504  0.109696  0  1.027805  0
H  H47  1  0.95596737  0.25889014  0.21639490  1  0.099622  0  0.105466  0.109644  0  1.027862  0
H  H48  1  0.50772874  0.85718711  0.16509229  1  0.106892  0  0.109639  0.111899  0  1.01023  0
H  H49  1  0.99228058  0.64281637  0.66510692  1  0.106986  0  0.10966  0.11186  0  1.010216  0
H  H50  1  0.49226056  0.14282195  0.83489075  1  0.106831  0  0.10969  0.111862  0  1.010166  0
H  H51  1  0.00772336  0.35718376  0.33489066  1  0.106996  0  0.109653  0.111895  0  1.010285  0
H  H52  1  0.30000211  0.96153577  0.11512213  1  0.076896  0  0.110891  0.119413  0  0.982717  0
H  H53  1  0.19999823  0.53846774  0.61514033  1  0.077198  0  0.11089  0.119403  0  0.982858  0
H  H54  1  0.69998157  0.03847406  0.88487120  1  0.076711  0  0.110919  0.119362  0  0.982985  0
H  H55  1  0.80001353  0.46153822  0.38485845  1  0.077279  0  0.110869  0.119314  0  0.98277  0
H  H56  1  0.04736950  0.02712834  0.13541930  1  0.016129  0  0.100546  0.084328  0  0.983731  0
H  H57  1  0.45263076  0.47286865  0.63542105  1  0.016  0  0.100565  0.084346  0  0.983742  0
H  H58  1  0.95261982  0.97287539  0.86457586  1  0.016057  0  0.100504  0.08422  0  0.983887  0
H  H59  1  0.54738780  0.52712520  0.36458077  1  0.015963  0  0.100587  0.084346  0  0.983825  0
H  H60  1  0.93641117  0.93071805  0.13866506  1  0.122225  0  0.120351  0.128451  0  0.994652  0
H  H61  1  0.56359169  0.56927405  0.63867284  1  0.122137  0  0.120377  0.128507  0  0.994616  0
H  H62  1  0.06356805  0.06928588  0.86132888  1  0.12234  0  0.120377  0.128516  0  0.994551  0
H  H63  1  0.43641787  0.43072330  0.36133563  1  0.122318  0  0.120382  0.128545  0  0.994515  0
C  C64  1  0.99010846  0.06691736  0.29673708  1  0.361779  0  0.079405  0.165195  0  3.999066  0
C  C65  1  0.50991221  0.43307140  0.79673816  1  0.361809  0  0.07956  0.165232  0  3.99954  0
C  C66  1  0.00988653  0.93307495  0.70326715  1  0.361937  0  0.079358  0.165075  0  3.999492  0
C  C67  1  0.49011079  0.56693102  0.20326486  1  0.361967  0  0.079435  0.165019  0  3.999544  0
C  C68  1  0.94482312  0.07292196  0.37789616  1  -0.053142  0  -0.082902  -0.165704  0  3.928327  0
C  C69  1  0.55519460  0.42706938  0.87789358  1  -0.052596  0  -0.082834  -0.165746  0  3.928352  0
C  C70  1  0.05517297  0.92707698  0.62211111  1  -0.052251  0  -0.082873  -0.165624  0  3.928063  0
C  C71  1  0.44483067  0.57292833  0.12210884  1  -0.052076  0  -0.082851  -0.165621  0  3.928162  0
C  C72  1  0.01063788  0.13219921  0.43103744  1  -0.074596  0  -0.015982  -0.007552  0  3.969537  0
C  C73  1  0.48935761  0.36779788  0.93104375  1  -0.075239  0  -0.015918  -0.007273  0  3.969449  0
C  C74  1  0.98933685  0.86780547  0.56896195  1  -0.074582  0  -0.016001  -0.007379  0  3.969125  0
C  C75  1  0.51065419  0.63220142  0.06895685  1  -0.075242  0  -0.015924  -0.007355  0  3.969233  0
C  C76  1  0.11829725  0.18969276  0.40243744  1  -0.005372  0  -0.084779  -0.127784  0  3.961084  0
C  C77  1  0.38171082  0.31030660  0.90244189  1  -0.005209  0  -0.084739  -0.127883  0  3.961695  0
C  C78  1  0.88168648  0.81030775  0.59756619  1  -0.006037  0  -0.08469  -0.12778  0  3.961216  0
C  C79  1  0.61831782  0.68969238  0.09755992  1  -0.005222  0  -0.084759  -0.127817  0  3.961378  0
C  C80  1  0.16324298  0.18530141  0.32150853  1  -0.075985  0  -0.023199  -0.030353  0  4.012336  0
C  C81  1  0.33677478  0.31469324  0.82151242  1  -0.07605  0  -0.023206  -0.030453  0  4.012498  0
C  C82  1  0.83676662  0.81468863  0.67849813  1  -0.076372  0  -0.023211  -0.030333  0  4.012366  0
C  C83  1  0.66323361  0.68531346  0.17849000  1  -0.076586  0  -0.02327  -0.030471  0  4.012528  0
C  C84  1  0.10272918  0.12216454  0.26933891  1  -0.082751  0  -0.094052  -0.19693  0  3.95898  0
C  C85  1  0.39728452  0.37783445  0.76934106  1  -0.082795  0  -0.094112  -0.196875  0  3.959129  0
C  C86  1  0.89727254  0.87782964  0.73066896  1  -0.082363  0  -0.093945  -0.196816  0  3.959205  0
C  C87  1  0.60273508  0.62217535  0.23066681  1  -0.08233  0  -0.09386  -0.196534  0  3.958678  0
C  C88  1  0.96950681  0.12908388  0.51966557  1  1.581572  0  0.198427  0.568951  0  4.232512  0
C  C89  1  0.53048476  0.37091374  0.01967187  1  1.581367  0  0.198192  0.568611  0  4.232458  0
C  C90  1  0.03044775  0.87091254  0.48033140  1  1.580862  0  0.198151  0.568606  0  4.232696  0
C  C91  1  0.46954271  0.62909325  0.98032934  1  1.581088  0  0.198218  0.568609  0  4.232594  0
C  C92  1  0.26599616  0.25388905  0.28927174  1  1.565713  0  0.191665  0.553801  0  4.23605  0
C  C93  1  0.23403873  0.24610385  0.78927635  1  1.56576  0  0.191757  0.554145  0  4.236116  0
C  C94  1  0.73401680  0.74610425  0.71073492  1  1.56619  0  0.191545  0.553396  0  4.236405  0
C  C95  1  0.76597416  0.75390009  0.21072001  1  1.565433  0  0.191677  0.553826  0  4.23572  0
C  C96  1  0.61016938  0.89601029  0.39721373  1  0.445258  0  0.051278  0.096323  0  3.928019  0
C  C97  1  0.88981221  0.60397891  0.89722922  1  0.445569  0  0.051358  0.096382  0  3.92787  0
C  C98  1  0.38981776  0.10398151  0.60276931  1  0.445506  0  0.051352  0.096393  0  3.928017  0
C  C99  1  0.11017717  0.39601484  0.10278410  1  0.445211  0  0.051331  0.096356  0  3.927783  0
C  C100  1  0.47080228  0.93640334  0.41338980  1  0.016694  0  -0.080039  -0.126407  0  3.96314  0
C  C101  1  0.02918547  0.56358773  0.91339958  1  0.016084  0  -0.080124  -0.126541  0  3.96304  0
C  C102  1  0.52917704  0.06358328  0.58659808  1  0.016086  0  -0.080104  -0.126448  0  3.96297  0
C  C103  1  0.97081064  0.43640656  0.08661738  1  0.017029  0  -0.080055  -0.126366  0  3.963006  0
C  C104  1  0.42420513  0.00985293  0.36697689  1  -0.121332  0  -0.058628  0.000162  0  3.927592  0
C  C105  1  0.07579200  0.49014995  0.86697753  1  -0.121086  0  -0.058601  0.000348  0  3.927496  0
C  C106  1  0.57578085  0.99014754  0.63302613  1  -0.121054  0  -0.05872  5.4e-05  0  3.927603  0
C  C107  1  0.92421079  0.50985419  0.13303519  1  -0.121869  0  -0.058714  -1.2e-05  0  3.927441  0
C  C108  1  0.51853822  0.04062807  0.30655773  1  0.009393  0  -0.084509  -0.18223  0  3.929342  0
C  C109  1  0.98146097  0.45937489  0.80656204  1  0.009315  0  -0.084474  -0.182264  0  3.929308  0
C  C110  1  0.48145329  0.95938693  0.69345014  1  0.008554  0  -0.084291  -0.181894  0  3.928789  0
C  C111  1  0.01855642  0.54062963  0.19344765  1  0.008821  0  -0.084452  -0.182082  0  3.928873  0
C  C112  1  0.65656881  0.99610881  0.29335831  1  0.480843  0  0.122331  0.232084  0  3.956955  0
C  C113  1  0.84343491  0.50389446  0.79336275  1  0.481656  0  0.12234  0.232329  0  3.956615  0
C  C114  1  0.34341264  0.00389840  0.70663865  1  0.481345  0  0.122208  0.232122  0  3.956224  0
C  C115  1  0.15658025  0.49610411  0.20665057  1  0.48105  0  0.12228  0.232167  0  3.95647  0
C  C116  1  0.76134925  0.02397780  0.22666322  1  0.278133  0  -0.053747  -0.1417  0  3.919644  0
C  C117  1  0.73866411  0.47602167  0.72666668  1  0.277971  0  -0.053674  -0.141571  0  3.91955  0
C  C118  1  0.23863109  0.97602743  0.77333860  1  0.277674  0  -0.053601  -0.141445  0  3.919282  0
C  C119  1  0.26137239  0.52397583  0.27334361  1  0.27792  0  -0.053646  -0.141526  0  3.919495  0
C  C120  1  0.22647594  0.80649544  0.29341121  1  0.498825  0  0.056524  0.10582  0  3.946447  0
C  C121  1  0.27355205  0.69350899  0.79341048  1  0.481538  0  0.056453  0.105641  0  3.946486  0
C  C122  1  0.77351125  0.19348837  0.70656577  1  0.481763  0  0.05646  0.106079  0  3.945957  0
C  C123  1  0.72646312  0.30648892  0.20658104  1  0.481182  0  0.05641  0.105711  0  3.946196  0
C  C124  1  0.36861067  0.80328324  0.25890230  1  0.003635  0  -0.08332  -0.129165  0  3.976837  0
C  C125  1  0.13140189  0.69672477  0.75891399  1  0.003615  0  -0.083314  -0.129105  0  3.976883  0
C  C126  1  0.63136419  0.19669749  0.74106620  1  0.002546  0  -0.083298  -0.129363  0  3.976508  0
C  C127  1  0.86861102  0.30327784  0.24108237  1  0.003962  0  -0.083288  -0.129182  0  3.976762  0
C  C128  1  0.39675221  0.85840896  0.19300798  1  -0.041295  0  -0.061556  -0.008068  0  3.940441  0
C  C129  1  0.10325641  0.64160230  0.69302908  1  -0.040915  0  -0.061506  -0.00789  0  3.940535  0
C  C130  1  0.60324499  0.14159196  0.80697687  1  -0.03994  0  -0.061494  -0.007684  0  3.940343  0
C  C131  1  0.89673969  0.35839398  0.30698061  1  -0.041231  0  -0.061515  -0.007963  0  3.940637  0
C  C132  1  0.28166679  0.91569547  0.16504428  1  -0.082345  0  -0.083496  -0.179025  0  3.946294  0
C  C133  1  0.21833199  0.58431050  0.66505143  1  -0.082812  0  -0.083541  -0.179128  0  3.946398  0
C  C134  1  0.71832028  0.08431097  0.83495209  1  -0.082621  0  -0.083615  -0.179284  0  3.946751  0
C  C135  1  0.78166857  0.41569102  0.33494615  1  -0.082546  0  -0.0835  -0.178947  0  3.946486  0
C  C136  1  0.14150801  0.91540531  0.20253333  1  0.528032  0  0.127914  0.247669  0  3.938807  0
C  C137  1  0.35849384  0.58459527  0.70253709  1  0.528092  0  0.127971  0.247595  0  3.93856  0
C  C138  1  0.85847574  0.08459121  0.79745455  1  0.527948  0  0.127987  0.247907  0  3.938116  0
C  C139  1  0.64151010  0.41540352  0.29746351  1  0.528035  0  0.127958  0.247602  0  3.938574  0
C  C140  1  0.00921957  0.97300250  0.17477135  1  0.305226  0  -0.060501  -0.163992  0  3.957413  0
C  C141  1  0.49078368  0.52699057  0.67477687  1  0.304425  0  -0.060532  -0.163962  0  3.957376  0
C  C142  1  0.99076527  0.02699932  0.82522622  1  0.305725  0  -0.060518  -0.163934  0  3.957431  0
C  C143  1  0.50922476  0.47300747  0.32522858  1  0.305511  0  -0.060549  -0.16403  0  3.957545  0
N  N144  1  0.92032090  0.00360019  0.24446875  1  -1.073899  0  -0.306936  -0.129966  0  3.568068  0
N  N145  1  0.57969347  0.49639162  0.74447049  1  -1.072754  0  -0.307181  -0.130443  0  3.568779  0
N  N146  1  0.07965949  0.99639507  0.75553549  1  -1.073863  0  -0.307068  -0.130325  0  3.568592  0
N  N147  1  0.42033625  0.50361332  0.25553617  1  -1.073527  0  -0.307135  -0.130301  0  3.568961  0
N  N148  1  0.70019248  0.92483278  0.33787397  1  -1.266891  0  -0.326093  -0.270127  0  3.550425  0
N  N149  1  0.79980192  0.57516389  0.83788287  1  -1.267579  0  -0.326091  -0.270291  0  3.55041  0
N  N150  1  0.29978901  0.07516712  0.66210967  1  -1.267046  0  -0.326129  -0.270381  0  3.550358  0
N  N151  1  0.20019978  0.42483295  0.16212682  1  -1.2669  0  -0.326064  -0.270223  0  3.550287  0
N  N152  1  0.11554611  0.86073520  0.26520342  1  -1.237618  0  -0.322038  -0.257861  0  3.554135  0
N  N153  1  0.38446979  0.63926532  0.76520263  1  -1.237692  0  -0.322088  -0.257685  0  3.55431  0
N  N154  1  0.88443876  0.13926064  0.73478628  1  -1.237421  0  -0.322212  -0.258143  0  3.553999  0
N  N155  1  0.61553643  0.36072745  0.23479918  1  -1.2375  0  -0.322111  -0.257819  0  3.553837  0
O  O156  1  0.05869371  0.17245196  0.56645845  1  -1.170015  0  -0.348385  -0.575408  0  2.3325  0
O  O157  1  0.44129475  0.32755382  0.06647042  1  -1.170007  0  -0.348337  -0.575324  0  2.332475  0
O  O158  1  0.94127880  0.82754810  0.43353670  1  -1.170292  0  -0.348282  -0.575151  0  2.332928  0
O  O159  1  0.55871474  0.67245817  0.93353200  1  -1.170235  0  -0.348268  -0.575175  0  2.332908  0
O  O160  1  0.86007173  0.08588798  0.54208050  1  -1.178929  0  -0.324925  -0.552361  0  2.151803  0
O  O161  1  0.63993984  0.41411217  0.04207374  1  -1.178924  0  -0.324776  -0.552226  0  2.151527  0
O  O162  1  0.13991086  0.91411721  0.45791949  1  -1.178102  0  -0.324832  -0.55237  0  2.151401  0
O  O163  1  0.36007871  0.58588301  0.95792201  1  -1.178412  0  -0.324983  -0.552433  0  2.151163  0
O  O164  1  0.32602242  0.23893371  0.21909250  1  -1.170718  0  -0.342418  -0.555035  0  2.252981  0
O  O165  1  0.17401647  0.26105239  0.71909158  1  -1.170734  0  -0.342463  -0.555181  0  2.252988  0
O  O166  1  0.67399277  0.76106220  0.78091476  1  -1.170759  0  -0.342308  -0.554798  0  2.25292  0
O  O167  1  0.82599418  0.73895093  0.28090902  1  -1.170324  0  -0.342531  -0.555136  0  2.252663  0
O  O168  1  0.28243774  0.32421613  0.32943004  1  -1.189327  0  -0.333471  -0.572345  0  2.156009  0
O  O169  1  0.21755295  0.17579220  0.82944305  1  -1.189108  0  -0.333559  -0.572554  0  2.156144  0
O  O170  1  0.71756283  0.67578339  0.67057541  1  -1.189455  0  -0.333515  -0.572233  0  2.156224  0
O  O171  1  0.78244871  0.82421395  0.17055331  1  -1.189332  0  -0.333402  -0.572288  0  2.155993  0
