# generated using pymatgen
data_ZnH5C4N5O2
_symmetry_space_group_name_H-M   'P 1'
_cell_length_a   9.06388734
_cell_length_b   10.06899210
_cell_length_c   12.09874973
_cell_angle_alpha   108.06967868
_cell_angle_beta   101.94955317
_cell_angle_gamma   94.68144484
_symmetry_Int_Tables_number   1
_chemical_formula_structural   ZnH5C4N5O2
_chemical_formula_sum   'Zn4 H20 C16 N20 O8'
_cell_volume   1014.27383916
_cell_formula_units_Z   4
loop_
 _symmetry_equiv_pos_site_id
 _symmetry_equiv_pos_as_xyz
  1  'x, y, z'
loop_
 _atom_site_type_symbol
 _atom_site_label
 _atom_site_symmetry_multiplicity
 _atom_site_fract_x
 _atom_site_fract_y
 _atom_site_fract_z
 _atom_site_occupancy
 _atom_site_pbe_bader_charge
 _atom_site_pbe_bader_spin_density
 _atom_site_pbe_cm5_charge
 _atom_site_pbe_ddec_charge
 _atom_site_pbe_ddec_spin_density
 _atom_site_pbe_ddec_sum_bond_order
 _atom_site_pbe_magmom
Zn  Zn0  1  0.44925055  0.65190772  0.59559662  1  1.219381  0  0.71892  0.719392  0  2.506882  0
Zn  Zn1  1  0.55075069  0.34809296  0.40440233  1  1.219428  0  0.718947  0.719441  0  2.506835  0
Zn  Zn2  1  0.90645156  0.86078555  0.36350853  1  1.222194  0  0.718375  0.74003  0  2.448148  0
Zn  Zn3  1  0.09355135  0.13921830  0.63648985  1  1.222163  0  0.718411  0.740083  0  2.448026  0
H  H4  1  0.86339014  0.58254709  0.93020548  1  0.154873  0  0.112846  0.139309  0  0.99373  0
H  H5  1  0.13659537  0.41744724  0.06978939  1  0.154748  0  0.112887  0.139307  0  0.993665  0
H  H6  1  0.66090920  0.81368614  0.99550052  1  0.08859  0  0.106036  0.121226  0  0.996855  0
H  H7  1  0.33907590  0.18631242  0.00450365  1  0.088667  0  0.106043  0.121282  0  0.996843  0
H  H8  1  0.55718316  0.92044418  0.57109798  1  0.440874  0  0.307773  0.30821  0  0.953291  0
H  H9  1  0.44282539  0.07955967  0.42890540  1  0.440728  0  0.307866  0.308292  0  0.953324  0
H  H10  1  0.72326378  0.98548025  0.54662537  1  0.478498  0  0.29619  0.292349  0  1.013621  0
H  H11  1  0.27674066  0.01451937  0.45337380  1  0.478328  0  0.296151  0.292319  0  1.013685  0
H  H12  1  0.81310854  0.40195473  0.29929975  1  0.447302  0  0.313966  0.31807  0  0.932853  0
H  H13  1  0.18689175  0.59804701  0.70070098  1  0.447288  0  0.313975  0.318088  0  0.932846  0
H  H14  1  0.88586787  0.54284339  0.26396578  1  0.502508  0  0.295637  0.314621  0  1.00447  0
H  H15  1  0.11413509  0.45715411  0.73603345  1  0.50254  0  0.295637  0.314631  0  1.004426  0
H  H16  1  0.73054337  0.98264639  0.19097531  1  0.508939  0  0.302461  0.322348  0  0.977843  0
H  H17  1  0.26946422  0.01735852  0.80902572  1  0.508948  0  0.302483  0.322403  0  0.977876  0
H  H18  1  0.60495829  0.11041494  0.20646303  1  0.514241  0  0.299416  0.325356  0  0.986019  0
H  H19  1  0.39504615  0.88958468  0.79353697  1  0.514219  0  0.299412  0.325371  0  0.986031  0
H  H20  1  0.86777262  0.33798850  0.72761836  1  0.505543  0  0.296639  0.315449  0  0.999401  0
H  H21  1  0.13222524  0.66201218  0.27238255  1  0.505535  0  0.296638  0.315467  0  0.999427  0
H  H22  1  0.72933137  0.41293356  0.65810044  1  0.532431  0  0.301153  0.332651  0  0.984356  0
H  H23  1  0.27066631  0.58706606  0.34189851  1  0.532448  0  0.301143  0.332621  0  0.984344  0
C  C24  1  0.66295053  0.77100575  0.47760857  1  1.562538  0  0.323176  0.538194  0  4.127383  0
C  C25  1  0.33705635  0.22899493  0.52239291  1  1.562537  0  0.323255  0.538143  0  4.12749  0
C  C26  1  0.75512501  0.58938139  0.38569270  1  1.561708  0  0.325676  0.542968  0  4.13289  0
C  C27  1  0.24487623  0.41061929  0.61430873  1  1.561717  0  0.325676  0.543053  0  4.132733  0
C  C28  1  0.75304583  0.11507164  0.36050170  1  1.517099  0  0.324097  0.550706  0  4.156812  0
C  C29  1  0.24696195  0.88493432  0.63949715  1  1.517061  0  0.324176  0.550922  0  4.156649  0
C  C30  1  0.79201178  0.23457425  0.54980406  1  1.565129  0  0.328328  0.555345  0  4.141313  0
C  C31  1  0.20798982  0.76542854  0.45019549  1  1.565139  0  0.328376  0.555391  0  4.141247  0
C  C32  1  0.87750889  0.70411888  0.11836387  1  1.535811  0  0.21131  0.621494  0  4.186914  0
C  C33  1  0.12248433  0.29587440  0.88163441  1  1.535589  0  0.211375  0.621578  0  4.187047  0
C  C34  1  0.81784102  0.66815685  0.98689751  1  0.022576  0  -0.077051  -0.172694  0  3.882417  0
C  C35  1  0.18214543  0.33183643  0.01309559  1  0.022357  0  -0.077223  -0.172747  0  3.882523  0
C  C36  1  0.70830142  0.72998668  0.93863249  1  -0.101474  0  -0.08233  -0.171965  0  3.898995  0
C  C37  1  0.29168201  0.27000870  0.06137060  1  -0.101389  0  -0.08228  -0.172087  0  3.89905  0
C  C38  1  0.64155133  0.68563111  0.80707542  1  1.540937  0  0.198669  0.612322  0  4.205418  0
C  C39  1  0.35844094  0.31436322  0.19292712  1  1.54107  0  0.198624  0.612305  0  4.205571  0
N  N40  1  0.63235262  0.90560278  0.51841699  1  -1.250547  0  -0.591924  -0.655164  0  3.303072  0
N  N41  1  0.36765408  0.09439684  0.48158336  1  -1.250317  0  -0.592028  -0.65525  0  3.303217  0
N  N42  1  0.84373603  0.50817567  0.32440972  1  -1.254427  0  -0.584048  -0.653971  0  3.266802  0
N  N43  1  0.15626747  0.49182501  0.67559124  1  -1.254424  0  -0.584014  -0.654005  0  3.266767  0
N  N44  1  0.76718039  0.73277683  0.41119596  1  -1.265658  0  -0.375102  -0.512376  0  3.363822  0
N  N45  1  0.23282311  0.26722385  0.58880583  1  -1.265627  0  -0.375099  -0.512295  0  3.363745  0
N  N46  1  0.59086062  0.65976248  0.49255935  1  -0.850551  0  -0.294846  -0.324507  0  3.516101  0
N  N47  1  0.40914009  0.34023502  0.50744117  1  -0.850617  0  -0.294896  -0.324539  0  3.516002  0
N  N48  1  0.64948144  0.54191216  0.43244680  1  -0.838073  0  -0.296928  -0.329736  0  3.49857  0
N  N49  1  0.35052170  0.45808640  0.56755355  1  -0.838061  0  -0.296965  -0.329798  0  3.498385  0
N  N50  1  0.69905084  0.07284673  0.24038364  1  -1.309993  0  -0.588246  -0.669664  0  3.285907  0
N  N51  1  0.30095955  0.92716135  0.75961533  1  -1.309938  0  -0.58828  -0.669833  0  3.285994  0
N  N52  1  0.78074494  0.32543199  0.65412420  1  -1.327221  0  -0.58563  -0.663976  0  3.30301  0
N  N53  1  0.21925405  0.67456869  0.34587522  1  -1.327254  0  -0.585593  -0.663933  0  3.303027  0
N  N54  1  0.70764143  0.22490369  0.43898900  1  -1.23686  0  -0.383232  -0.534987  0  3.37881  0
N  N55  1  0.29236355  0.77509911  0.56101025  1  -1.236804  0  -0.38327  -0.535087  0  3.378633  0
N  N56  1  0.85885415  0.05808537  0.41748504  1  -0.872181  0  -0.315773  -0.368447  0  3.449711  0
N  N57  1  0.14115119  0.94191954  0.58251564  1  -0.871977  0  -0.315831  -0.368543  0  3.44974  0
N  N58  1  0.88353788  0.13451352  0.54145127  1  -0.879986  0  -0.314392  -0.382446  0  3.465418  0
N  N59  1  0.11646502  0.86549033  0.45854876  1  -0.880178  0  -0.314409  -0.382436  0  3.465453  0
O  O60  1  0.84820888  0.82041922  0.18787265  1  -1.18633  0  -0.32735  -0.554217  0  2.334304  0
O  O61  1  0.15178790  0.17957512  0.81212810  1  -1.186258  0  -0.327377  -0.554239  0  2.334227  0
O  O62  1  0.95106260  0.61911394  0.15591217  1  -1.190844  0  -0.309283  -0.554694  0  2.157078  0
O  O63  1  0.04893847  0.38088569  0.84408731  1  -1.190478  0  -0.309258  -0.55467  0  2.157021  0
O  O64  1  0.53074347  0.75117335  0.77382268  1  -1.178024  0  -0.342245  -0.578606  0  2.276578  0
O  O65  1  0.46925088  0.24881993  0.22617412  1  -1.17801  0  -0.342244  -0.578639  0  2.276698  0
O  O66  1  0.68811072  0.59093572  0.73428112  1  -1.179008  0  -0.312307  -0.542617  0  2.164893  0
O  O67  1  0.31188233  0.40905650  0.26572347  1  -1.179176  0  -0.312285  -0.542568  0  2.164862  0
