# generated using pymatgen
data_VH7C12O5
_symmetry_space_group_name_H-M   'P 1'
_cell_length_a   6.89176359
_cell_length_b   6.71420012
_cell_length_c   12.83483590
_cell_angle_alpha   105.55683525
_cell_angle_beta   103.68970617
_cell_angle_gamma   89.69626364
_symmetry_Int_Tables_number   1
_chemical_formula_structural   VH7C12O5
_chemical_formula_sum   'V2 H14 C24 O10'
_cell_volume   554.81632046
_cell_formula_units_Z   2
loop_
 _symmetry_equiv_pos_site_id
 _symmetry_equiv_pos_as_xyz
  1  'x, y, z'
loop_
 _atom_site_type_symbol
 _atom_site_label
 _atom_site_symmetry_multiplicity
 _atom_site_fract_x
 _atom_site_fract_y
 _atom_site_fract_z
 _atom_site_occupancy
 _atom_site_pbe_cm5_charge
 _atom_site_pbe_ddec_charge
 _atom_site_pbe_ddec_spin_density
 _atom_site_pbe_ddec_sum_bond_order
 _atom_site_pbe_magmom
V  V0  1  0.49999517  0.00000745  0.99999693  1  1.226495  1.699695  -1.819653  2.614968  -1.779
V  V1  1  0.99999748  0.00000468  0.00000053  1  1.231545  1.706195  -1.812792  2.625645  -1.771
H  H2  1  0.25039527  0.71576770  0.00084808  1  0.332052  0.441839  -0.00711  0.832868  -0.01
H  H3  1  0.74960955  0.28424793  0.99915091  1  0.332175  0.442175  -0.007108  0.832445  -0.01
H  H4  1  0.69510361  0.46388109  0.25874506  1  0.109099  0.119517  6.6e-05  0.992762  0.0
H  H5  1  0.80451152  0.20756544  0.74142844  1  0.108224  0.119216  7.6e-05  0.993468  0.0
H  H6  1  0.30489499  0.53610803  0.74125861  1  0.109085  0.11946  6.5e-05  0.992697  0.0
H  H7  1  0.19548121  0.79242540  0.25856851  1  0.108208  0.119199  7.6e-05  0.993458  0.0
H  H8  1  0.86065694  0.60748955  0.46002461  1  0.101287  0.104465  -5.9e-05  1.024811  0.0
H  H9  1  0.63856778  0.14805797  0.54059743  1  0.100594  0.10356  -2.3e-05  1.025738  0.0
H  H10  1  0.13935480  0.39249496  0.53997461  1  0.101286  0.104428  -5.9e-05  1.024911  0.0
H  H11  1  0.36143401  0.85193437  0.45940088  1  0.100585  0.103546  -2.3e-05  1.025725  0.0
H  H12  1  0.15485609  0.31061484  0.34103354  1  0.107975  0.117387  0.000205  1.008024  0.0
H  H13  1  0.34669107  0.97169093  0.65865899  1  0.106565  0.115674  0.000218  1.010421  0.0
H  H14  1  0.84514281  0.68937887  0.65897318  1  0.107893  0.117286  0.000205  1.008142  0.0
H  H15  1  0.65330388  0.02831077  0.34133904  1  0.106567  0.115702  0.000218  1.010321  0.0
C  C16  1  0.32363561  0.28249558  0.16889225  1  0.228483  0.624456  -0.036569  4.117375  -0.03
C  C17  1  0.17515780  0.11329961  0.83110853  1  0.226798  0.625293  -0.044684  4.120997  -0.035
C  C18  1  0.67636390  0.71750757  0.83110969  1  0.228509  0.624518  -0.036561  4.117227  -0.03
C  C19  1  0.82483436  0.88670520  0.16888961  1  0.226876  0.625401  -0.044664  4.120888  -0.035
C  C20  1  0.41366017  0.38184599  0.28872029  1  -0.016047  -0.04138  2e-05  3.977511  0.002
C  C21  1  0.08698005  0.09514681  0.71156933  1  -0.017283  -0.043008  -0.001948  3.980274  0.001
C  C22  1  0.58634032  0.61814936  0.71128220  1  -0.016006  -0.041383  1.8e-05  3.977393  0.002
C  C23  1  0.91301212  0.90485812  0.28842336  1  -0.017274  -0.042913  -0.00195  3.980312  0.001
C  C24  1  0.61498884  0.46561508  0.32264902  1  -0.082753  -0.088984  -0.002106  3.967453  -0.001
C  C25  1  0.88509927  0.14485165  0.67757791  1  -0.085572  -0.091823  -0.001956  3.973202  -0.001
C  C26  1  0.38501264  0.53437252  0.67735246  1  -0.082693  -0.088834  -0.002105  3.967297  -0.001
C  C27  1  0.11489438  0.85515310  0.32242274  1  -0.085606  -0.0919  -0.001955  3.973385  -0.001
C  C28  1  0.70611657  0.54397262  0.43400267  1  -0.086047  -0.127  -0.001967  3.981306  -0.001
C  C29  1  0.79355075  0.11066432  0.56634554  1  -0.088136  -0.13015  -0.003835  3.986019  -0.002
C  C30  1  0.29389068  0.45601181  0.56600064  1  -0.086057  -0.127015  -0.001968  3.981403  -0.001
C  C31  1  0.20644569  0.88933739  0.43365190  1  -0.088135  -0.130204  -0.003834  3.986103  -0.002
C  C32  1  0.39830883  0.45720078  0.48290676  1  -0.006579  0.061813  -0.00307  4.014534  -0.001
C  C33  1  0.10209360  0.97473656  0.51706766  1  -0.007926  0.061575  -0.003502  4.015965  -0.001
C  C34  1  0.60170001  0.54278516  0.51709853  1  -0.006575  0.061834  -0.003072  4.014546  -0.001
C  C35  1  0.89790931  0.02527285  0.48293173  1  -0.007964  0.061386  -0.003504  4.016069  -0.001
C  C36  1  0.30809109  0.37794173  0.36789141  1  -0.073101  -0.12893  -0.011158  3.920728  -0.007
C  C37  1  0.19283803  0.01182056  0.63203704  1  -0.075833  -0.132337  -0.01539  3.925072  -0.01
C  C38  1  0.69191388  0.62205358  0.63211242  1  -0.073047  -0.128767  -0.011155  3.920748  -0.007
C  C39  1  0.80716458  0.98818423  0.36796086  1  -0.07582  -0.132375  -0.01539  3.925074  -0.01
O  O40  1  0.24911832  0.86022886  0.99973999  1  -0.672213  -0.975322  -0.011878  2.170051  0.043
O  O41  1  0.75087585  0.13978379  0.00025487  1  -0.672349  -0.975761  -0.011886  2.169703  0.043
O  O42  1  0.43901960  0.26024796  0.10168832  1  -0.366021  -0.62023  -0.015389  2.337639  0.005
O  O43  1  0.05736797  0.15569165  0.89689947  1  -0.366771  -0.625896  -0.015697  2.350407  0.007
O  O44  1  0.56097883  0.73976141  0.89831362  1  -0.366094  -0.620341  -0.015395  2.337581  0.005
O  O45  1  0.94262259  0.84431157  0.10310057  1  -0.366833  -0.625902  -0.015697  2.350274  0.007
O  O46  1  0.13948342  0.21900900  0.13888530  1  -0.349878  -0.591499  0.000184  2.327156  0.017
O  O47  1  0.35973260  0.07795407  0.86146822  1  -0.355882  -0.601018  -0.008208  2.322698  0.01
O  O48  1  0.86051877  0.78098948  0.86111630  1  -0.34986  -0.591493  0.000184  2.327083  0.017
O  O49  1  0.64026265  0.92205235  0.13852742  1  -0.355945  -0.601158  -0.008212  2.322659  0.01
