# generated using pymatgen
data_CdH12C19NO4
_symmetry_space_group_name_H-M   'P 1'
_cell_length_a   8.95240800
_cell_length_b   9.56428285
_cell_length_c   20.61160000
_cell_angle_alpha   90.00000000
_cell_angle_beta   90.00000000
_cell_angle_gamma   103.69178201
_symmetry_Int_Tables_number   1
_chemical_formula_structural   CdH12C19NO4
_chemical_formula_sum   'Cd4 H48 C76 N4 O16'
_cell_volume   1714.68333350
_cell_formula_units_Z   4
loop_
 _symmetry_equiv_pos_site_id
 _symmetry_equiv_pos_as_xyz
  1  'x, y, z'
loop_
 _atom_site_type_symbol
 _atom_site_label
 _atom_site_symmetry_multiplicity
 _atom_site_fract_x
 _atom_site_fract_y
 _atom_site_fract_z
 _atom_site_occupancy
 _atom_site_hle17_bader_spin_density
 _atom_site_hle17_ddec_charge
 _atom_site_hle17_ddec_spin_density
 _atom_site_hle17_ddec_sum_bond_order
 _atom_site_hle17_magmom
 _atom_site_hse06_10hf_bader_spin_density
 _atom_site_hse06_10hf_ddec_charge
 _atom_site_hse06_10hf_ddec_spin_density
 _atom_site_hse06_10hf_ddec_sum_bond_order
 _atom_site_hse06_10hf_magmom
 _atom_site_hse06_bader_spin_density
 _atom_site_hse06_ddec_charge
 _atom_site_hse06_ddec_spin_density
 _atom_site_hse06_ddec_sum_bond_order
 _atom_site_hse06_magmom
 _atom_site_pbe_bader_charge
 _atom_site_pbe_bader_spin_density
 _atom_site_pbe_cm5_charge
 _atom_site_pbe_ddec_charge
 _atom_site_pbe_ddec_spin_density
 _atom_site_pbe_ddec_sum_bond_order
 _atom_site_pbe_magmom
Cd  Cd0  1  0.88486304  0.08946467  0.50209251  1  0  1.100026  0  1.822877  0  0  0.923915  0  2.294423  0  0  0.982923  0  2.231575  0  1.246476  0  0.754022  0.882768  0  2.336777  0
Cd  Cd1  1  0.11513750  0.41053343  0.00209251  1  0  1.100004  0  1.822862  0  0  0.92389  0  2.294403  0  0  0.982899  0  2.231554  0  1.247663  0  0.754032  0.882744  0  2.336758  0
Cd  Cd2  1  0.11513890  0.91053583  0.49790652  1  0  1.099989  0  1.822898  0  0  0.923863  0  2.294446  0  0  0.982874  0  2.231598  0  1.247745  0  0.754028  0.882716  0  2.3368  0
Cd  Cd3  1  0.88486278  0.58946491  0.99790700  1  0  1.100034  0  1.822864  0  0  0.923926  0  2.29441  0  0  0.982936  0  2.231562  0  1.246519  0  0.754037  0.88278  0  2.336765  0
H  H4  1  0.54985048  0.10838854  0.55181451  1  0  0.088638  0  0.91841  0  0  0.100561  0  0.974474  0  0  0.103071  0  0.972151  0  0.125266  0  0.124565  0.09864  0  0.976165  0
H  H5  1  0.45015395  0.39161171  0.05181354  1  0  0.088663  0  0.918414  0  0  0.100585  0  0.974478  0  0  0.103094  0  0.972156  0  0.125269  0  0.12457  0.098663  0  0.976169  0
H  H6  1  0.45015091  0.89160981  0.44818694  1  0  0.088673  0  0.918346  0  0  0.100596  0  0.97441  0  0  0.103105  0  0.972087  0  0.125308  0  0.124581  0.098674  0  0.976102  0
H  H7  1  0.54984938  0.60838986  0.94818500  1  0  0.088651  0  0.918411  0  0  0.100576  0  0.974472  0  0  0.103086  0  0.972149  0  0.125279  0  0.124571  0.098654  0  0.976164  0
H  H8  1  0.38263006  0.27741203  0.55120660  1  0  0.114302  0  0.965814  0  0  0.123463  0  1.026408  0  0  0.126209  0  1.025945  0  0.131498  0  0.111853  0.12149  0  1.026896  0
H  H9  1  0.61737410  0.22258714  0.05120515  1  0  0.11426  0  0.965778  0  0  0.123488  0  1.026309  0  0  0.126234  0  1.025845  0  0.131974  0  0.111865  0.121514  0  1.026799  0
H  H10  1  0.61737133  0.72258632  0.44879340  1  0  0.114293  0  0.965809  0  0  0.123466  0  1.026396  0  0  0.126212  0  1.025934  0  0.131508  0  0.111849  0.121494  0  1.026883  0
H  H11  1  0.38263034  0.77741443  0.94879243  1  0  0.114303  0  0.965777  0  0  0.12345  0  1.026402  0  0  0.126196  0  1.02594  0  0.131494  0  0.111853  0.121479  0  1.026886  0
H  H12  1  0.74967725  0.58260669  0.45256118  1  0  0.118063  0  0.950371  0  0  0.12826  0  1.008046  0  0  0.131303  0  1.007335  0  0.103363  0  0.113752  0.126185  0  1.008463  0
H  H13  1  0.25032415  0.91739298  0.95256118  1  0  0.11807  0  0.950347  0  0  0.128269  0  1.008026  0  0  0.131313  0  1.007314  0  0.103376  0  0.113762  0.126194  0  1.008444  0
H  H14  1  0.25032441  0.41739273  0.54743931  1  0  0.11809  0  0.950379  0  0  0.128289  0  1.008054  0  0  0.131332  0  1.007341  0  0.103323  0  0.113772  0.126214  0  1.00847  0
H  H15  1  0.74967639  0.08260644  0.04744028  1  0  0.118084  0  0.950379  0  0  0.128288  0  1.008052  0  0  0.131331  0  1.007342  0  0.103357  0  0.113778  0.126213  0  1.00847  0
H  H16  1  0.90004165  0.39771556  0.45677531  1  0  0.091815  0  0.935092  0  0  0.100772  0  0.996202  0  0  0.103591  0  0.993706  0  0.128833  0  0.123284  0.098705  0  0.997993  0
H  H17  1  0.09996028  0.10228361  0.95677580  1  0  0.091787  0  0.935033  0  0  0.100731  0  0.996173  0  0  0.103549  0  0.993678  0  0.128873  0  0.123265  0.098663  0  0.997966  0
H  H18  1  0.09995920  0.60228063  0.54322566  1  0  0.091866  0  0.935038  0  0  0.100783  0  0.996182  0  0  0.103601  0  0.993688  0  0.128856  0  0.123299  0.098716  0  0.997975  0
H  H19  1  0.90004027  0.89771581  0.04322566  1  0  0.091823  0  0.935118  0  0  0.100781  0  0.996224  0  0  0.1036  0  0.993728  0  0.128862  0  0.12329  0.098718  0  0.998004  0
H  H20  1  0.45244988  0.17680289  0.36371461  1  0  0.100607  0  0.953985  0  0  0.109811  0  1.01882  0  0  0.113642  0  1.015615  0  0.083289  0  0.101358  0.107007  0  1.021212  0
H  H21  1  0.54754839  0.32319951  0.86371606  1  0  0.100655  0  0.953898  0  0  0.109848  0  1.018742  0  0  0.113687  0  1.015525  0  0.083284  0  0.101371  0.107046  0  1.02113  0
H  H22  1  0.54754813  0.82319976  0.63628442  1  0  0.100661  0  0.953906  0  0  0.109867  0  1.01873  0  0  0.113693  0  1.01553  0  0.083278  0  0.101377  0.107064  0  1.021121  0
H  H23  1  0.45245131  0.67680098  0.13628394  1  0  0.100622  0  0.953962  0  0  0.109852  0  1.018769  0  0  0.113662  0  1.015587  0  0.083263  0  0.101365  0.107048  0  1.021161  0
H  H24  1  0.54283941  0.56871591  0.25168546  1  0  0.085726  0  0.995769  0  0  0.09465  0  1.062931  0  0  0.096357  0  1.06376  0  0.084966  0  0.095985  0.093334  0  1.062599  0
H  H25  1  0.45715918  0.93128591  0.75168643  1  0  0.085733  0  0.995754  0  0  0.094669  0  1.062904  0  0  0.096366  0  1.063745  0  0.085016  0  0.095989  0.093353  0  1.062572  0
H  H26  1  0.45716083  0.43128674  0.74831503  1  0  0.0857  0  0.995771  0  0  0.094631  0  1.062928  0  0  0.096338  0  1.063757  0  0.084991  0  0.095968  0.093314  0  1.062597  0
H  H27  1  0.54283859  0.06871136  0.24831503  1  0  0.085711  0  0.995784  0  0  0.094642  0  1.062938  0  0  0.096349  0  1.063767  0  0.085012  0  0.095981  0.093327  0  1.062604  0
H  H28  1  0.30006368  0.61861424  0.29114237  1  0  0.091925  0  0.94168  0  0  0.105111  0  0.994472  0  0  0.10783  0  0.994052  0  0.077633  0  0.100902  0.103097  0  0.994996  0
H  H29  1  0.69993604  0.88138758  0.79114285  1  0  0.091925  0  0.941693  0  0  0.105136  0  0.99446  0  0  0.107855  0  0.994039  0  0.077682  0  0.100922  0.103122  0  0.994983  0
H  H30  1  0.69993600  0.38139056  0.70885715  1  0  0.091956  0  0.941688  0  0  0.105157  0  0.994457  0  0  0.107878  0  0.994037  0  0.077703  0  0.100937  0.103147  0  0.994982  0
H  H31  1  0.30006285  0.11860969  0.20885715  1  0  0.091956  0  0.941675  0  0  0.105161  0  0.994442  0  0  0.107882  0  0.994022  0  0.077699  0  0.100934  0.10315  0  0.994967  0
H  H32  1  0.13187488  0.44600829  0.36760756  1  0  0.098185  0  0.946903  0  0  0.107923  0  1.00889  0  0  0.111507  0  1.006389  0  0.097366  0  0.10219  0.105346  0  1.010666  0
H  H33  1  0.86812451  0.05399411  0.86760708  1  0  0.098196  0  0.94692  0  0  0.107955  0  1.008886  0  0  0.111498  0  1.00643  0  0.097351  0  0.10219  0.105377  0  1.010662  0
H  H34  1  0.86812340  0.55399543  0.63239292  1  0  0.098191  0  0.946897  0  0  0.10793  0  1.008879  0  0  0.111488  0  1.006407  0  0.097382  0  0.102177  0.105353  0  1.010654  0
H  H35  1  0.13187577  0.94600424  0.13239244  1  0  0.098173  0  0.946886  0  0  0.107909  0  1.008875  0  0  0.111466  0  1.006404  0  0.097373  0  0.102173  0.105331  0  1.010651  0
H  H36  1  0.63015230  0.42428108  0.18256128  1  0  0.097194  0  0.95976  0  0  0.106912  0  1.023929  0  0  0.110354  0  1.021481  0  0.099744  0  0.101423  0.10441  0  1.026057  0
H  H37  1  0.36984820  0.07572132  0.68256176  1  0  0.097128  0  0.959826  0  0  0.106844  0  1.024011  0  0  0.110284  0  1.021559  0  0.099771  0  0.10139  0.104339  0  1.026136  0
H  H38  1  0.36984655  0.57572049  0.81743872  1  0  0.097097  0  0.95983  0  0  0.10682  0  1.024009  0  0  0.110259  0  1.021556  0  0.099758  0  0.101387  0.104318  0  1.026136  0
H  H39  1  0.63015011  0.92427810  0.31743824  1  0  0.097115  0  0.959834  0  0  0.106836  0  1.024022  0  0  0.110272  0  1.021564  0  0.099757  0  0.10138  0.104328  0  1.026145  0
H  H40  1  0.71605862  0.23082713  0.36370733  1  0  0.08676  0  0.970865  0  0  0.095305  0  1.038851  0  0  0.098006  0  1.037677  0  0.083881  0  0.096488  0.093378  0  1.03972  0
H  H41  1  0.28393938  0.26917420  0.86370733  1  0  0.086761  0  0.970858  0  0  0.095319  0  1.038825  0  0  0.09802  0  1.037655  0  0.083706  0  0.096498  0.093392  0  1.039695  0
H  H42  1  0.28393912  0.76917445  0.63629316  1  0  0.08678  0  0.970835  0  0  0.095339  0  1.038798  0  0  0.098039  0  1.037629  0  0.083718  0  0.096512  0.093412  0  1.039667  0
H  H43  1  0.71606060  0.73082737  0.13629218  1  0  0.086788  0  0.970805  0  0  0.095344  0  1.038771  0  0  0.098046  0  1.037594  0  0.083887  0  0.096501  0.093416  0  1.039643  0
H  H44  1  0.94251943  0.16777517  0.31576782  1  0  0.098021  0  0.952173  0  0  0.108075  0  1.010096  0  0  0.11043  0  1.010197  0  0.084927  0  0.100676  0.106137  0  1.010897  0
H  H45  1  0.05747718  0.33222508  0.81576733  1  0  0.097991  0  0.952165  0  0  0.108078  0  1.01006  0  0  0.110434  0  1.010156  0  0.085246  0  0.100681  0.10614  0  1.010859  0
H  H46  1  0.05747692  0.83222533  0.68423267  1  0  0.09801  0  0.952145  0  0  0.108095  0  1.010044  0  0  0.110451  0  1.01014  0  0.085313  0  0.100688  0.106157  0  1.010843  0
H  H47  1  0.94252252  0.66777542  0.18423218  1  0  0.098038  0  0.952109  0  0  0.108138  0  1.00999  0  0  0.110496  0  1.010083  0  0.084904  0  0.10069  0.106201  0  1.010789  0
H  H48  1  0.01325802  0.22969288  0.19948039  1  0  0.102619  0  0.940209  0  0  0.113691  0  0.997322  0  0  0.117684  0  0.994242  0  0.085365  0  0.103599  0.110915  0  0.999298  0
H  H49  1  0.98673805  0.27030522  0.69947990  1  0  0.102564  0  0.940252  0  0  0.113637  0  0.997367  0  0  0.117631  0  0.994287  0  0.085333  0  0.103591  0.11086  0  0.999343  0
H  H50  1  0.98673779  0.77030547  0.80052010  1  0  0.102549  0  0.940262  0  0  0.113623  0  0.997377  0  0  0.117617  0  0.994297  0  0.085326  0  0.103586  0.110846  0  0.999354  0
H  H51  1  0.01325887  0.72969313  0.30052010  1  0  0.10263  0  0.940242  0  0  0.113706  0  0.997347  0  0  0.117698  0  0.994268  0  0.085345  0  0.103601  0.110928  0  0.999324  0
C  C52  1  0.58949603  0.21484111  0.53019659  1  0  0.137521  0  3.696493  0  0  0.107355  0  3.946032  0  0  0.114398  0  3.964637  0  0.45893  0  0.05688  0.102891  0  3.93318  0
C  C53  1  0.41050840  0.28515914  0.03019562  1  0  0.137435  0  3.696409  0  0  0.107262  0  3.945975  0  0  0.114306  0  3.964578  0  0.459125  0  0.056859  0.1028  0  3.933122  0
C  C54  1  0.41050621  0.78515616  0.46980487  1  0  0.137526  0  3.696433  0  0  0.107353  0  3.946  0  0  0.114396  0  3.964604  0  0.45894  0  0.056882  0.102888  0  3.933149  0
C  C55  1  0.58949492  0.71484243  0.96980341  1  0  0.137521  0  3.696487  0  0  0.107355  0  3.946027  0  0  0.114399  0  3.96463  0  0.45904  0  0.056861  0.10289  0  3.933176  0
C  C56  1  0.49621380  0.31173758  0.52977450  1  0  -0.128085  0  3.672183  0  0  -0.1495  0  3.922276  0  0  -0.156359  0  3.943699  0  0.046136  0  -0.069289  -0.145131  0  3.907979  0
C  C57  1  0.50378897  0.18826052  0.02977304  1  0  -0.127994  0  3.672111  0  0  -0.149486  0  3.922195  0  0  -0.156344  0  3.943616  0  0.045596  0  -0.069291  -0.145118  0  3.907898  0
C  C58  1  0.50378593  0.68825861  0.47022599  1  0  -0.128106  0  3.672285  0  0  -0.14956  0  3.922364  0  0  -0.156419  0  3.943786  0  0.046123  0  -0.069296  -0.145192  0  3.908068  0
C  C59  1  0.49621520  0.81173998  0.97022502  1  0  -0.12806  0  3.67215  0  0  -0.149489  0  3.92224  0  0  -0.156348  0  3.943664  0  0.046146  0  -0.069263  -0.14512  0  3.907944  0
C  C60  1  0.54891658  0.44765478  0.50120515  1  0  0.096333  0  3.734088  0  0  0.107714  0  3.965205  0  0  0.111068  0  3.987561  0  0.025099  0  0.021932  0.105622  0  3.949979  0
C  C61  1  0.45108646  0.05234439  0.00120466  1  0  0.096296  0  3.73434  0  0  0.107742  0  3.965398  0  0  0.111096  0  3.987754  0  -0.023371  0  0.021953  0.10565  0  3.950171  0
C  C62  1  0.45108454  0.55234249  0.49879485  1  0  0.096281  0  3.734236  0  0  0.107771  0  3.965265  0  0  0.111125  0  3.987622  0  -0.023321  0  0.021955  0.105679  0  3.950039  0
C  C63  1  0.54891659  0.94765611  0.99879485  1  0  0.096241  0  3.734138  0  0  0.107705  0  3.965184  0  0  0.111057  0  3.987541  0  0.025087  0  0.021923  0.105612  0  3.949957  0
C  C64  1  0.69806135  0.47954503  0.47502814  1  0  -0.131865  0  3.668573  0  0  -0.151618  0  3.916139  0  0  -0.158603  0  3.937292  0  -0.058333  0  -0.069139  -0.147021  0  3.901598  0
C  C65  1  0.30194057  0.02045414  0.97502765  1  0  -0.13187  0  3.668702  0  0  -0.151648  0  3.916238  0  0  -0.158632  0  3.937392  0  -0.058307  0  -0.069187  -0.14705  0  3.901697  0
C  C66  1  0.30193977  0.52045224  0.52497283  1  0  -0.131874  0  3.668646  0  0  -0.151658  0  3.916172  0  0  -0.158642  0  3.937325  0  -0.058255  0  -0.069179  -0.147059  0  3.901629  0
C  C67  1  0.69806136  0.97954636  0.02497283  1  0  -0.131809  0  3.668576  0  0  -0.151616  0  3.91615  0  0  -0.1586  0  3.937304  0  -0.05822  0  -0.06917  -0.147019  0  3.901609  0
C  C68  1  0.78466317  0.37717748  0.47739768  1  0  0.126996  0  3.70049  0  0  0.098053  0  3.950546  0  0  0.10457  0  3.969435  0  0.470185  0  0.052182  0.094076  0  3.937318  0
C  C69  1  0.21533987  0.12282169  0.97739768  1  0  0.127007  0  3.700499  0  0  0.098071  0  3.950567  0  0  0.104587  0  3.969461  0  0.470923  0  0.052208  0.094094  0  3.937339  0
C  C70  1  0.21533711  0.62282086  0.52260329  1  0  0.126915  0  3.700509  0  0  0.098008  0  3.950565  0  0  0.104524  0  3.969456  0  0.470274  0  0.052162  0.094031  0  3.937337  0
C  C71  1  0.78466318  0.87717881  0.02260232  1  0  0.126936  0  3.70046  0  0  0.098002  0  3.950525  0  0  0.104516  0  3.969417  0  0.470234  0  0.05217  0.094027  0  3.937298  0
C  C72  1  0.18815640  0.19950615  0.41702682  1  0  0.661075  0  3.90553  0  0  0.608929  0  4.198333  0  0  0.645501  0  4.190513  0  1.554347  0  0.208077  0.584269  0  4.202642  0
C  C73  1  0.81185365  0.30048979  0.91702779  1  0  0.660969  0  3.90566  0  0  0.608909  0  4.198342  0  0  0.64548  0  4.190518  0  1.553991  0  0.208083  0.584249  0  4.202653  0
C  C74  1  0.81185393  0.80049219  0.58297172  1  0  0.661002  0  3.905607  0  0  0.608952  0  4.19827  0  0  0.645523  0  4.190447  0  1.554009  0  0.208141  0.584293  0  4.202582  0
C  C75  1  0.18814663  0.69950855  0.08297221  1  0  0.661036  0  3.905522  0  0  0.60899  0  4.198186  0  0  0.645561  0  4.190363  0  1.553995  0  0.208168  0.58433  0  4.202498  0
C  C76  1  0.28539855  0.30332972  0.37077616  1  0  -0.077442  0  3.78317  0  0  -0.051241  0  4.017207  0  0  -0.060717  0  4.041566  0  -0.074998  0  -0.026326  -0.04509  0  4.000879  0
C  C77  1  0.71460000  0.19667376  0.87077665  1  0  -0.077432  0  3.783151  0  0  -0.051284  0  4.017218  0  0  -0.060757  0  4.041568  0  -0.074966  0  -0.026366  -0.045133  0  4.000891  0
C  C78  1  0.71460224  0.69667508  0.62922432  1  0  -0.077372  0  3.783099  0  0  -0.051231  0  4.017159  0  0  -0.060704  0  4.041509  0  -0.074891  0  -0.026352  -0.045081  0  4.000831  0
C  C79  1  0.28539693  0.80332458  0.12922432  1  0  -0.077412  0  3.783115  0  0  -0.051273  0  4.017187  0  0  -0.060745  0  4.041533  0  -0.074873  0  -0.026339  -0.045122  0  4.000859  0
C  C80  1  0.42232524  0.27521994  0.34776048  1  0  -0.111624  0  3.713818  0  0  -0.143644  0  3.960136  0  0  -0.143824  0  3.980554  0  0.009842  0  -0.086375  -0.14338  0  3.946498  0
C  C81  1  0.57767666  0.22478354  0.84776048  1  0  -0.11165  0  3.713671  0  0  -0.143645  0  3.959999  0  0  -0.143828  0  3.980412  0  0.009801  0  -0.086349  -0.143382  0  3.946361  0
C  C82  1  0.57767640  0.72478379  0.65223903  1  0  -0.111657  0  3.713576  0  0  -0.143651  0  3.959893  0  0  -0.143826  0  3.980313  0  0.009802  0  -0.086348  -0.143388  0  3.946254  0
C  C83  1  0.42232361  0.77521481  0.15224000  1  0  -0.111595  0  3.71372  0  0  -0.143615  0  3.960038  0  0  -0.143777  0  3.980465  0  0.009823  0  -0.086347  -0.143352  0  3.9464  0
C  C84  1  0.51583087  0.36851242  0.30396088  1  0  0.040515  0  3.798321  0  0  0.05841  0  4.029495  0  0  0.056626  0  4.054402  0  -0.064974  0  -0.01151  0.059533  0  4.012767  0
C  C85  1  0.48416852  0.13148998  0.80396039  1  0  0.040461  0  3.79828  0  0  0.058341  0  4.029466  0  0  0.056557  0  4.054373  0  -0.065085  0  -0.011568  0.059464  0  4.012739  0
C  C86  1  0.48416742  0.63149130  0.69603912  1  0  0.040449  0  3.798191  0  0  0.05832  0  4.029384  0  0  0.056538  0  4.054291  0  -0.065105  0  -0.011557  0.059445  0  4.012652  0
C  C87  1  0.51583064  0.86850837  0.19603912  1  0  0.04042  0  3.798319  0  0  0.058286  0  4.029532  0  0  0.056503  0  4.054436  0  -0.065005  0  -0.011563  0.059411  0  4.012799  0
C  C88  1  0.46966280  0.49282457  0.28440393  1  0  -0.092921  0  3.713427  0  0  -0.114277  0  3.956546  0  0  -0.114932  0  3.97746  0  -0.018733  0  -0.08641  -0.113661  0  3.942521  0
C  C89  1  0.53033937  0.00717999  0.78440441  1  0  -0.092859  0  3.713536  0  0  -0.114207  0  3.956649  0  0  -0.114855  0  3.97757  0  -0.018219  0  -0.086352  -0.113591  0  3.942624  0
C  C90  1  0.53033549  0.50717916  0.71559607  1  0  -0.092877  0  3.713447  0  0  -0.114222  0  3.956565  0  0  -0.114877  0  3.97748  0  -0.018188  0  -0.086378  -0.113607  0  3.942542  0
C  C91  1  0.46966368  0.99282051  0.21559607  1  0  -0.09287  0  3.713445  0  0  -0.11421  0  3.956559  0  0  -0.114864  0  3.977474  0  -0.018189  0  -0.086375  -0.113595  0  3.942535  0
C  C92  1  0.33317065  0.52143798  0.30713336  1  0  -0.075475  0  3.786975  0  0  -0.08543  0  4.0368  0  0  -0.089087  0  4.058534  0  -0.051968  0  -0.093301  -0.082942  0  4.022235  0
C  C93  1  0.66682711  0.97856492  0.80713385  1  0  -0.075522  0  3.787098  0  0  -0.085509  0  4.036935  0  0  -0.089163  0  4.058654  0  -0.052533  0  -0.09334  -0.083019  0  4.022369  0
C  C94  1  0.66682764  0.47856575  0.69286664  1  0  -0.075495  0  3.787  0  0  -0.085465  0  4.036811  0  0  -0.089123  0  4.058538  0  -0.052484  0  -0.093298  -0.082983  0  4.022251  0
C  C95  1  0.33317094  0.02143342  0.19286664  1  0  -0.075527  0  3.787013  0  0  -0.085504  0  4.036828  0  0  -0.089163  0  4.058556  0  -0.052488  0  -0.093322  -0.083022  0  4.022268  0
C  C96  1  0.23992745  0.42659478  0.35006356  1  0  -0.068758  0  3.746673  0  0  -0.0967  0  3.998595  0  0  -0.095912  0  4.019207  0  -0.074281  0  -0.086919  -0.097199  0  3.984693  0
C  C97  1  0.76007306  0.07340762  0.85006404  1  0  -0.068763  0  3.746612  0  0  -0.096711  0  3.998539  0  0  -0.09589  0  4.019162  0  -0.074221  0  -0.086917  -0.097209  0  3.984636  0
C  C98  1  0.76007084  0.57340895  0.64993596  1  0  -0.068783  0  3.746652  0  0  -0.096713  0  3.998576  0  0  -0.095904  0  4.019196  0  -0.074358  0  -0.08692  -0.09721  0  3.984674  0
C  C99  1  0.23992860  0.92659180  0.14993644  1  0  -0.068727  0  3.746646  0  0  -0.09665  0  3.998568  0  0  -0.095841  0  4.01919  0  -0.074371  0  -0.086906  -0.097148  0  3.984667  0
C  C100  1  0.86771520  0.37180863  0.11575860  1  0  0.651352  0  3.918258  0  0  0.599669  0  4.212919  0  0  0.635984  0  4.204646  0  1.552448  0  0.204218  0.575134  0  4.217555  0
C  C101  1  0.13228560  0.12819054  0.61575860  1  0  0.651316  0  3.91827  0  0  0.599639  0  4.21292  0  0  0.635953  0  4.204649  0  1.552461  0  0.204203  0.575103  0  4.217555  0
C  C102  1  0.13228423  0.62819079  0.88424140  1  0  0.651351  0  3.918324  0  0  0.599665  0  4.212979  0  0  0.635979  0  4.204707  0  1.552451  0  0.204233  0.575129  0  4.217614  0
C  C103  1  0.86771355  0.87180780  0.38424140  1  0  0.651323  0  3.91834  0  0  0.59963  0  4.213015  0  0  0.635943  0  4.204745  0  1.552466  0  0.204186  0.575094  0  4.217651  0
C  C104  1  0.82519585  0.33098860  0.18472220  1  0  -0.072002  0  3.78012  0  0  -0.045645  0  4.012083  0  0  -0.054779  0  4.03651  0  -0.021712  0  -0.023617  -0.039328  0  3.995367  0
C  C105  1  0.17480439  0.16901273  0.68472220  1  0  -0.072023  0  3.780137  0  0  -0.045667  0  4.012093  0  0  -0.054799  0  4.036519  0  -0.021802  0  -0.0236  -0.039349  0  3.995377  0
C  C106  1  0.17480274  0.66901190  0.81527780  1  0  -0.07209  0  3.780152  0  0  -0.045731  0  4.012119  0  0  -0.054863  0  4.036544  0  -0.021722  0  -0.02366  -0.039412  0  3.995402  0
C  C107  1  0.82519393  0.83098669  0.31527780  1  0  -0.071954  0  3.780065  0  0  -0.045596  0  4.012023  0  0  -0.054728  0  4.036447  0  -0.021797  0  -0.023599  -0.039279  0  3.995307  0
C  C108  1  0.69812914  0.36900207  0.21258806  1  0  -0.108052  0  3.716594  0  0  -0.139898  0  3.962499  0  0  -0.140444  0  3.983197  0  -0.103918  0  -0.083143  -0.139448  0  3.949639  0
C  C109  1  0.30187025  0.13100033  0.71258806  1  0  -0.107985  0  3.716695  0  0  -0.13983  0  3.962598  0  0  -0.14037  0  3.983291  0  -0.103824  0  -0.083116  -0.139374  0  3.94973  0
C  C110  1  0.30186999  0.63100058  0.78741243  1  0  -0.107971  0  3.716613  0  0  -0.139822  0  3.96252  0  0  -0.14036  0  3.983214  0  -0.103876  0  -0.083117  -0.139372  0  3.949658  0
C  C111  1  0.69812918  0.86899909  0.28741194  1  0  -0.107986  0  3.716625  0  0  -0.139832  0  3.962519  0  0  -0.140362  0  3.983206  0  -0.10381  0  -0.0831  -0.139372  0  3.949649  0
C  C112  1  0.65594516  0.33387695  0.27707165  1  0  0.039637  0  3.803135  0  0  0.057405  0  4.034096  0  0  0.056359  0  4.058363  0  0.008287  0  -0.010715  0.057603  0  4.018108  0
C  C113  1  0.34405311  0.16612545  0.77707213  1  0  0.039584  0  3.80307  0  0  0.057346  0  4.03405  0  0  0.056299  0  4.058319  0  0.008094  0  -0.010792  0.057544  0  4.01806  0
C  C114  1  0.34405397  0.66612570  0.72292787  1  0  0.039605  0  3.803002  0  0  0.057365  0  4.033982  0  0  0.056316  0  4.058255  0  0.008088  0  -0.010793  0.057564  0  4.017993  0
C  C115  1  0.65594520  0.83387397  0.22292787  1  0  0.03968  0  3.803149  0  0  0.057442  0  4.034108  0  0  0.05639  0  4.058386  0  0.007974  0  -0.010754  0.05764  0  4.018118  0
C  C116  1  0.74628934  0.26051883  0.31352200  1  0  -0.102599  0  3.71964  0  0  -0.125548  0  3.971139  0  0  -0.126465  0  3.990233  0  -0.115013  0  -0.087032  -0.124626  0  3.958386  0
C  C117  1  0.25370782  0.23948357  0.81352200  1  0  -0.102574  0  3.719519  0  0  -0.125528  0  3.971029  0  0  -0.126445  0  3.990122  0  -0.114535  0  -0.086978  -0.124606  0  3.958276  0
C  C118  1  0.25370756  0.73948382  0.68647849  1  0  -0.102564  0  3.719395  0  0  -0.12551  0  3.970896  0  0  -0.126427  0  3.989989  0  -0.114515  0  -0.086969  -0.124589  0  3.958143  0
C  C119  1  0.74629216  0.76051800  0.18647752  1  0  -0.102684  0  3.719638  0  0  -0.125635  0  3.971136  0  0  -0.126552  0  3.990233  0  -0.114728  0  -0.087035  -0.124714  0  3.958386  0
C  C120  1  0.87437944  0.22369879  0.28618690  1  0  -0.061315  0  3.772465  0  0  -0.073574  0  4.028446  0  0  -0.076739  0  4.0509  0  0.032578  0  -0.089872  -0.071772  0  4.014  0
C  C121  1  0.12561914  0.27630038  0.78618642  1  0  -0.061358  0  3.772522  0  0  -0.073652  0  4.02853  0  0  -0.076818  0  4.050987  0  0.032219  0  -0.089946  -0.071849  0  4.014079  0
C  C122  1  0.12561776  0.77630063  0.71381407  1  0  -0.061383  0  3.772446  0  0  -0.073678  0  4.028457  0  0  -0.076844  0  4.050913  0  0.032031  0  -0.089941  -0.071876  0  4.014008  0
C  C123  1  0.87438056  0.72370012  0.21381310  1  0  -0.061273  0  3.772484  0  0  -0.07357  0  4.028451  0  0  -0.076736  0  4.050909  0  0.032541  0  -0.089873  -0.071769  0  4.014005  0
C  C124  1  0.91394189  0.25783494  0.22174116  1  0  -0.067248  0  3.723477  0  0  -0.09217  0  3.966983  0  0  -0.091817  0  3.987204  0  -0.055456  0  -0.084068  -0.091713  0  3.952414  0
C  C125  1  0.08605584  0.24216531  0.72174067  1  0  -0.067064  0  3.723415  0  0  -0.091982  0  3.966924  0  0  -0.091633  0  3.987149  0  -0.055449  0  -0.083984  -0.091526  0  3.952355  0
C  C126  1  0.08605557  0.74216556  0.77825933  1  0  -0.067038  0  3.723409  0  0  -0.091961  0  3.966924  0  0  -0.091611  0  3.987149  0  -0.055364  0  -0.083988  -0.091503  0  3.952354  0
C  C127  1  0.91394359  0.75783411  0.27825884  1  0  -0.067312  0  3.72349  0  0  -0.092241  0  3.967011  0  0  -0.09189  0  3.987235  0  -0.055436  0  -0.08408  -0.091784  0  3.952444  0
N  N128  1  0.73131869  0.24619221  0.50413990  1  0  -0.329018  0  3.265274  0  0  -0.24822  0  3.531524  0  0  -0.269292  0  3.54988  0  -1.26795  0  -0.335448  -0.233929  0  3.518586  0
N  N129  1  0.26868435  0.25380696  0.00413942  1  0  -0.328949  0  3.265293  0  0  -0.24813  0  3.531507  0  0  -0.269203  0  3.549865  0  -1.268806  0  -0.3354  -0.233839  0  3.518567  0
N  N130  1  0.26868243  0.75380506  0.49586058  1  0  -0.32898  0  3.265303  0  0  -0.248167  0  3.531524  0  0  -0.26924  0  3.549882  0  -1.26811  0  -0.335418  -0.233875  0  3.518584  0
N  N131  1  0.73131870  0.74619354  0.99585913  1  0  -0.329022  0  3.265206  0  0  -0.248218  0  3.531449  0  0  -0.26929  0  3.549806  0  -1.268251  0  -0.335425  -0.233928  0  3.518511  0
O  O132  1  0.06355330  0.22840474  0.43633197  1  0  -0.651107  0  2.046111  0  0  -0.586543  0  2.306207  0  0  -0.617057  0  2.295231  0  -1.168911  0  -0.327998  -0.565396  0  2.312726  0
O  O133  1  0.93644528  0.27159443  0.93633342  1  0  -0.650913  0  2.046423  0  0  -0.586389  0  2.306503  0  0  -0.616897  0  2.295517  0  -1.168701  0  -0.327926  -0.565244  0  2.313024  0
O  O134  1  0.93644556  0.77159683  0.56366706  1  0  -0.65096  0  2.046477  0  0  -0.586446  0  2.306566  0  0  -0.616954  0  2.295584  0  -1.16872  0  -0.327963  -0.565301  0  2.313088  0
O  O135  1  0.06355361  0.72840284  0.06366706  1  0  -0.65099  0  2.046381  0  0  -0.586487  0  2.306489  0  0  -0.616996  0  2.295507  0  -1.168687  0  -0.327994  -0.565343  0  2.313011  0
O  O136  1  0.76173303  0.90965878  0.56654893  1  0  -0.649443  0  2.035826  0  0  -0.581156  0  2.286119  0  0  -0.611758  0  2.274579  0  -1.158237  0  -0.333046  -0.559919  0  2.293013  0
O  O137  1  0.23826475  0.59033981  0.06654942  1  0  -0.649439  0  2.035827  0  0  -0.581152  0  2.286121  0  0  -0.611752  0  2.274578  0  -1.158219  0  -0.333035  -0.559915  0  2.293016  0
O  O138  1  0.23826861  0.09034495  0.43345010  1  0  -0.649337  0  2.036068  0  0  -0.58102  0  2.286405  0  0  -0.611617  0  2.274861  0  -1.158303  0  -0.332923  -0.559785  0  2.293298  0
O  O139  1  0.76173579  0.40965961  0.93344961  1  0  -0.649415  0  2.035889  0  0  -0.581129  0  2.286192  0  0  -0.611734  0  2.274659  0  -1.158194  0  -0.333001  -0.559892  0  2.293086  0
O  O140  1  0.79732485  0.45757246  0.08824788  1  0  -0.652252  0  2.016397  0  0  -0.587216  0  2.27257  0  0  -0.617098  0  2.2606  0  -1.169415  0  -0.333872  -0.566524  0  2.28001  0
O  O141  1  0.20267596  0.04242671  0.58824788  1  0  -0.652212  0  2.0164  0  0  -0.587168  0  2.272555  0  0  -0.617048  0  2.260585  0  -1.169433  0  -0.333849  -0.56648  0  2.280007  0
O  O142  1  0.20267180  0.54242481  0.91175164  1  0  -0.65224  0  2.016476  0  0  -0.587196  0  2.272632  0  0  -0.617076  0  2.260659  0  -1.169408  0  -0.333868  -0.566507  0  2.280078  0
O  O143  1  0.79732235  0.95757271  0.41175212  1  0  -0.652223  0  2.016399  0  0  -0.58718  0  2.272569  0  0  -0.617061  0  2.260597  0  -1.169428  0  -0.333837  -0.566487  0  2.280005  0
O  O144  1  0.97059612  0.31803836  0.08983631  1  0  -0.648194  0  2.020364  0  0  -0.583752  0  2.267269  0  0  -0.612684  0  2.254154  0  -1.162936  0  -0.335446  -0.563609  0  2.275187  0
O  O145  1  0.02940245  0.18196081  0.58983582  1  0  -0.648192  0  2.020316  0  0  -0.58375  0  2.267212  0  0  -0.612684  0  2.254099  0  -1.162919  0  -0.335447  -0.563606  0  2.275129  0
O  O146  1  0.02940358  0.68196214  0.91016418  1  0  -0.648195  0  2.020355  0  0  -0.58375  0  2.267257  0  0  -0.612683  0  2.254143  0  -1.162948  0  -0.335451  -0.563606  0  2.275176  0
O  O147  1  0.97059640  0.81804076  0.41016369  1  0  -0.648206  0  2.020442  0  0  -0.583759  0  2.267353  0  0  -0.612691  0  2.254239  0  -1.16292  0  -0.335451  -0.563612  0  2.275264  0
