# generated using pymatgen
data_NiH16C20(NO)6
_symmetry_space_group_name_H-M   'P 1'
_cell_length_a   10.82034605
_cell_length_b   11.33290002
_cell_length_c   12.99913232
_cell_angle_alpha   100.03006565
_cell_angle_beta   89.98365462
_cell_angle_gamma   118.54946349
_symmetry_Int_Tables_number   1
_chemical_formula_structural   NiH16C20(NO)6
_chemical_formula_sum   'Ni2 H32 C40 N12 O12'
_cell_volume   1372.44904936
_cell_formula_units_Z   2
loop_
 _symmetry_equiv_pos_site_id
 _symmetry_equiv_pos_as_xyz
  1  'x, y, z'
loop_
 _atom_site_type_symbol
 _atom_site_label
 _atom_site_symmetry_multiplicity
 _atom_site_fract_x
 _atom_site_fract_y
 _atom_site_fract_z
 _atom_site_occupancy
 _atom_site_hle17_bader_spin_density
 _atom_site_hle17_ddec_charge
 _atom_site_hle17_ddec_spin_density
 _atom_site_hle17_ddec_sum_bond_order
 _atom_site_hle17_magmom
 _atom_site_hse06_10hf_bader_spin_density
 _atom_site_hse06_10hf_ddec_charge
 _atom_site_hse06_10hf_ddec_spin_density
 _atom_site_hse06_10hf_ddec_sum_bond_order
 _atom_site_hse06_10hf_magmom
 _atom_site_hse06_bader_spin_density
 _atom_site_hse06_ddec_charge
 _atom_site_hse06_ddec_spin_density
 _atom_site_hse06_ddec_sum_bond_order
 _atom_site_hse06_magmom
 _atom_site_pbe_bader_spin_density
 _atom_site_pbe_cm5_charge
 _atom_site_pbe_ddec_charge
 _atom_site_pbe_ddec_spin_density
 _atom_site_pbe_ddec_sum_bond_order
 _atom_site_pbe_magmom
Ni  Ni0  1  0.31682725  0.99993030  0.75008818  1  0  0.487714  0  2.421153  0  0  0.425622  0  2.875776  0  0  0.480804  0  2.820402  0  0  0.680665  0.403959  0  2.905468  0
Ni  Ni1  1  0.68317409  0.00009723  0.24992598  1  0  0.487981  0  2.420936  0  0  0.425701  0  2.875648  0  0  0.480971  0  2.820246  0  0  0.68074  0.403983  0  2.905357  0
H  H2  1  0.06204491  0.75256303  0.77678616  1  0  0.097191  0  0.958667  0  0  0.102796  0  1.023506  0  0  0.104577  0  1.021547  0  0  0.12581  0.101206  0  1.025347  0
H  H3  1  0.69035086  0.75302553  0.27663271  1  0  0.098502  0  0.956509  0  0  0.103952  0  1.021561  0  0  0.105722  0  1.019642  0  0  0.126295  0.102366  0  1.02339  0
H  H4  1  0.93798552  0.24746354  0.22322092  1  0  0.097375  0  0.958562  0  0  0.102982  0  1.023349  0  0  0.104761  0  1.021397  0  0  0.125891  0.101391  0  1.025191  0
H  H5  1  0.30963440  0.24698463  0.72337028  1  0  0.098469  0  0.95677  0  0  0.103945  0  1.021782  0  0  0.105717  0  1.019862  0  0  0.126315  0.102358  0  1.02361  0
H  H6  1  0.90647990  0.53244558  0.66252521  1  0  0.120442  0  0.931353  0  0  0.135713  0  0.978203  0  0  0.138435  0  0.977968  0  0  0.122476  0.133656  0  0.978729  0
H  H7  1  0.62588873  0.53292461  0.16257720  1  0  0.120957  0  0.930602  0  0  0.135946  0  0.977562  0  0  0.138679  0  0.977343  0  0  0.122556  0.133898  0  0.978079  0
H  H8  1  0.09356800  0.46759743  0.33747750  1  0  0.12031  0  0.93139  0  0  0.135635  0  0.978189  0  0  0.138357  0  0.977961  0  0  0.12243  0.133602  0  0.978692  0
H  H9  1  0.37413183  0.46710623  0.83740362  1  0  0.120843  0  0.930536  0  0  0.13584  0  0.977525  0  0  0.138573  0  0.977304  0  0  0.122512  0.133797  0  0.978031  0
H  H10  1  0.22895379  0.63544141  0.44370109  1  0  0.125309  0  0.949296  0  0  0.136977  0  1.003997  0  0  0.140052  0  1.002625  0  0  0.11788  0.134572  0  1.005452  0
H  H11  1  0.40603200  0.63513490  0.94357903  1  0  0.125164  0  0.949214  0  0  0.137178  0  1.00369  0  0  0.140238  0  1.002363  0  0  0.118092  0.134766  0  1.005134  0
H  H12  1  0.77107988  0.36458609  0.55631921  1  0  0.125383  0  0.949148  0  0  0.137006  0  1.003906  0  0  0.14008  0  1.002536  0  0  0.117914  0.134602  0  1.005357  0
H  H13  1  0.59399537  0.36493174  0.05641582  1  0  0.1252  0  0.949066  0  0  0.137073  0  1.003715  0  0  0.140127  0  1.002403  0  0  0.118146  0.134668  0  1.005168  0
H  H14  1  0.36879048  0.85205653  0.56413969  1  0  0.104252  0  0.941509  0  0  0.108288  0  1.008478  0  0  0.11054  0  1.005595  0  0  0.126966  0.106304  0  1.011039  0
H  H15  1  0.48302907  0.85188227  0.06375915  1  0  0.103852  0  0.94298  0  0  0.108346  0  1.009084  0  0  0.110596  0  1.006213  0  0  0.127201  0.106383  0  1.011592  0
H  H16  1  0.63125441  0.14796385  0.43587258  1  0  0.104086  0  0.942038  0  0  0.108224  0  1.008861  0  0  0.110474  0  1.005977  0  0  0.126944  0.106271  0  1.011336  0
H  H17  1  0.51696145  0.14813288  0.93626540  1  0  0.104024  0  0.942371  0  0  0.108602  0  1.008477  0  0  0.110858  0  1.005607  0  0  0.127213  0.106628  0  1.011004  0
H  H18  1  0.43746065  0.87838922  0.86333506  1  0  0.097959  0  0.986623  0  0  0.096369  0  1.066086  0  0  0.099838  0  1.061015  0  0  0.118348  0.093385  0  1.070409  0
H  H19  1  0.44095989  0.87846854  0.36330873  1  0  0.09803  0  0.986531  0  0  0.097039  0  1.065198  0  0  0.100536  0  1.060117  0  0  0.118387  0.094016  0  1.069528  0
H  H20  1  0.56254000  0.12166280  0.13669752  1  0  0.097784  0  0.98667  0  0  0.096301  0  1.066038  0  0  0.099763  0  1.060985  0  0  0.118353  0.093323  0  1.070347  0
H  H21  1  0.55905598  0.12153446  0.63669315  1  0  0.098034  0  0.986428  0  0  0.09695  0  1.065151  0  0  0.100441  0  1.06008  0  0  0.118377  0.093934  0  1.06949  0
H  H22  1  0.66790731  0.87811684  0.87033965  1  0  0.113052  0  0.941913  0  0  0.123441  0  0.998983  0  0  0.125797  0  0.99933  0  0  0.112609  0.121715  0  0.999114  0
H  H23  1  0.21013343  0.87807528  0.37039329  1  0  0.113881  0  0.940996  0  0  0.123819  0  0.99853  0  0  0.12621  0  0.998834  0  0  0.113022  0.122095  0  0.998658  0
H  H24  1  0.33205512  0.12186247  0.12967393  1  0  0.113127  0  0.941799  0  0  0.123435  0  0.998925  0  0  0.125818  0  0.999242  0  0  0.112678  0.121714  0  0.999054  0
H  H25  1  0.78983921  0.12183760  0.62958534  1  0  0.113472  0  0.941406  0  0  0.123531  0  0.99887  0  0  0.125897  0  0.999199  0  0  0.112881  0.121807  0  0.998998  0
H  H26  1  0.92924109  0.05203365  0.92003685  1  0  0.128123  0  0.966382  0  0  0.133514  0  1.030831  0  0  0.137137  0  1.029171  0  0  0.111012  0.130752  0  1.032464  0
H  H27  1  0.12251672  0.05174184  0.42017619  1  0  0.128707  0  0.965389  0  0  0.13396  0  1.030028  0  0  0.137676  0  1.028262  0  0  0.110895  0.131181  0  1.031683  0
H  H28  1  0.07068426  0.94786783  0.07995539  1  0  0.128159  0  0.966683  0  0  0.133669  0  1.030977  0  0  0.137292  0  1.029317  0  0  0.111069  0.130942  0  1.03257  0
H  H29  1  0.87745228  0.94821920  0.57980993  1  0  0.128537  0  0.96554  0  0  0.133889  0  1.030091  0  0  0.137592  0  1.028341  0  0  0.110823  0.131089  0  1.031766  0
H  H30  1  0.15563727  0.04063096  0.91240980  1  0  0.095579  0  0.960083  0  0  0.099036  0  1.028919  0  0  0.101874  0  1.025368  0  0  0.121286  0.096537  0  1.032216  0
H  H31  1  0.88467860  0.04032720  0.41247670  1  0  0.095105  0  0.960387  0  0  0.099282  0  1.028487  0  0  0.102207  0  1.024837  0  0  0.12149  0.096775  0  1.031792  0
H  H32  1  0.84432524  0.95934851  0.08758073  1  0  0.09561  0  0.960325  0  0  0.099178  0  1.028982  0  0  0.101992  0  1.025459  0  0  0.121348  0.096681  0  1.032271  0
H  H33  1  0.11533905  0.95971078  0.58751061  1  0  0.095078  0  0.960297  0  0  0.099204  0  1.028471  0  0  0.102124  0  1.02483  0  0  0.121473  0.096698  0  1.031777  0
C  C34  1  0.09430831  0.72397728  0.70131990  1  0  0.127041  0  3.65414  0  0  0.093676  0  3.91061  0  0  0.103847  0  3.927735  0  0  0.051114  0.086841  0  3.900263  0
C  C35  1  0.62938380  0.72425399  0.20116250  1  0  0.12658  0  3.653841  0  0  0.093025  0  3.910323  0  0  0.10325  0  3.927495  0  0  0.051287  0.086168  0  3.89998  0
C  C36  1  0.90572793  0.27604613  0.29869746  1  0  0.126785  0  3.654354  0  0  0.093441  0  3.910812  0  0  0.103613  0  3.92795  0  0  0.051188  0.086606  0  3.900464  0
C  C37  1  0.37060282  0.27576445  0.79883101  1  0  0.126644  0  3.653754  0  0  0.093098  0  3.910233  0  0  0.103314  0  3.927407  0  0  0.051347  0.086265  0  3.899906  0
C  C38  1  0.00705223  0.59940844  0.63575627  1  0  -0.139113  0  3.68128  0  0  -0.157642  0  3.921883  0  0  -0.165886  0  3.941888  0  0  -0.068837  -0.152477  0  3.908964  0
C  C39  1  0.59226234  0.59973206  0.13566020  1  0  -0.140528  0  3.680506  0  0  -0.158128  0  3.921028  0  0  -0.16638  0  3.941019  0  0  -0.069323  -0.152967  0  3.908112  0
C  C40  1  0.99298998  0.40061397  0.36425863  1  0  -0.139084  0  3.680914  0  0  -0.157723  0  3.921518  0  0  -0.165986  0  3.941502  0  0  -0.06897  -0.152556  0  3.908623  0
C  C41  1  0.40774832  0.40029562  0.86433244  1  0  -0.140622  0  3.681031  0  0  -0.158259  0  3.921629  0  0  -0.166515  0  3.941621  0  0  -0.069445  -0.153096  0  3.908705  0
C  C42  1  0.04745462  0.56386817  0.53742836  1  0  0.099502  0  3.747548  0  0  0.11049  0  3.978783  0  0  0.116148  0  3.998743  0  0  0.019017  0.106564  0  3.965498  0
C  C43  1  0.51631231  0.56392514  0.03730313  1  0  0.100317  0  3.745184  0  0  0.11069  0  3.977861  0  0  0.116361  0  3.997829  0  0  0.019554  0.106732  0  3.964585  0
C  C44  1  0.95258625  0.43615525  0.46258976  1  0  0.099295  0  3.74762  0  0  0.110447  0  3.978703  0  0  0.116182  0  3.998582  0  0  0.018978  0.106422  0  3.965515  0
C  C45  1  0.48368556  0.43611391  0.96267513  1  0  0.100291  0  3.745819  0  0  0.110677  0  3.978477  0  0  0.116367  0  3.998418  0  0  0.019514  0.106721  0  3.965202  0
C  C46  1  0.18312000  0.65585731  0.51455759  1  0  -0.143304  0  3.664845  0  0  -0.162576  0  3.906532  0  0  -0.170875  0  3.926242  0  0  -0.069883  -0.157313  0  3.893944  0
C  C47  1  0.47251759  0.65573316  0.01433707  1  0  -0.142942  0  3.664268  0  0  -0.162739  0  3.906685  0  0  -0.171032  0  3.9264  0  0  -0.070254  -0.157455  0  3.894074  0
C  C48  1  0.81693638  0.34417125  0.48545826  1  0  -0.143222  0  3.664862  0  0  -0.162455  0  3.906446  0  0  -0.170772  0  3.926136  0  0  -0.069921  -0.157172  0  3.893886  0
C  C49  1  0.52748794  0.34431198  0.98565290  1  0  -0.142986  0  3.664694  0  0  -0.162724  0  3.907244  0  0  -0.171004  0  3.926947  0  0  -0.07039  -0.157459  0  3.894628  0
C  C50  1  0.26557180  0.77920732  0.58342782  1  0  0.14284  0  3.628547  0  0  0.112408  0  3.879961  0  0  0.123139  0  3.895728  0  0  0.057968  0.105129  0  3.870652  0
C  C51  1  0.51343129  0.77915024  0.08306575  1  0  0.142934  0  3.629504  0  0  0.112658  0  3.880405  0  0  0.123441  0  3.896242  0  0  0.05792  0.105365  0  3.871069  0
C  C52  1  0.73446322  0.22080995  0.41658781  1  0  0.142725  0  3.6285  0  0  0.112182  0  3.879922  0  0  0.122921  0  3.895692  0  0  0.057957  0.104905  0  3.870625  0
C  C53  1  0.48654362  0.22089281  0.91692774  1  0  0.142655  0  3.630542  0  0  0.112336  0  3.881444  0  0  0.123099  0  3.897309  0  0  0.058078  0.105085  0  3.872093  0
C  C54  1  0.51956568  0.93177973  0.81381055  1  0  0.118114  0  3.638992  0  0  0.086317  0  3.895835  0  0  0.09507  0  3.912478  0  0  0.047823  0.079947  0  3.886222  0
C  C55  1  0.41225143  0.93186269  0.31378029  1  0  0.118181  0  3.638565  0  0  0.085821  0  3.895324  0  0  0.094554  0  3.911991  0  0  0.048033  0.079486  0  3.885682  0
C  C56  1  0.48042546  0.06823850  0.18621370  1  0  0.118227  0  3.639397  0  0  0.086197  0  3.896161  0  0  0.094942  0  3.912818  0  0  0.04768  0.079831  0  3.886547  0
C  C57  1  0.58774955  0.06812900  0.68622368  1  0  0.118039  0  3.639046  0  0  0.085928  0  3.895878  0  0  0.09466  0  3.912541  0  0  0.048114  0.079581  0  3.886242  0
C  C58  1  0.64760693  0.93165512  0.81641459  1  0  -0.122694  0  3.681417  0  0  -0.142131  0  3.924632  0  0  -0.149821  0  3.946171  0  0  -0.071155  -0.137091  0  3.910998  0
C  C59  1  0.28401353  0.93171245  0.31647240  1  0  -0.123536  0  3.679807  0  0  -0.142555  0  3.923429  0  0  -0.150271  0  3.944944  0  0  -0.071446  -0.137511  0  3.909795  0
C  C60  1  0.35236601  0.06831195  0.18358939  1  0  -0.122715  0  3.68179  0  0  -0.142033  0  3.925071  0  0  -0.149744  0  3.946592  0  0  -0.071109  -0.136996  0  3.911445  0
C  C61  1  0.71596050  0.06823831  0.68351597  1  0  -0.122979  0  3.680208  0  0  -0.142164  0  3.923725  0  0  -0.149852  0  3.94526  0  0  -0.071413  -0.137121  0  3.91009  0
C  C62  1  0.74838941  0.99993980  0.74994980  1  0  0.101126  0  3.739548  0  0  0.112772  0  3.969918  0  0  0.116896  0  3.990865  0  0  0.018777  0.109496  0  3.956607  0
C  C63  1  0.25156509  0.99999259  0.25003584  1  0  0.101191  0  3.739563  0  0  0.112718  0  3.969872  0  0  0.116844  0  3.990829  0  0  0.018631  0.109436  0  3.95657  0
C  C64  1  0.88456904  0.00000976  0.74992742  1  0  0.109498  0  3.741882  0  0  0.119078  0  3.971923  0  0  0.124516  0  3.992605  0  0  0.020118  0.114854  0  3.958702  0
C  C65  1  0.11539062  0.99993077  0.25005782  1  0  0.109213  0  3.741809  0  0  0.119029  0  3.971606  0  0  0.124458  0  3.992293  0  0  0.020071  0.114813  0  3.958392  0
C  C66  1  0.96338376  0.02541798  0.84456379  1  0  -0.144192  0  3.665288  0  0  -0.159034  0  3.905031  0  0  -0.167672  0  3.925567  0  0  -0.073733  -0.153256  0  3.8923  0
C  C67  1  0.06181044  0.02515229  0.34468464  1  0  -0.144256  0  3.662274  0  0  -0.159097  0  3.902177  0  0  -0.167821  0  3.922715  0  0  -0.073431  -0.153305  0  3.889463  0
C  C68  1  0.03656895  0.97451234  0.15541294  1  0  -0.143994  0  3.664568  0  0  -0.159048  0  3.904337  0  0  -0.167683  0  3.924861  0  0  -0.073715  -0.153303  0  3.891594  0
C  C69  1  0.93816371  0.97480056  0.65529867  1  0  -0.144195  0  3.662074  0  0  -0.15904  0  3.901988  0  0  -0.16775  0  3.922528  0  0  -0.073357  -0.15323  0  3.889269  0
C  C70  1  0.09098883  0.02447032  0.84173463  1  0  0.12133  0  3.664628  0  0  0.087631  0  3.921618  0  0  0.096926  0  3.938717  0  0  0.047527  0.0809  0  3.911701  0
C  C71  1  0.93324015  0.02419263  0.34176826  1  0  0.121162  0  3.665424  0  0  0.087138  0  3.921919  0  0  0.096356  0  3.939036  0  0  0.047248  0.080412  0  3.912002  0
C  C72  1  0.90897562  0.97549272  0.15825873  1  0  0.121143  0  3.66453  0  0  0.087421  0  3.921501  0  0  0.096731  0  3.938622  0  0  0.047474  0.080691  0  3.91158  0
C  C73  1  0.06674514  0.97578988  0.65822812  1  0  0.121287  0  3.66537  0  0  0.087276  0  3.921886  0  0  0.096494  0  3.939  0  0  0.047333  0.080549  0  3.911964  0
N  N74  1  0.20401090  0.81987146  0.94895819  1  0  0.711787  0  4.137059  0  0  0.73344  0  4.452979  0  0  0.7618  0  4.457357  0  0  0.08357  0.713997  0  4.449191  0
N  N75  1  0.61565202  0.81995750  0.44904200  1  0  0.711234  0  4.139606  0  0  0.732946  0  4.455377  0  0  0.761316  0  4.45978  0  0  0.083892  0.713498  0  4.451563  0
N  N76  1  0.79600002  0.18011425  0.05102177  1  0  0.711766  0  4.136935  0  0  0.733449  0  4.452804  0  0  0.761812  0  4.457177  0  0  0.083657  0.714005  0  4.449013  0
N  N77  1  0.38434497  0.18002808  0.55095717  1  0  0.711252  0  4.139655  0  0  0.732934  0  4.455476  0  0  0.761304  0  4.459885  0  0  0.083828  0.713487  0  4.451665  0
N  N78  1  0.22029113  0.81573796  0.67416901  1  0  -0.229657  0  3.362272  0  0  -0.171458  0  3.647301  0  0  -0.198289  0  3.666234  0  0  -0.332876  -0.157126  0  3.636269  0
N  N79  1  0.59522734  0.81587564  0.17388442  1  0  -0.230789  0  3.362411  0  0  -0.172432  0  3.647192  0  0  -0.199464  0  3.666344  0  0  -0.333439  -0.158054  0  3.636133  0
N  N80  1  0.77975296  0.18428450  0.32583820  1  0  -0.229352  0  3.362287  0  0  -0.171127  0  3.647307  0  0  -0.197977  0  3.666254  0  0  -0.33281  -0.156792  0  3.63627  0
N  N81  1  0.40476320  0.18414878  0.82613387  1  0  -0.230389  0  3.363234  0  0  -0.172057  0  3.648042  0  0  -0.199059  0  3.667202  0  0  -0.333443  -0.157761  0  3.637044  0
N  N82  1  0.49130558  0.99997754  0.75003475  1  0  -0.232634  0  3.411215  0  0  -0.176358  0  3.700514  0  0  -0.203992  0  3.721959  0  0  -0.341399  -0.15976  0  3.686358  0
N  N83  1  0.50870592  0.00004999  0.24998018  1  0  -0.232698  0  3.411011  0  0  -0.175983  0  3.699928  0  0  -0.203628  0  3.721375  0  0  -0.34127  -0.159394  0  3.685783  0
N  N84  1  0.14154990  0.00004788  0.74998952  1  0  -0.251194  0  3.431886  0  0  -0.191546  0  3.7182  0  0  -0.219154  0  3.738978  0  0  -0.345053  -0.175189  0  3.704847  0
N  N85  1  0.85844042  0.99994285  0.25000583  1  0  -0.251099  0  3.431936  0  0  -0.191478  0  3.718306  0  0  -0.219104  0  3.739092  0  0  -0.345  -0.175112  0  3.704947  0
O  O86  1  0.28864749  0.94830398  0.95479847  1  0  -0.545583  0  1.780276  0  0  -0.537606  0  2.028619  0  0  -0.553696  0  2.01883  0  0  -0.219418  -0.525841  0  2.035017  0
O  O87  1  0.65927612  0.94831989  0.45472777  1  0  -0.545358  0  1.780273  0  0  -0.538115  0  2.029615  0  0  -0.554243  0  2.01985  0  0  -0.220043  -0.526321  0  2.035977  0
O  O88  1  0.71136597  0.05168682  0.04518767  1  0  -0.545484  0  1.780376  0  0  -0.537539  0  2.028763  0  0  -0.553632  0  2.018978  0  0  -0.219395  -0.525774  0  2.035153  0
O  O89  1  0.34075834  0.05167779  0.54530251  1  0  -0.545294  0  1.780505  0  0  -0.537963  0  2.029784  0  0  -0.554061  0  2.019972  0  0  -0.219962  -0.526176  0  2.036173  0
O  O90  1  0.25238594  0.73701739  0.93370980  1  0  -0.493404  0  1.700378  0  0  -0.488006  0  1.910796  0  0  -0.500612  0  1.9019  0  0  -0.220366  -0.477772  0  1.916599  0
O  O91  1  0.48441073  0.73685943  0.43373627  1  0  -0.492975  0  1.700426  0  0  -0.48749  0  1.910627  0  0  -0.500102  0  1.901762  0  0  -0.220412  -0.47725  0  1.916404  0
O  O92  1  0.74761991  0.26296928  0.06628030  1  0  -0.493408  0  1.700215  0  0  -0.488084  0  1.910675  0  0  -0.50069  0  1.901775  0  0  -0.220466  -0.477849  0  1.916481  0
O  O93  1  0.51557946  0.26315319  0.56620787  1  0  -0.493044  0  1.700363  0  0  -0.487568  0  1.910564  0  0  -0.500179  0  1.901699  0  0  -0.220442  -0.477336  0  1.916346  0
O  O94  1  0.07372441  0.77848514  0.95607951  1  0  -0.491543  0  1.67911  0  0  -0.486322  0  1.880253  0  0  -0.497729  0  1.871788  0  0  -0.223978  -0.477208  0  1.885758  0
O  O95  1  0.70471635  0.77887081  0.45633845  1  0  -0.49176  0  1.68131  0  0  -0.486395  0  1.882475  0  0  -0.49782  0  1.874049  0  0  -0.223812  -0.47727  0  1.887954  0
O  O96  1  0.92628938  0.22151184  0.04390219  1  0  -0.491571  0  1.678882  0  0  -0.486315  0  1.879979  0  0  -0.497722  0  1.871509  0  0  -0.224001  -0.477197  0  1.885481  0
O  O97  1  0.29524217  0.22107667  0.54368095  1  0  -0.491849  0  1.681143  0  0  -0.48647  0  1.88232  0  0  -0.4979  0  1.873893  0  0  -0.223828  -0.477347  0  1.887802  0
