# generated using pymatgen
data_AgH16C12S2NO4
_symmetry_space_group_name_H-M   'P 1'
_cell_length_a   7.50736278
_cell_length_b   9.41360191
_cell_length_c   10.97256413
_cell_angle_alpha   115.40326554
_cell_angle_beta   89.99987957
_cell_angle_gamma   90.00006371
_symmetry_Int_Tables_number   1
_chemical_formula_structural   AgH16C12S2NO4
_chemical_formula_sum   'Ag2 H32 C24 S4 N2 O8'
_cell_volume   700.46845718
_cell_formula_units_Z   2
loop_
 _symmetry_equiv_pos_site_id
 _symmetry_equiv_pos_as_xyz
  1  'x, y, z'
loop_
 _atom_site_type_symbol
 _atom_site_label
 _atom_site_symmetry_multiplicity
 _atom_site_fract_x
 _atom_site_fract_y
 _atom_site_fract_z
 _atom_site_occupancy
 _atom_site_hle17_bader_spin_density
 _atom_site_hle17_ddec_charge
 _atom_site_hle17_ddec_spin_density
 _atom_site_hle17_ddec_sum_bond_order
 _atom_site_hle17_magmom
 _atom_site_hse06_10hf_bader_spin_density
 _atom_site_hse06_10hf_ddec_charge
 _atom_site_hse06_10hf_ddec_spin_density
 _atom_site_hse06_10hf_ddec_sum_bond_order
 _atom_site_hse06_10hf_magmom
 _atom_site_hse06_bader_spin_density
 _atom_site_hse06_ddec_charge
 _atom_site_hse06_ddec_spin_density
 _atom_site_hse06_ddec_sum_bond_order
 _atom_site_hse06_magmom
 _atom_site_pbe_bader_spin_density
 _atom_site_pbe_cm5_charge
 _atom_site_pbe_ddec_charge
 _atom_site_pbe_ddec_spin_density
 _atom_site_pbe_ddec_sum_bond_order
 _atom_site_pbe_magmom
Ag  Ag0  1  0.25693670  0.16798777  0.33644216  1  0  0.351191  0  1.620514  0  0  0.229431  0  2.081049  0  0  0.251705  0  2.043063  0  0  0.37297  0.215973  0  2.107207  0
Ag  Ag1  1  0.75693647  0.83200945  0.66355577  1  0  0.351221  0  1.620505  0  0  0.229458  0  2.081061  0  0  0.251731  0  2.043076  0  0  0.372983  0.215998  0  2.107222  0
H  H2  1  0.25708367  0.27449759  0.09132769  1  0  0.110435  0  0.932218  0  0  0.126931  0  0.99276  0  0  0.127926  0  0.992686  0  0  0.104522  0.126275  0  0.992662  0
H  H3  1  0.75708255  0.72550199  0.90867201  1  0  0.110436  0  0.932259  0  0  0.126949  0  0.992787  0  0  0.127936  0  0.99272  0  0  0.104521  0.126292  0  0.992688  0
H  H4  1  0.25739708  0.81651945  0.09132045  1  0  0.110814  0  0.931625  0  0  0.126727  0  0.992607  0  0  0.127666  0  0.99262  0  0  0.10431  0.126109  0  0.992458  0
H  H5  1  0.75739386  0.18347661  0.90868070  1  0  0.110821  0  0.931576  0  0  0.126717  0  0.992582  0  0  0.127655  0  0.992596  0  0  0.104316  0.126099  0  0.992429  0
H  H6  1  0.47027299  0.19660419  0.09493833  1  0  0.121532  0  0.93958  0  0  0.135201  0  1.003466  0  0  0.13671  0  1.002534  0  0  0.106926  0.133462  0  1.00562  0
H  H7  1  0.97027332  0.80339308  0.90506205  1  0  0.121547  0  0.939594  0  0  0.135231  0  1.003465  0  0  0.136742  0  1.002529  0  0  0.106959  0.133495  0  1.005606  0
H  H8  1  0.47062247  0.89797862  0.09490944  1  0  0.122039  0  0.938512  0  0  0.135284  0  1.002834  0  0  0.13678  0  1.001917  0  0  0.106956  0.133542  0  1.004983  0
H  H9  1  0.97061915  0.10202100  0.90509179  1  0  0.122016  0  0.938527  0  0  0.135279  0  1.002835  0  0  0.136773  0  1.00192  0  0  0.106958  0.133536  0  1.00499  0
H  H10  1  0.62039777  0.43354355  0.10146583  1  0  0.046903  0  0.944659  0  0  0.062478  0  1.008661  0  0  0.062337  0  1.00972  0  0  0.095383  0.062558  0  1.008123  0
H  H11  1  0.12039416  0.56645482  0.89853363  1  0  0.046908  0  0.944606  0  0  0.06247  0  1.008651  0  0  0.06233  0  1.00971  0  0  0.095386  0.06255  0  1.008115  0
H  H12  1  0.62054579  0.66744861  0.10147703  1  0  0.047265  0  0.944934  0  0  0.063021  0  1.008782  0  0  0.062877  0  1.009854  0  0  0.095675  0.063099  0  1.008244  0
H  H13  1  0.12054052  0.33255095  0.89852468  1  0  0.047227  0  0.945005  0  0  0.062984  0  1.008865  0  0  0.06284  0  1.009936  0  0  0.095662  0.063061  0  1.008327  0
H  H14  1  0.47878075  0.34497674  0.95824390  1  0  0.046484  0  0.93294  0  0  0.062485  0  0.999689  0  0  0.062206  0  1.00007  0  0  0.095559  0.063539  0  0.998636  0
H  H15  1  0.97877952  0.65502288  0.04175550  1  0  0.046451  0  0.932907  0  0  0.062465  0  0.999663  0  0  0.062186  0  1.000047  0  0  0.095557  0.063521  0  0.998609  0
H  H16  1  0.47900471  0.61292250  0.95827993  1  0  0.047022  0  0.932877  0  0  0.062714  0  1.000113  0  0  0.06244  0  1.000508  0  0  0.095675  0.063766  0  0.999042  0
H  H17  1  0.97900178  0.38707478  0.04172044  1  0  0.046996  0  0.932871  0  0  0.062711  0  1.000096  0  0  0.062436  0  1.000492  0  0  0.095656  0.063764  0  0.999022  0
H  H18  1  0.66957440  0.30328057  0.31635826  1  0  0.114159  0  0.980594  0  0  0.122059  0  1.050757  0  0  0.124671  0  1.048778  0  0  0.100511  0.119614  0  1.053636  0
H  H19  1  0.16957163  0.69672015  0.68364016  1  0  0.114129  0  0.980627  0  0  0.122073  0  1.050726  0  0  0.124685  0  1.048748  0  0  0.100517  0.119624  0  1.05361  0
H  H20  1  0.66995116  0.01267035  0.31630333  1  0  0.113614  0  0.980164  0  0  0.121907  0  1.050443  0  0  0.124514  0  1.048497  0  0  0.100305  0.119446  0  1.053293  0
H  H21  1  0.16994880  0.98733391  0.68369912  1  0  0.113536  0  0.980242  0  0  0.121866  0  1.050502  0  0  0.124474  0  1.048554  0  0  0.100265  0.119399  0  1.053359  0
H  H22  1  0.58879488  0.43682359  0.47586443  1  0  0.100168  0  0.962498  0  0  0.115302  0  1.029203  0  0  0.115547  0  1.030549  0  0  0.097359  0.115084  0  1.028501  0
H  H23  1  0.08879109  0.56317712  0.52413502  1  0  0.100172  0  0.962479  0  0  0.115294  0  1.0292  0  0  0.115539  0  1.030546  0  0  0.097341  0.115076  0  1.028497  0
H  H24  1  0.58917024  0.03871935  0.47581519  1  0  0.100056  0  0.961302  0  0  0.115341  0  1.028214  0  0  0.115621  0  1.029512  0  0  0.097286  0.115079  0  1.027528  0
H  H25  1  0.08916567  0.96128020  0.52418747  1  0  0.100037  0  0.961345  0  0  0.115326  0  1.028259  0  0  0.115608  0  1.029557  0  0  0.097278  0.115067  0  1.02757  0
H  H26  1  0.47451670  0.70268013  0.40557164  1  0  0.100266  0  0.98423  0  0  0.106241  0  1.053015  0  0  0.109436  0  1.051336  0  0  0.093068  0.102797  0  1.056179  0
H  H27  1  0.97451994  0.29732185  0.59443045  1  0  0.100265  0  0.984306  0  0  0.106248  0  1.053074  0  0  0.109442  0  1.051396  0  0  0.093073  0.102805  0  1.056238  0
H  H28  1  0.95113942  0.42229287  0.30409757  1  0  0.094421  0  0.970677  0  0  0.10078  0  1.0414  0  0  0.103708  0  1.040125  0  0  0.093987  0.098094  0  1.043182  0
H  H29  1  0.45113912  0.57771026  0.69590133  1  0  0.094465  0  0.970611  0  0  0.100816  0  1.041341  0  0  0.103744  0  1.040068  0  0  0.094022  0.098128  0  1.043124  0
H  H30  1  0.95143679  0.88107917  0.30404553  1  0  0.094278  0  0.970819  0  0  0.100805  0  1.041446  0  0  0.103723  0  1.040178  0  0  0.094134  0.098126  0  1.043245  0
H  H31  1  0.45143450  0.11891693  0.69595444  1  0  0.094248  0  0.970808  0  0  0.100767  0  1.041449  0  0  0.103681  0  1.040187  0  0  0.094117  0.098097  0  1.043223  0
H  H32  1  0.11428915  0.63860484  0.27799209  1  0  0.091087  0  0.985622  0  0  0.090291  0  1.066074  0  0  0.093829  0  1.064091  0  0  0.092434  0.086645  0  1.069718  0
H  H33  1  0.61428276  0.36139705  0.72200775  1  0  0.091135  0  0.985637  0  0  0.090354  0  1.066047  0  0  0.093893  0  1.064056  0  0  0.092477  0.086708  0  1.06969  0
C  C34  1  0.39431425  0.30652285  0.12741279  1  0  -0.185358  0  3.613722  0  0  -0.229199  0  3.879773  0  0  -0.228835  0  3.889662  0  0  -0.152126  -0.228628  0  3.872375  0
C  C35  1  0.89431186  0.69347558  0.87258721  1  0  -0.185424  0  3.613708  0  0  -0.229294  0  3.879796  0  0  -0.228922  0  3.889687  0  0  -0.152149  -0.228714  0  3.872392  0
C  C36  1  0.39460499  0.82059152  0.12743252  1  0  -0.185422  0  3.61356  0  0  -0.228095  0  3.879149  0  0  -0.227552  0  3.888711  0  0  -0.151644  -0.22765  0  3.871969  0
C  C37  1  0.89460188  0.17940809  0.87256974  1  0  -0.185428  0  3.613537  0  0  -0.228103  0  3.879182  0  0  -0.227558  0  3.888742  0  0  -0.151693  -0.227658  0  3.872002  0
C  C38  1  0.47983579  0.40983060  0.06952610  1  0  0.104075  0  3.668318  0  0  0.045829  0  3.939717  0  0  0.053153  0  3.946528  0  0  -0.075282  0.04064  0  3.934612  0
C  C39  1  0.97983308  0.59016784  0.93047287  1  0  0.104194  0  3.66808  0  0  0.045925  0  3.939555  0  0  0.053242  0  3.946362  0  0  -0.075263  0.040734  0  3.934451  0
C  C40  1  0.47998382  0.65934660  0.06954891  1  0  0.102555  0  3.670001  0  0  0.04373  0  3.94246  0  0  0.051014  0  3.949356  0  0  -0.075794  0.038578  0  3.937278  0
C  C41  1  0.97997809  0.34065185  0.93045188  1  0  0.102656  0  3.67003  0  0  0.043796  0  3.942562  0  0  0.051075  0  3.949455  0  0  -0.075754  0.038645  0  3.937374  0
C  C42  1  0.60204602  0.41654424  0.36981487  1  0  -0.198822  0  3.632374  0  0  -0.238252  0  3.874974  0  0  -0.23824  0  3.886166  0  0  -0.149783  -0.238025  0  3.866918  0
C  C43  1  0.10204326  0.58345647  0.63018456  1  0  -0.19885  0  3.632361  0  0  -0.238278  0  3.874953  0  0  -0.238272  0  3.886155  0  0  -0.149775  -0.238055  0  3.866904  0
C  C44  1  0.60239939  0.95286481  0.36974836  1  0  -0.197704  0  3.632087  0  0  -0.238306  0  3.874914  0  0  -0.238379  0  3.886163  0  0  -0.149342  -0.237904  0  3.866663  0
C  C45  1  0.10239721  0.04713473  0.63025155  1  0  -0.197545  0  3.631961  0  0  -0.238204  0  3.874833  0  0  -0.238281  0  3.886088  0  0  -0.149298  -0.237801  0  3.866584  0
C  C46  1  0.70194673  0.54876714  0.35742827  1  0  0.10586  0  3.764816  0  0  0.130991  0  3.99697  0  0  0.131927  0  4.020765  0  0  -0.018074  0.130263  0  3.980234  0
C  C47  1  0.20194374  0.45123359  0.64257011  1  0  0.105923  0  3.764846  0  0  0.131031  0  3.997035  0  0  0.131967  0  4.020832  0  0  -0.018048  0.130301  0  3.980303  0
C  C48  1  0.70210409  0.80818319  0.35735891  1  0  0.104728  0  3.767904  0  0  0.13158  0  3.998191  0  0  0.132562  0  4.021949  0  0  -0.018574  0.130772  0  3.981499  0
C  C49  1  0.20210341  0.19181755  0.64264221  1  0  0.104673  0  3.767984  0  0  0.131528  0  3.998297  0  0  0.132511  0  4.022055  0  0  -0.018563  0.130714  0  3.981612  0
C  C50  1  0.61558624  0.68962540  0.37960549  1  0  -0.18727  0  3.739549  0  0  -0.209647  0  3.978898  0  0  -0.213014  0  3.996852  0  0  -0.108217  -0.208545  0  3.96615  0
C  C51  1  0.11558579  0.31037297  0.62039398  1  0  -0.187317  0  3.739677  0  0  -0.209666  0  3.978985  0  0  -0.213033  0  3.996938  0  0  -0.108241  -0.208563  0  3.966237  0
C  C52  1  0.88251751  0.53131280  0.32061649  1  0  -0.141285  0  3.742485  0  0  -0.163385  0  3.994023  0  0  -0.167135  0  4.014914  0  0  -0.102471  -0.159968  0  3.979801  0
C  C53  1  0.38251443  0.46868679  0.67938213  1  0  -0.141296  0  3.742518  0  0  -0.163384  0  3.994075  0  0  -0.167138  0  4.014974  0  0  -0.102481  -0.159967  0  3.979857  0
C  C54  1  0.88268286  0.78864286  0.32059812  1  0  -0.141286  0  3.74402  0  0  -0.164108  0  3.995378  0  0  -0.167862  0  4.016259  0  0  -0.102721  -0.160698  0  3.981198  0
C  C55  1  0.38268076  0.21135438  0.67939964  1  0  -0.141179  0  3.744039  0  0  -0.163992  0  3.995395  0  0  -0.167744  0  4.016276  0  0  -0.102698  -0.160578  0  3.981223  0
C  C56  1  0.97328051  0.65215778  0.30504905  1  0  -0.071986  0  3.798092  0  0  -0.085471  0  4.060279  0  0  -0.085675  0  4.080086  0  0  -0.098891  -0.085576  0  4.047174  0
C  C57  1  0.47327589  0.34784301  0.69494896  1  0  -0.072118  0  3.798135  0  0  -0.08561  0  4.060334  0  0  -0.085813  0  4.080144  0  0  -0.098964  -0.085714  0  4.047223  0
S  S58  1  0.37203724  0.39675971  0.31085626  1  0  0.059781  0  2.637747  0  0  0.100032  0  3.048551  0  0  0.09349  0  3.041756  0  0  -0.000648  0.105514  0  3.052854  0
S  S59  1  0.87203528  0.60323989  0.68914329  1  0  0.059806  0  2.637723  0  0  0.100054  0  3.048541  0  0  0.093515  0  3.041744  0  0  -0.000653  0.105532  0  3.052846  0
S  S60  1  0.37236528  0.91377391  0.31085916  1  0  0.059722  0  2.638534  0  0  0.100133  0  3.049544  0  0  0.093609  0  3.042705  0  0  -0.00058  0.105559  0  3.053839  0
S  S61  1  0.87235993  0.08622570  0.68914312  1  0  0.059655  0  2.638472  0  0  0.100085  0  3.049509  0  0  0.09356  0  3.042672  0  0  -0.000577  0.105507  0  3.053805  0
N  N62  1  0.91111866  0.09500280  0.19018980  1  0  0.670454  0  4.1434  0  0  0.700433  0  4.43497  0  0  0.728438  0  4.441723  0  0  0.083122  0.6826  0  4.430917  0
N  N63  1  0.41111446  0.90500032  0.80980824  1  0  0.670397  0  4.143658  0  0  0.700467  0  4.435122  0  0  0.728472  0  4.441878  0  0  0.083129  0.682611  0  4.431087  0
O  O64  1  0.38640355  0.55495700  0.11021018  1  0  -0.32378  0  2.26094  0  0  -0.250345  0  2.513364  0  0  -0.267932  0  2.51771  0  0  -0.232055  -0.238662  0  2.511401  0
O  O65  1  0.88639810  0.44504143  0.88979165  1  0  -0.323843  0  2.260881  0  0  -0.25039  0  2.513318  0  0  -0.26796  0  2.517656  0  0  -0.232067  -0.238709  0  2.511359  0
O  O66  1  0.04728278  0.05709972  0.11466406  1  0  -0.460233  0  1.770966  0  0  -0.445648  0  1.998785  0  0  -0.460684  0  1.991317  0  0  -0.194107  -0.435917  0  2.005003  0
O  O67  1  0.54727670  0.94290921  0.88533662  1  0  -0.460252  0  1.770984  0  0  -0.445698  0  1.998772  0  0  -0.460723  0  1.991283  0  0  -0.194142  -0.435962  0  2.004995  0
O  O68  1  0.93275993  0.15982181  0.31968810  1  0  -0.490277  0  1.790552  0  0  -0.458788  0  2.026644  0  0  -0.477401  0  2.018259  0  0  -0.221062  -0.446855  0  2.034629  0
O  O69  1  0.43276003  0.84017780  0.68031137  1  0  -0.490286  0  1.790672  0  0  -0.458813  0  2.026715  0  0  -0.477429  0  2.018334  0  0  -0.221072  -0.44688  0  2.034706  0
O  O70  1  0.75606693  0.07125640  0.14255501  1  0  -0.43548  0  1.74758  0  0  -0.418482  0  1.951898  0  0  -0.433184  0  1.94791  0  0  -0.178812  -0.408719  0  1.955756  0
O  O71  1  0.25606262  0.92874433  0.85744056  1  0  -0.435383  0  1.747694  0  0  -0.41846  0  1.952006  0  0  -0.433159  0  1.948017  0  0  -0.178779  -0.408653  0  1.955824  0
