# generated using pymatgen
data_H12PbC12(SO)4
_symmetry_space_group_name_H-M   'P 1'
_cell_length_a   12.24658044
_cell_length_b   16.95989245
_cell_length_c   16.95966778
_cell_angle_alpha   110.29112387
_cell_angle_beta   99.22580697
_cell_angle_gamma   99.22733138
_symmetry_Int_Tables_number   1
_chemical_formula_structural   H12PbC12(SO)4
_chemical_formula_sum   'H72 Pb6 C72 S24 O24'
_cell_volume   3171.23671027
_cell_formula_units_Z   6
loop_
 _symmetry_equiv_pos_site_id
 _symmetry_equiv_pos_as_xyz
  1  'x, y, z'
loop_
 _atom_site_type_symbol
 _atom_site_label
 _atom_site_symmetry_multiplicity
 _atom_site_fract_x
 _atom_site_fract_y
 _atom_site_fract_z
 _atom_site_occupancy
 _atom_site_pbe_bader_charge
 _atom_site_pbe_bader_spin_density
 _atom_site_pbe_cm5_charge
 _atom_site_pbe_ddec_charge
 _atom_site_pbe_ddec_spin_density
 _atom_site_pbe_ddec_sum_bond_order
 _atom_site_pbe_magmom
H  H0  1  0.11713193  0.79123579  0.50093710  1  0.093347  0  0.092208  0.140938  0  1.030137  0
H  H1  1  0.88287640  0.49906181  0.20874807  1  0.093472  0  0.092258  0.140958  0  1.030073  0
H  H2  1  0.88287281  0.20876145  0.49905766  1  0.093388  0  0.092186  0.140873  0  1.030162  0
H  H3  1  0.11712390  0.50092899  0.79123684  1  0.093395  0  0.092249  0.14093  0  1.030162  0
H  H4  1  0.02053066  0.68885428  0.44188390  1  0.068031  0  0.097112  0.149749  0  0.977848  0
H  H5  1  0.97946589  0.55811531  0.31113781  1  0.068143  0  0.097106  0.149746  0  0.977866  0
H  H6  1  0.97946590  0.31114616  0.55810636  1  0.068082  0  0.097132  0.149738  0  0.977841  0
H  H7  1  0.02053020  0.44187805  0.68884754  1  0.067824  0  0.0971  0.149702  0  0.977934  0
H  H8  1  0.98709070  0.76421617  0.53379677  1  0.082363  0  0.085995  0.129233  0  1.039681  0
H  H9  1  0.01291660  0.46620589  0.23578051  1  0.082385  0  0.08597  0.129214  0  1.039705  0
H  H10  1  0.01291259  0.23578169  0.46620041  1  0.082274  0  0.086025  0.129251  0  1.039508  0
H  H11  1  0.98708412  0.53378618  0.76421021  1  0.082443  0  0.086004  0.12923  0  1.039709  0
H  H12  1  0.29834588  0.14852886  0.54559283  1  0.08377  0  0.090575  0.136172  0  1.021298  0
H  H13  1  0.70168044  0.45441093  0.85146561  1  0.083789  0  0.090594  0.136126  0  1.02129  0
H  H14  1  0.70167040  0.85145677  0.45441033  1  0.083815  0  0.090585  0.136152  0  1.02128  0
H  H15  1  0.29832991  0.54557731  0.14852778  1  0.084119  0  0.090652  0.136247  0  1.021317  0
H  H16  1  0.34220682  0.16255973  0.45456688  1  0.054145  0  0.094067  0.141768  0  0.994466  0
H  H17  1  0.65781417  0.54542961  0.83743329  1  0.054016  0  0.094077  0.141683  0  0.994624  0
H  H18  1  0.65781150  0.83742721  0.54543697  1  0.05374  0  0.094061  0.141675  0  0.994633  0
H  H19  1  0.34218733  0.45455662  0.16256076  1  0.053782  0  0.094087  0.141766  0  0.994559  0
H  H20  1  0.30039970  0.05557872  0.45281598  1  0.112848  0  0.092004  0.152534  0  1.030349  0
H  H21  1  0.69961878  0.54718099  0.94441574  1  0.11292  0  0.091885  0.152311  0  1.030186  0
H  H22  1  0.69960373  0.94440558  0.54717997  1  0.112663  0  0.09189  0.152428  0  1.030179  0
H  H23  1  0.30039386  0.45280662  0.05557709  1  0.112968  0  0.091946  0.152454  0  1.030285  0
H  H24  1  0.99234998  0.84988228  0.03334477  1  0.1183  0  0.093964  0.150354  0  1.031654  0
H  H25  1  0.00765405  0.96663751  0.15010255  1  0.117775  0  0.093976  0.150462  0  1.031666  0
H  H26  1  0.00763958  0.15011095  0.96665632  1  0.118394  0  0.093986  0.15042  0  1.031593  0
H  H27  1  0.99232631  0.03336667  0.84989429  1  0.117658  0  0.093987  0.150497  0  1.031719  0
H  H28  1  0.89874846  0.75729861  0.94959869  1  0.078827  0  0.08366  0.125767  0  1.059721  0
H  H29  1  0.10125523  0.05038497  0.24268918  1  0.078669  0  0.083637  0.125734  0  1.059949  0
H  H30  1  0.10124454  0.24269788  0.05040274  1  0.078963  0  0.083644  0.12573  0  1.059962  0
H  H31  1  0.89873511  0.94961672  0.75730436  1  0.078477  0  0.083668  0.12579  0  1.059822  0
H  H32  1  0.91404548  0.86027014  0.93953269  1  0.04583  0  0.08501  0.129729  0  1.013066  0
H  H33  1  0.08596757  0.06044466  0.13971318  1  0.050118  0  0.085014  0.12971  0  1.01312  0
H  H34  1  0.08593693  0.13972947  0.06047632  1  0.045938  0  0.085033  0.129687  0  1.013133  0
H  H35  1  0.91402033  0.93955443  0.86027799  1  0.050382  0  0.085037  0.129817  0  1.013051  0
H  H36  1  0.32113442  0.13081142  0.22682458  1  0.071228  0  0.094339  0.14177  0  0.988949  0
H  H37  1  0.67888648  0.77315820  0.86917634  1  0.073418  0  0.094221  0.141641  0  0.989001  0
H  H38  1  0.67887842  0.86918522  0.77317146  1  0.071153  0  0.094284  0.141703  0  0.989034  0
H  H39  1  0.32111125  0.22684864  0.13082868  1  0.073285  0  0.094222  0.141658  0  0.988968  0
H  H40  1  0.42270547  0.10337903  0.29551835  1  0.063134  0  0.092391  0.143563  0  1.014141  0
H  H41  1  0.57730600  0.70447547  0.89661424  1  0.062969  0  0.092326  0.14347  0  1.014104  0
H  H42  1  0.57730331  0.89661499  0.70447926  1  0.063037  0  0.092316  0.143523  0  1.014081  0
H  H43  1  0.42269477  0.29552494  0.10338650  1  0.062933  0  0.09236  0.143543  0  1.014137  0
H  H44  1  0.28989531  0.02733889  0.23644815  1  0.101606  0  0.097793  0.154404  0  1.024376  0
H  H45  1  0.71012004  0.76353777  0.97265540  1  0.101571  0  0.09777  0.154297  0  1.024584  0
H  H46  1  0.71011396  0.97265967  0.76354699  1  0.101842  0  0.097783  0.154347  0  1.024548  0
H  H47  1  0.28987929  0.23646326  0.02734894  1  0.101807  0  0.097779  0.154354  0  1.024536  0
H  H48  1  0.46566739  0.74808537  0.48365246  1  0.036007  0  0.090355  0.133276  0  1.007432  0
H  H49  1  0.53432438  0.51636314  0.25191972  1  0.03631  0  0.090407  0.133367  0  1.007376  0
H  H50  1  0.53433070  0.25192279  0.51634777  1  0.036035  0  0.090346  0.133267  0  1.007333  0
H  H51  1  0.46565286  0.48366686  0.74808234  1  0.035705  0  0.090301  0.133162  0  1.007181  0
H  H52  1  0.49744922  0.75292886  0.38472780  1  0.065657  0  0.096059  0.148554  0  1.014475  0
H  H53  1  0.50256181  0.61528483  0.24706793  1  0.066274  0  0.096064  0.148606  0  1.014408  0
H  H54  1  0.50255745  0.24707484  0.61527004  1  0.065712  0  0.096064  0.148563  0  1.014498  0
H  H55  1  0.49744102  0.38474541  0.75291997  1  0.065921  0  0.096074  0.148417  0  1.014413  0
H  H56  1  0.37763155  0.67476848  0.38100695  1  0.048942  0  0.100068  0.152801  0  0.974313  0
H  H57  1  0.62237021  0.61900743  0.32523413  1  0.049103  0  0.100076  0.152773  0  0.974371  0
H  H58  1  0.62237128  0.32523070  0.61898710  1  0.048917  0  0.100031  0.152739  0  0.974384  0
H  H59  1  0.37761792  0.38102588  0.67476618  1  0.048661  0  0.100067  0.152765  0  0.974246  0
H  H60  1  0.80347755  0.06646532  0.45716655  1  0.085284  0  0.083941  0.128645  0  1.044817  0
H  H61  1  0.19653189  0.54282888  0.93352394  1  0.111147  0  0.083945  0.128608  0  1.044812  0
H  H62  1  0.19653258  0.93353323  0.54283340  1  0.084994  0  0.083936  0.128594  0  1.044859  0
H  H63  1  0.80347490  0.45716713  0.06646118  1  0.084988  0  0.08396  0.128668  0  1.044823  0
H  H64  1  0.80409729  0.05688629  0.34781126  1  0.089668  0  0.0932  0.148986  0  1.007994  0
H  H65  1  0.19591434  0.65218409  0.94310247  1  0.089929  0  0.093179  0.14895  0  1.007912  0
H  H66  1  0.19592266  0.94310908  0.65219044  1  0.089964  0  0.093212  0.148935  0  1.007964  0
H  H67  1  0.80408825  0.34781448  0.05688426  1  0.089883  0  0.093238  0.148958  0  1.008023  0
H  H68  1  0.73818194  0.96565118  0.36718656  1  0.082438  0  0.0921  0.144572  0  1.018799  0
H  H69  1  0.26182447  0.63280739  0.03433856  1  0.082603  0  0.092115  0.144518  0  1.018971  0
H  H70  1  0.26184047  0.03434422  0.63281130  1  0.082601  0  0.092116  0.144522  0  1.018883  0
H  H71  1  0.73817386  0.36718791  0.96564890  1  0.082393  0  0.092137  0.144672  0  1.018763  0
Pb  Pb72  1  0.49999257  0.85625624  0.14370072  1  1.400088  0  0.572806  0.981288  0  2.176754  0
Pb  Pb73  1  0.49998173  0.14373304  0.85629491  1  1.400088  0  0.572865  0.981497  0  2.176454  0
Pb  Pb74  1  0.19111317  0.80679771  0.22083589  1  1.40472  0  0.640225  1.060945  0  1.839789  0
Pb  Pb75  1  0.80890247  0.77917228  0.19320342  1  1.404808  0  0.64023  1.060825  0  1.839645  0
Pb  Pb76  1  0.80888710  0.19320658  0.77916675  1  1.404627  0  0.64022  1.060881  0  1.839714  0
Pb  Pb77  1  0.19109814  0.22081066  0.80680117  1  1.405029  0  0.640253  1.060984  0  1.839526  0
C  C78  1  0.08429369  0.92118199  0.34739580  1  1.594227  0  0.20493  0.553932  0  4.296127  0
C  C79  1  0.91575584  0.65261946  0.07882514  1  1.592612  0  0.204922  0.553936  0  4.296328  0
C  C80  1  0.91571512  0.07882041  0.65260654  1  1.59354  0  0.204869  0.553821  0  4.296319  0
C  C81  1  0.08423297  0.34736864  0.92116639  1  1.592048  0  0.204968  0.554054  0  4.295944  0
C  C82  1  0.97871624  0.90884926  0.45949770  1  -0.052766  0  -0.00313  0.004569  0  3.967634  0
C  C83  1  0.02130335  0.54050122  0.09114985  1  -0.052483  0  -0.003096  0.004742  0  3.967941  0
C  C84  1  0.02130010  0.09115899  0.54050873  1  -0.052405  0  -0.003122  0.004645  0  3.96778  0
C  C85  1  0.97868882  0.45948433  0.90883879  1  -0.052647  0  -0.003111  0.004693  0  3.967918  0
C  C86  1  0.03865475  0.96263161  0.42551318  1  -0.03865  0  -0.004931  -0.076336  0  3.929599  0
C  C87  1  0.96137103  0.57449339  0.03737242  1  -0.038515  0  -0.005009  -0.076521  0  3.92961  0
C  C88  1  0.96136645  0.03737343  0.57449501  1  -0.039449  0  -0.004972  -0.0764  0  3.929476  0
C  C89  1  0.03862713  0.42550125  0.96261774  1  -0.038718  0  -0.005028  -0.076554  0  3.929551  0
C  C90  1  0.06148178  0.05309276  0.46591323  1  -0.080165  0  -0.000814  0.022119  0  3.93237  0
C  C91  1  0.93851922  0.53408265  0.94690672  1  -0.079919  0  -0.00071  0.022277  0  3.932318  0
C  C92  1  0.93853009  0.94691158  0.53409191  1  -0.08019  0  -0.000752  0.022212  0  3.93234  0
C  C93  1  0.06147910  0.46590679  0.05308811  1  -0.080221  0  -0.000738  0.022191  0  3.932217  0
C  C94  1  0.02709902  0.75754527  0.47919456  1  -0.184545  0  -0.228177  -0.376243  0  3.887114  0
C  C95  1  0.97290745  0.52080524  0.24245031  1  -0.184524  0  -0.228145  -0.376163  0  3.887005  0
C  C96  1  0.97290235  0.24245453  0.52080132  1  -0.184473  0  -0.228173  -0.376134  0  3.88683  0
C  C97  1  0.02709326  0.47918683  0.75753982  1  -0.184342  0  -0.228182  -0.37611  0  3.887115  0
C  C98  1  0.28495038  0.12072398  0.47500772  1  -0.190138  0  -0.231379  -0.393145  0  3.88367  0
C  C99  1  0.71507314  0.52499373  0.87927046  1  -0.190631  0  -0.231244  -0.392806  0  3.883651  0
C  C100  1  0.71506685  0.87926489  0.52499551  1  -0.189831  0  -0.231236  -0.392969  0  3.883794  0
C  C101  1  0.28493369  0.47499385  0.12072053  1  -0.190335  0  -0.231394  -0.393154  0  3.883887  0
C  C102  1  0.23704075  0.87159236  0.08015927  1  1.561092  0  0.2138  0.558055  0  4.24739  0
C  C103  1  0.76299945  0.91983166  0.12838629  1  1.561019  0  0.213732  0.557763  0  4.248176  0
C  C104  1  0.76296549  0.12840423  0.91983897  1  1.560307  0  0.213865  0.55806  0  4.247316  0
C  C105  1  0.23694886  0.08020821  0.87166672  1  1.5608  0  0.214425  0.559077  0  4.246572  0
C  C106  1  0.16325991  0.89295339  0.94370457  1  0.026483  0  0.001544  0.024485  0  3.938571  0
C  C107  1  0.83674247  0.05629731  0.10704158  1  -0.123846  0  0.001445  0.024177  0  3.93857  0
C  C108  1  0.83672442  0.10705015  0.05629603  1  0.029383  0  0.00139  0.024123  0  3.938707  0
C  C109  1  0.16324009  0.94371138  0.89296240  1  -0.121942  0  0.001409  0.024014  0  3.938533  0
C  C110  1  0.24164229  0.92389358  0.02405413  1  0.042846  0  -0.00562  -0.077126  0  3.938652  0
C  C111  1  0.75838016  0.97593745  0.07609028  1  0.043149  0  -0.005646  -0.076911  0  3.938779  0
C  C112  1  0.75835209  0.07610488  0.97594344  1  0.042624  0  -0.005539  -0.076872  0  3.938436  0
C  C113  1  0.24160554  0.02407060  0.92391619  1  0.04335  0  -0.005692  -0.077158  0  3.939342  0
C  C114  1  0.32215112  0.00314966  0.05393001  1  -0.066333  0  -0.007186  0.004097  0  3.959908  0
C  C115  1  0.67785833  0.94607378  0.99684388  1  -0.221863  0  -0.007316  0.003949  0  3.959964  0
C  C116  1  0.67784743  0.99684879  0.94607274  1  -0.065727  0  -0.007168  0.00411  0  3.959669  0
C  C117  1  0.32213148  0.05392591  0.00315775  1  -0.221149  0  -0.007257  0.004164  0  3.959888  0
C  C118  1  0.95804435  0.81876899  0.96353465  1  -0.176417  0  -0.236799  -0.385541  0  3.901862  0
C  C119  1  0.04196495  0.03644718  0.18121681  1  -0.17514  0  -0.236749  -0.385532  0  3.902306  0
C  C120  1  0.04194655  0.18122877  0.03646641  1  -0.17666  0  -0.236889  -0.385571  0  3.902185  0
C  C121  1  0.95802412  0.96355577  0.81877821  1  -0.174884  0  -0.236881  -0.38583  0  3.902139  0
C  C122  1  0.35645320  0.07804830  0.23533862  1  -0.16419  0  -0.225675  -0.378072  0  3.865595  0
C  C123  1  0.64356927  0.76465014  0.92194196  1  -0.164105  0  -0.225457  -0.377714  0  3.865429  0
C  C124  1  0.64355946  0.92194770  0.76465776  1  -0.164199  0  -0.22559  -0.377974  0  3.865652  0
C  C125  1  0.35643228  0.23535286  0.07806096  1  -0.163725  0  -0.225516  -0.377871  0  3.865473  0
C  C126  1  0.48014301  0.89401290  0.32146805  1  1.55792  0  0.206334  0.553056  0  4.273392  0
C  C127  1  0.51984794  0.67852328  0.10599088  1  1.558226  0  0.206588  0.553477  0  4.272542  0
C  C128  1  0.51987991  0.10597863  0.67852968  1  1.558418  0  0.206228  0.552905  0  4.27374  0
C  C129  1  0.48012247  0.32147750  0.89402488  1  1.558119  0  0.206369  0.552946  0  4.273344  0
C  C130  1  0.42913067  0.91526299  0.46481070  1  -0.122728  0  0.000338  0.020065  0  3.944049  0
C  C131  1  0.57088072  0.53519508  0.08474397  1  -0.122125  0  0.000411  0.020081  0  3.944252  0
C  C132  1  0.57087823  0.08474268  0.53518573  1  -0.122093  0  0.000338  0.01998  0  3.944169  0
C  C133  1  0.42912857  0.46481439  0.91526623  1  -0.122425  0  0.000436  0.020168  0  3.944189  0
C  C134  1  0.48855374  0.94790445  0.41434633  1  0.073825  0  -0.003328  -0.072549  0  3.938131  0
C  C135  1  0.51145477  0.58564710  0.05209341  1  0.07301  0  -0.003418  -0.072635  0  3.93806  0
C  C136  1  0.51146387  0.05209159  0.58564768  1  0.072581  0  -0.003371  -0.072396  0  3.93787  0
C  C137  1  0.48853894  0.41435455  0.94790993  1  0.072566  0  -0.003397  -0.072446  0  3.938165  0
C  C138  1  0.55891362  0.03192449  0.44787834  1  -0.08261  0  0.000333  0.014179  0  3.943593  0
C  C139  1  0.44109807  0.55212349  0.96807233  1  -0.081825  0  0.000312  0.014128  0  3.9437  0
C  C140  1  0.44110504  0.96807218  0.55212013  1  -0.082029  0  0.000293  0.014081  0  3.943595  0
C  C141  1  0.55890452  0.44788601  0.03192592  1  -0.082566  0  0.000226  0.014032  0  3.943543  0
C  C142  1  0.42989238  0.74071329  0.41720980  1  -0.120309  0  -0.227241  -0.394974  0  3.910547  0
C  C143  1  0.57011409  0.58280147  0.25928741  1  -0.121469  0  -0.227286  -0.395067  0  3.910609  0
C  C144  1  0.57011333  0.25928718  0.58278680  1  -0.120406  0  -0.227236  -0.394918  0  3.910414  0
C  C145  1  0.42988002  0.41722413  0.74071144  1  -0.119966  0  -0.227211  -0.394615  0  3.910045  0
C  C146  1  0.75632675  0.03623025  0.38950597  1  -0.18085  0  -0.233056  -0.377212  0  3.859518  0
C  C147  1  0.24368444  0.61049178  0.96376099  1  -0.207419  0  -0.233071  -0.377137  0  3.859342  0
C  C148  1  0.24369051  0.96376446  0.61049343  1  -0.181283  0  -0.233184  -0.377177  0  3.859555  0
C  C149  1  0.75632040  0.38950873  0.03622845  1  -0.180846  0  -0.233227  -0.377438  0  3.859501  0
S  S150  1  0.95135759  0.79498247  0.40332164  1  0.013996  0  -0.025067  -0.071809  0  2.84854  0
S  S151  1  0.04866347  0.59667683  0.20501642  1  0.013624  0  -0.025139  -0.071964  0  2.848654  0
S  S152  1  0.04864641  0.20502057  0.59667744  1  0.014141  0  -0.025081  -0.071867  0  2.848597  0
S  S153  1  0.95133922  0.40331074  0.79497293  1  0.013793  0  -0.025076  -0.071896  0  2.848559  0
S  S154  1  0.14219458  0.11804830  0.42291982  1  0.044327  0  -0.007398  0.016214  0  2.740695  0
S  S155  1  0.85782851  0.57708450  0.88195464  1  0.044796  0  -0.007454  0.016128  0  2.740925  0
S  S156  1  0.85782445  0.88196061  0.57708831  1  0.04467  0  -0.007442  0.016173  0  2.74102  0
S  S157  1  0.14217411  0.42290564  0.11803561  1  0.044528  0  -0.007398  0.016224  0  2.740971  0
S  S158  1  0.06873139  0.78962425  0.90770641  1  0.037936  0  -0.036652  -0.024633  0  2.725641  0
S  S159  1  0.93128991  0.09228903  0.21036560  1  0.037148  0  -0.036699  -0.024635  0  2.725554  0
S  S160  1  0.93125744  0.21038064  0.09229103  1  0.038296  0  -0.036616  -0.024592  0  2.725689  0
S  S161  1  0.06870358  0.90772039  0.78963397  1  0.037914  0  -0.036583  -0.024433  0  2.725454  0
S  S162  1  0.42984308  0.03547710  0.15068230  1  0.034493  0  0.002906  -0.016325  0  2.865025  0
S  S163  1  0.57017712  0.84930891  0.96450226  1  0.03413  0  0.002887  -0.01644  0  2.864811  0
S  S164  1  0.57016039  0.96451303  0.84931158  1  0.03421  0  0.002926  -0.016354  0  2.864723  0
S  S165  1  0.42981898  0.15068949  0.03550668  1  0.033025  0  0.002911  -0.016478  0  2.864725  0
S  S166  1  0.33367802  0.81132701  0.41622234  1  0.059565  0  0.002676  -0.012777  0  2.860029  0
S  S167  1  0.66633370  0.58378145  0.18867579  1  0.059386  0  0.002716  -0.012701  0  2.860125  0
S  S168  1  0.66632952  0.18867413  0.58377234  1  0.059174  0  0.002759  -0.012704  0  2.860072  0
S  S169  1  0.33367155  0.41622285  0.81132977  1  0.059236  0  0.002663  -0.012911  0  2.859828  0
S  S170  1  0.62388438  0.07021303  0.37729199  1  0.031756  0  -0.022304  -0.013915  0  2.743778  0
S  S171  1  0.37613509  0.62270631  0.92978547  1  0.032155  0  -0.022244  -0.013865  0  2.743841  0
S  S172  1  0.37613252  0.92977784  0.62270011  1  0.032022  0  -0.022175  -0.013739  0  2.743773  0
S  S173  1  0.62387587  0.37730063  0.07021694  1  0.032029  0  -0.022177  -0.013729  0  2.743627  0
O  O174  1  0.01805060  0.88668422  0.27278184  1  -1.184729  0  -0.287106  -0.553018  0  2.259975  0
O  O175  1  0.98200121  0.72722482  0.11330734  1  -1.184215  0  -0.287115  -0.55297  0  2.260455  0
O  O176  1  0.98195463  0.11331170  0.72721900  1  -1.183859  0  -0.287048  -0.552896  0  2.26027  0
O  O177  1  0.01799205  0.27276133  0.88669342  1  -1.184298  0  -0.287062  -0.553015  0  2.260516  0
O  O178  1  0.28844623  0.81104820  0.06974892  1  -1.180357  0  -0.294139  -0.567254  0  2.304409  0
O  O179  1  0.71156712  0.93023380  0.18892460  1  -1.17998  0  -0.294213  -0.567263  0  2.304464  0
O  O180  1  0.71154603  0.18894316  0.93024414  1  -1.180058  0  -0.294229  -0.567395  0  2.304171  0
O  O181  1  0.28839209  0.06982952  0.81111194  1  -1.179031  0  -0.294994  -0.568416  0  2.302509  0
O  O182  1  0.17944682  0.89453620  0.13764385  1  -1.123507  0  -0.2684  -0.477385  0  2.209016  0
O  O183  1  0.82058707  0.86234884  0.10544485  1  -1.124158  0  -0.268237  -0.477015  0  2.209371  0
O  O184  1  0.82057496  0.10547078  0.86236568  1  -1.123365  0  -0.268414  -0.477229  0  2.209013  0
O  O185  1  0.17936128  0.13767421  0.89461167  1  -1.125243  0  -0.268131  -0.477315  0  2.210172  0
O  O186  1  0.56007809  0.85847905  0.30235371  1  -1.145208  0  -0.285688  -0.507435  0  2.163137  0
O  O187  1  0.43991961  0.69762859  0.14153246  1  -1.145198  0  -0.28579  -0.507607  0  2.163158  0
O  O188  1  0.43993983  0.14151248  0.69763874  1  -1.144998  0  -0.285622  -0.507404  0  2.163177  0
O  O189  1  0.56005785  0.30235670  0.85848806  1  -1.144762  0  -0.285644  -0.5074  0  2.163083  0
O  O190  1  0.39443034  0.89215559  0.26491435  1  -1.186724  0  -0.294638  -0.577412  0  2.35391  0
O  O191  1  0.60557025  0.73508406  0.10785306  1  -1.186728  0  -0.294688  -0.577574  0  2.353397  0
O  O192  1  0.60558181  0.10782747  0.73508155  1  -1.187098  0  -0.294573  -0.577385  0  2.354315  0
O  O193  1  0.39441736  0.26492964  0.89218510  1  -1.186845  0  -0.294662  -0.577365  0  2.354142  0
O  O194  1  0.18936567  0.91993531  0.36136567  1  -1.136117  0  -0.285563  -0.521865  0  2.246728  0
O  O195  1  0.81067786  0.63865633  0.08007736  1  -1.134944  0  -0.285494  -0.521804  0  2.246281  0
O  O196  1  0.81063979  0.08006710  0.63863100  1  -1.13585  0  -0.28557  -0.521913  0  2.246598  0
O  O197  1  0.18931380  0.36133310  0.91991259  1  -1.134693  0  -0.285625  -0.521917  0  2.245907  0
