# generated using pymatgen
data_CdH6C9O5
_symmetry_space_group_name_H-M   'P 1'
_cell_length_a   6.55888900
_cell_length_b   7.72726766
_cell_length_c   16.95247930
_cell_angle_alpha   89.99961859
_cell_angle_beta   90.00013300
_cell_angle_gamma   107.78100514
_symmetry_Int_Tables_number   1
_chemical_formula_structural   CdH6C9O5
_chemical_formula_sum   'Cd4 H24 C36 O20'
_cell_volume   818.14754562
_cell_formula_units_Z   4
loop_
 _symmetry_equiv_pos_site_id
 _symmetry_equiv_pos_as_xyz
  1  'x, y, z'
loop_
 _atom_site_type_symbol
 _atom_site_label
 _atom_site_symmetry_multiplicity
 _atom_site_fract_x
 _atom_site_fract_y
 _atom_site_fract_z
 _atom_site_occupancy
 _atom_site_hle17_bader_spin_density
 _atom_site_hle17_ddec_charge
 _atom_site_hle17_ddec_spin_density
 _atom_site_hle17_ddec_sum_bond_order
 _atom_site_hle17_magmom
 _atom_site_hse06_10hf_bader_spin_density
 _atom_site_hse06_10hf_ddec_charge
 _atom_site_hse06_10hf_ddec_spin_density
 _atom_site_hse06_10hf_ddec_sum_bond_order
 _atom_site_hse06_10hf_magmom
 _atom_site_hse06_bader_spin_density
 _atom_site_hse06_ddec_charge
 _atom_site_hse06_ddec_spin_density
 _atom_site_hse06_ddec_sum_bond_order
 _atom_site_hse06_magmom
 _atom_site_pbe_bader_spin_density
 _atom_site_pbe_cm5_charge
 _atom_site_pbe_ddec_charge
 _atom_site_pbe_ddec_spin_density
 _atom_site_pbe_ddec_sum_bond_order
 _atom_site_pbe_magmom
Cd  Cd0  1  0.90317385  0.21660041  0.52691240  1  0  1.28312  0  1.565506  0  0  1.106357  0  2.016527  0  0  1.165117  0  1.955734  0  0  0.803303  1.063823  0  2.058787  0
Cd  Cd1  1  0.59682939  0.78340440  0.02691314  1  0  1.283183  0  1.565599  0  0  1.106408  0  2.016619  0  0  1.165165  0  1.95583  0  0  0.803338  1.063875  0  2.058879  0
Cd  Cd2  1  0.09682599  0.78340062  0.47308717  1  0  1.283171  0  1.565515  0  0  1.106421  0  2.016539  0  0  1.16518  0  1.955745  0  0  0.803345  1.063887  0  2.0588  0
Cd  Cd3  1  0.40317152  0.21659529  0.97308702  1  0  1.28317  0  1.565643  0  0  1.106394  0  2.016668  0  0  1.165152  0  1.955878  0  0  0.803326  1.063862  0  2.05893  0
H  H4  1  0.78013959  0.87282182  0.76641849  1  0  0.108146  0  0.954427  0  0  0.114056  0  1.024831  0  0  0.117989  0  1.021172  0  0  0.108143  0.111208  0  1.027484  0
H  H5  1  0.71985779  0.12717543  0.26641722  1  0  0.108143  0  0.954391  0  0  0.114089  0  1.024771  0  0  0.118024  0  1.021109  0  0  0.108176  0.111246  0  1.027413  0
H  H6  1  0.21985460  0.12718049  0.23358167  1  0  0.108161  0  0.95443  0  0  0.114081  0  1.024831  0  0  0.118014  0  1.021171  0  0  0.108167  0.111237  0  1.027473  0
H  H7  1  0.28014311  0.87282426  0.73358294  1  0  0.108136  0  0.954408  0  0  0.114079  0  1.024788  0  0  0.118014  0  1.021125  0  0  0.108172  0.111234  0  1.027435  0
H  H8  1  0.52651484  0.29271377  0.79257413  1  0  0.108699  0  0.973696  0  0  0.116426  0  1.041907  0  0  0.12012  0  1.038669  0  0  0.104957  0.113798  0  1.044155  0
H  H9  1  0.97348350  0.70728582  0.29257192  1  0  0.108701  0  0.973748  0  0  0.116399  0  1.041985  0  0  0.120093  0  1.038744  0  0  0.104963  0.113769  0  1.044233  0
H  H10  1  0.47349207  0.70729005  0.20742720  1  0  0.108704  0  0.973663  0  0  0.116422  0  1.041884  0  0  0.120115  0  1.038645  0  0  0.104967  0.113793  0  1.044132  0
H  H11  1  0.02651588  0.29271385  0.70742706  1  0  0.108697  0  0.973742  0  0  0.11642  0  1.041953  0  0  0.120114  0  1.038711  0  0  0.104961  0.11379  0  1.044201  0
H  H12  1  0.63630814  0.52942317  0.56090387  1  0  0.106258  0  0.956538  0  0  0.11221  0  1.027311  0  0  0.116312  0  1.02338  0  0  0.103516  0.109215  0  1.030244  0
H  H13  1  0.86370384  0.47057990  0.06090287  1  0  0.106349  0  0.956577  0  0  0.112306  0  1.027357  0  0  0.116409  0  1.023429  0  0  0.10356  0.10931  0  1.030292  0
H  H14  1  0.36369124  0.47057650  0.43909628  1  0  0.106323  0  0.95659  0  0  0.112276  0  1.027354  0  0  0.116377  0  1.023423  0  0  0.103564  0.109279  0  1.030286  0
H  H15  1  0.13629919  0.52941711  0.93909729  1  0  0.106362  0  0.956532  0  0  0.112316  0  1.027313  0  0  0.116418  0  1.023384  0  0  0.103578  0.109322  0  1.030248  0
H  H16  1  0.52098237  0.10454834  0.67477926  1  0  0.068287  0  0.925162  0  0  0.083208  0  0.987068  0  0  0.083774  0  0.985997  0  0  0.104231  0.082672  0  0.988015  0
H  H17  1  0.97902296  0.89545573  0.17477706  1  0  0.068226  0  0.925075  0  0  0.083126  0  0.986987  0  0  0.083694  0  0.985914  0  0  0.104168  0.082588  0  0.987935  0
H  H18  1  0.47902101  0.89545409  0.32522149  1  0  0.068234  0  0.92511  0  0  0.083142  0  0.987031  0  0  0.083708  0  0.985958  0  0  0.10419  0.082605  0  0.987979  0
H  H19  1  0.02098148  0.10454535  0.82522192  1  0  0.068209  0  0.925065  0  0  0.08311  0  0.987008  0  0  0.083676  0  0.985939  0  0  0.104175  0.082574  0  0.987956  0
H  H20  1  0.29949901  0.16545945  0.63756622  1  0  0.07251  0  0.921496  0  0  0.087241  0  0.986197  0  0  0.087302  0  0.98543  0  0  0.107988  0.087065  0  0.98691  0
H  H21  1  0.20050643  0.83454272  0.13756335  1  0  0.072473  0  0.921518  0  0  0.087181  0  0.98622  0  0  0.087264  0  0.985427  0  0  0.107969  0.087005  0  0.986933  0
H  H22  1  0.70050284  0.83454296  0.36243630  1  0  0.0725  0  0.921509  0  0  0.087203  0  0.986225  0  0  0.087267  0  0.985452  0  0  0.107972  0.087027  0  0.986939  0
H  H23  1  0.79949307  0.16545290  0.86243562  1  0  0.072473  0  0.921489  0  0  0.087213  0  0.986173  0  0  0.087285  0  0.985392  0  0  0.107968  0.087038  0  0.986887  0
H  H24  1  0.43270890  0.18186732  0.52081519  1  0  0.396819  0  0.896849  0  0  0.371556  0  0.965142  0  0  0.381922  0  0.952555  0  0  0.302022  0.364216  0  0.973191  0
H  H25  1  0.06729154  0.81813104  0.02081284  1  0  0.396863  0  0.896746  0  0  0.371603  0  0.965033  0  0  0.381967  0  0.952481  0  0  0.302045  0.364262  0  0.973085  0
H  H26  1  0.56728895  0.81813233  0.47918615  1  0  0.39681  0  0.896857  0  0  0.371546  0  0.965153  0  0  0.381912  0  0.952567  0  0  0.30201  0.364206  0  0.973203  0
H  H27  1  0.93270844  0.18186593  0.97918614  1  0  0.396822  0  0.896839  0  0  0.371565  0  0.965119  0  0  0.381929  0  0.952542  0  0  0.302011  0.364224  0  0.97317  0
C  C28  1  0.79873239  0.88035954  0.60697750  1  0  0.668014  0  3.865076  0  0  0.613463  0  4.152843  0  0  0.649444  0  4.145974  0  0  0.212107  0.588947  0  4.156734  0
C  C29  1  0.70127043  0.11964276  0.10697683  1  0  0.668069  0  3.865048  0  0  0.613491  0  4.152852  0  0  0.649468  0  4.145986  0  0  0.21207  0.588974  0  4.156744  0
C  C30  1  0.20127005  0.11964016  0.39302030  1  0  0.667824  0  3.865275  0  0  0.613315  0  4.153  0  0  0.649277  0  4.146161  0  0  0.212035  0.588816  0  4.156866  0
C  C31  1  0.29873107  0.88035423  0.89302215  1  0  0.668018  0  3.865237  0  0  0.6135  0  4.152952  0  0  0.64946  0  4.146105  0  0  0.212068  0.588986  0  4.156839  0
C  C32  1  0.71877597  0.71817924  0.65836960  1  0  -0.078969  0  3.773647  0  0  -0.053867  0  4.013103  0  0  -0.065006  0  4.0374  0  0  -0.023382  -0.046791  0  3.997016  0
C  C33  1  0.78122642  0.28182097  0.15836969  1  0  -0.079088  0  3.773844  0  0  -0.053943  0  4.013323  0  0  -0.065077  0  4.037622  0  0  -0.023374  -0.046867  0  3.997239  0
C  C34  1  0.28122069  0.28182581  0.34163056  1  0  -0.07889  0  3.773654  0  0  -0.053783  0  4.013112  0  0  -0.064917  0  4.037412  0  0  -0.023303  -0.046714  0  3.99702  0
C  C35  1  0.21877343  0.71818006  0.84162988  1  0  -0.079111  0  3.773877  0  0  -0.053983  0  4.013322  0  0  -0.065116  0  4.037625  0  0  -0.023382  -0.046905  0  3.997239  0
C  C36  1  0.72265033  0.73820811  0.74036289  1  0  -0.044793  0  3.672985  0  0  -0.085847  0  3.926133  0  0  -0.081345  0  3.943831  0  0  -0.070353  -0.088502  0  3.914288  0
C  C37  1  0.77734797  0.26179223  0.24035891  1  0  -0.044755  0  3.673042  0  0  -0.085854  0  3.926217  0  0  -0.081354  0  3.94391  0  0  -0.070392  -0.088508  0  3.914375  0
C  C38  1  0.27735411  0.26179298  0.25963786  1  0  -0.044809  0  3.672897  0  0  -0.085885  0  3.926076  0  0  -0.081383  0  3.94377  0  0  -0.070371  -0.088539  0  3.914233  0
C  C39  1  0.22265140  0.73820744  0.75964066  1  0  -0.044754  0  3.673062  0  0  -0.085845  0  3.92622  0  0  -0.081345  0  3.943915  0  0  -0.070403  -0.0885  0  3.914376  0
C  C40  1  0.65395340  0.58522134  0.78899374  1  0  -0.073228  0  3.773068  0  0  -0.044296  0  4.002829  0  0  -0.055313  0  4.027995  0  0  -0.017199  -0.037311  0  3.986305  0
C  C41  1  0.84603893  0.41477417  0.28899112  1  0  -0.073228  0  3.772865  0  0  -0.044291  0  4.002669  0  0  -0.055326  0  4.02789  0  0  -0.017217  -0.037309  0  3.986146  0
C  C42  1  0.34604385  0.41478101  0.21100760  1  0  -0.073305  0  3.77307  0  0  -0.044365  0  4.002889  0  0  -0.055391  0  4.028082  0  0  -0.017249  -0.037378  0  3.98636  0
C  C43  1  0.15395891  0.58522548  0.71100786  1  0  -0.073265  0  3.772982  0  0  -0.044325  0  4.002768  0  0  -0.055357  0  4.027978  0  0  -0.017211  -0.03734  0  3.986242  0
C  C44  1  0.57918016  0.41248393  0.75492992  1  0  -0.09354  0  3.679816  0  0  -0.126529  0  3.923228  0  0  -0.1251  0  3.943974  0  0  -0.073981  -0.127054  0  3.909224  0
C  C45  1  0.92082016  0.58751758  0.25492744  1  0  -0.093532  0  3.679854  0  0  -0.126487  0  3.923243  0  0  -0.12506  0  3.943983  0  0  -0.073968  -0.127007  0  3.909236  0
C  C46  1  0.42082381  0.58751579  0.24507082  1  0  -0.093483  0  3.679835  0  0  -0.126438  0  3.923242  0  0  -0.12501  0  3.943985  0  0  -0.073972  -0.126963  0  3.909236  0
C  C47  1  0.07917816  0.41248344  0.74507154  1  0  -0.093471  0  3.679923  0  0  -0.126432  0  3.923313  0  0  -0.125004  0  3.944053  0  0  -0.073974  -0.126957  0  3.909308  0
C  C48  1  0.56811760  0.39147204  0.67289770  1  0  0.046899  0  3.731285  0  0  0.07136  0  3.973112  0  0  0.066896  0  3.998028  0  0  -0.015243  0.074078  0  3.956295  0
C  C49  1  0.93188785  0.60852800  0.17289929  1  0  0.046997  0  3.731495  0  0  0.071458  0  3.973271  0  0  0.066999  0  3.998195  0  0  -0.015179  0.074174  0  3.956456  0
C  C50  1  0.43188084  0.60852491  0.32710187  1  0  0.04691  0  3.73125  0  0  0.071321  0  3.973114  0  0  0.066857  0  3.998028  0  0  -0.015224  0.07404  0  3.956296  0
C  C51  1  0.06811093  0.39147437  0.82710028  1  0  0.046912  0  3.731404  0  0  0.071334  0  3.97327  0  0  0.066873  0  3.998191  0  0  -0.015164  0.074057  0  3.956459  0
C  C52  1  0.63986698  0.54452906  0.62483786  1  0  -0.085357  0  3.672312  0  0  -0.122922  0  3.924116  0  0  -0.120948  0  3.942986  0  0  -0.081534  -0.123885  0  3.911472  0
C  C53  1  0.86014279  0.45547984  0.12483572  1  0  -0.085423  0  3.67233  0  0  -0.12305  0  3.924185  0  0  -0.121061  0  3.943006  0  0  -0.081575  -0.124004  0  3.91152  0
C  C54  1  0.36013393  0.45547063  0.37516347  1  0  -0.085398  0  3.672305  0  0  -0.122965  0  3.924138  0  0  -0.120992  0  3.943011  0  0  -0.081599  -0.123931  0  3.911505  0
C  C55  1  0.13985540  0.54452523  0.87516561  1  0  -0.085357  0  3.672088  0  0  -0.122955  0  3.923928  0  0  -0.120969  0  3.942765  0  0  -0.081571  -0.123906  0  3.911247  0
C  C56  1  0.65613026  0.60837640  0.87659623  1  0  0.670371  0  3.900089  0  0  0.617384  0  4.190928  0  0  0.653331  0  4.185136  0  0  0.212445  0.5928  0  4.194245  0
C  C57  1  0.84387119  0.39162203  0.37659250  1  0  0.670407  0  3.900227  0  0  0.617395  0  4.191096  0  0  0.653343  0  4.185296  0  0  0.212542  0.592811  0  4.194406  0
C  C58  1  0.34387618  0.39162607  0.12340452  1  0  0.670424  0  3.900019  0  0  0.617359  0  4.190969  0  0  0.653304  0  4.185178  0  0  0.212424  0.592774  0  4.194284  0
C  C59  1  0.15612866  0.60837900  0.62340766  1  0  0.670379  0  3.900272  0  0  0.617363  0  4.191139  0  0  0.65331  0  4.185341  0  0  0.212532  0.592779  0  4.194449  0
C  C60  1  0.47569332  0.20423831  0.63812781  1  0  0.114026  0  3.63419  0  0  0.049653  0  3.897645  0  0  0.0586  0  3.90249  0  0  -0.06763  0.043641  0  3.894289  0
C  C61  1  0.02430825  0.79575703  0.13812785  1  0  0.114076  0  3.634235  0  0  0.049807  0  3.897538  0  0  0.058739  0  3.902385  0  0  -0.067554  0.043796  0  3.894181  0
C  C62  1  0.52430819  0.79575868  0.36187235  1  0  0.114109  0  3.634118  0  0  0.049819  0  3.897487  0  0  0.058765  0  3.902334  0  0  -0.067537  0.043806  0  3.894132  0
C  C63  1  0.97569266  0.20424266  0.86187113  1  0  0.114144  0  3.634076  0  0  0.049828  0  3.897459  0  0  0.058766  0  3.902306  0  0  -0.067555  0.04381  0  3.894109  0
O  O64  1  0.79217262  0.86006447  0.53086064  1  0  -0.719248  0  2.073419  0  0  -0.641131  0  2.324747  0  0  -0.671048  0  2.310261  0  0  -0.33207  -0.619871  0  2.333848  0
O  O65  1  0.70782429  0.13993073  0.03085991  1  0  -0.719259  0  2.073425  0  0  -0.641145  0  2.324785  0  0  -0.671054  0  2.310284  0  0  -0.332053  -0.619889  0  2.333892  0
O  O66  1  0.20782382  0.13993111  0.46913775  1  0  -0.719297  0  2.07356  0  0  -0.641189  0  2.324874  0  0  -0.671093  0  2.31038  0  0  -0.332149  -0.619937  0  2.333972  0
O  O67  1  0.29217662  0.86006896  0.96913907  1  0  -0.719265  0  2.073505  0  0  -0.641155  0  2.324802  0  0  -0.671071  0  2.310344  0  0  -0.332081  -0.6199  0  2.333907  0
O  O68  1  0.87072960  0.03711862  0.63780971  1  0  -0.618486  0  1.987733  0  0  -0.550249  0  2.232499  0  0  -0.580105  0  2.222334  0  0  -0.306257  -0.529379  0  2.238838  0
O  O69  1  0.62927524  0.96288462  0.13781111  1  0  -0.618518  0  1.987636  0  0  -0.550261  0  2.232399  0  0  -0.58012  0  2.22224  0  0  -0.306277  -0.529393  0  2.238737  0
O  O70  1  0.12926365  0.96288098  0.36218867  1  0  -0.618315  0  1.987578  0  0  -0.550116  0  2.232353  0  0  -0.579962  0  2.222194  0  0  -0.306166  -0.529252  0  2.23868  0
O  O71  1  0.37072780  0.03711239  0.86218905  1  0  -0.618458  0  1.987668  0  0  -0.550251  0  2.232442  0  0  -0.580099  0  2.222282  0  0  -0.30625  -0.529384  0  2.238779  0
O  O72  1  0.69113510  0.77087645  0.90203416  1  0  -0.636236  0  2.010177  0  0  -0.562629  0  2.260092  0  0  -0.595181  0  2.251581  0  0  -0.318789  -0.539654  0  2.265236  0
O  O73  1  0.80886542  0.22911890  0.40203208  1  0  -0.63615  0  2.010062  0  0  -0.562574  0  2.260038  0  0  -0.595127  0  2.251525  0  0  -0.318777  -0.539596  0  2.265178  0
O  O74  1  0.30886981  0.22912600  0.09796659  1  0  -0.636312  0  2.010217  0  0  -0.562666  0  2.260141  0  0  -0.595218  0  2.251631  0  0  -0.31879  -0.539691  0  2.265285  0
O  O75  1  0.19113349  0.77087941  0.59796749  1  0  -0.636201  0  2.010107  0  0  -0.56263  0  2.260096  0  0  -0.595181  0  2.251582  0  0  -0.318816  -0.539653  0  2.265237  0
O  O76  1  0.62502250  0.47195629  0.92224520  1  0  -0.699714  0  2.067391  0  0  -0.631414  0  2.345804  0  0  -0.661552  0  2.330908  0  0  -0.342905  -0.610053  0  2.355488  0
O  O77  1  0.87496875  0.52802512  0.42224403  1  0  -0.699808  0  2.067528  0  0  -0.631508  0  2.345971  0  0  -0.661639  0  2.331073  0  0  -0.343007  -0.610144  0  2.355651  0
O  O78  1  0.37497181  0.52804197  0.07775495  1  0  -0.699715  0  2.067388  0  0  -0.631376  0  2.345802  0  0  -0.66151  0  2.330907  0  0  -0.342905  -0.610015  0  2.355485  0
O  O79  1  0.12503156  0.47197727  0.57775494  1  0  -0.699782  0  2.067552  0  0  -0.631465  0  2.345958  0  0  -0.661597  0  2.331061  0  0  -0.343006  -0.610101  0  2.355638  0
O  O80  1  0.55032775  0.19301849  0.55959127  1  0  -0.593624  0  2.185534  0  0  -0.524049  0  2.441055  0  0  -0.545229  0  2.425254  0  0  -0.409398  -0.508987  0  2.450968  0
O  O81  1  0.94967457  0.80698313  0.05959049  1  0  -0.593686  0  2.185443  0  0  -0.524155  0  2.440982  0  0  -0.54534  0  2.425216  0  0  -0.409425  -0.509095  0  2.450899  0
O  O82  1  0.44967315  0.80698120  0.44040889  1  0  -0.593646  0  2.185557  0  0  -0.524074  0  2.441044  0  0  -0.545255  0  2.425246  0  0  -0.409397  -0.509011  0  2.450958  0
O  O83  1  0.05032587  0.19301520  0.94040967  1  0  -0.593649  0  2.185449  0  0  -0.524105  0  2.440996  0  0  -0.545288  0  2.425203  0  0  -0.409393  -0.509043  0  2.450913  0
