# generated using pymatgen
data_BaH24C16N4O11
_symmetry_space_group_name_H-M   'P 1'
_cell_length_a   10.32076892
_cell_length_b   10.42185749
_cell_length_c   10.75340217
_cell_angle_alpha   76.46667267
_cell_angle_beta   78.95072131
_cell_angle_gamma   84.13284685
_symmetry_Int_Tables_number   1
_chemical_formula_structural   BaH24C16N4O11
_chemical_formula_sum   'Ba2 H48 C32 N8 O22'
_cell_volume   1101.69458783
_cell_formula_units_Z   2
loop_
 _symmetry_equiv_pos_site_id
 _symmetry_equiv_pos_as_xyz
  1  'x, y, z'
loop_
 _atom_site_type_symbol
 _atom_site_label
 _atom_site_symmetry_multiplicity
 _atom_site_fract_x
 _atom_site_fract_y
 _atom_site_fract_z
 _atom_site_occupancy
 _atom_site_hle17_bader_spin_density
 _atom_site_hle17_ddec_charge
 _atom_site_hle17_ddec_spin_density
 _atom_site_hle17_ddec_sum_bond_order
 _atom_site_hle17_magmom
 _atom_site_hse06_10hf_bader_spin_density
 _atom_site_hse06_10hf_ddec_charge
 _atom_site_hse06_10hf_ddec_spin_density
 _atom_site_hse06_10hf_ddec_sum_bond_order
 _atom_site_hse06_10hf_magmom
 _atom_site_hse06_bader_spin_density
 _atom_site_hse06_ddec_charge
 _atom_site_hse06_ddec_spin_density
 _atom_site_hse06_ddec_sum_bond_order
 _atom_site_hse06_magmom
 _atom_site_pbe_bader_spin_density
 _atom_site_pbe_cm5_charge
 _atom_site_pbe_ddec_charge
 _atom_site_pbe_ddec_spin_density
 _atom_site_pbe_ddec_sum_bond_order
 _atom_site_pbe_magmom
Ba  Ba0  1  0.46509416  0.27795998  0.60901056  1  0  1.600468  0  1.13063  0  0  1.434918  0  1.533781  0  0  1.474494  0  1.490579  0  0  0.911573  1.406036  0  1.564635  0
Ba  Ba1  1  0.53490962  0.72203954  0.39099027  1  0  1.600511  0  1.130586  0  0  1.434972  0  1.533721  0  0  1.474546  0  1.490523  0  0  0.911596  1.406101  0  1.56458  0
H  H2  1  0.86136215  0.30860565  0.70442952  1  0  0.322829  0  0.892723  0  0  0.300805  0  0.959662  0  0  0.309836  0  0.951887  0  0  0.320488  0.294431  0  0.965249  0
H  H3  1  0.13864070  0.69139289  0.29557264  1  0  0.322857  0  0.892714  0  0  0.300789  0  0.959699  0  0  0.309833  0  0.951921  0  0  0.32049  0.294417  0  0.96528  0
H  H4  1  0.27475647  0.05852586  0.19536437  1  0  0.333763  0  0.824073  0  0  0.324185  0  0.866991  0  0  0.331665  0  0.861531  0  0  0.353848  0.318493  0  0.871651  0
H  H5  1  0.72523634  0.94147568  0.80463803  1  0  0.333806  0  0.82407  0  0  0.32423  0  0.866993  0  0  0.3317  0  0.861542  0  0  0.353853  0.318534  0  0.871644  0
H  H6  1  0.03972443  0.69275100  0.62767739  1  0  0.386968  0  0.927232  0  0  0.35366  0  1.008168  0  0  0.366828  0  0.990333  0  0  0.2923  0.344461  0  1.017379  0
H  H7  1  0.96027951  0.30724554  0.37232037  1  0  0.386967  0  0.927275  0  0  0.353665  0  1.008172  0  0  0.366834  0  0.990337  0  0  0.292277  0.344466  0  1.017415  0
H  H8  1  0.38005599  0.75986222  0.95819391  1  0  0.389755  0  0.917074  0  0  0.355079  0  0.999924  0  0  0.368211  0  0.986791  0  0  0.296707  0.345912  0  1.008293  0
H  H9  1  0.61994072  0.24014029  0.04180662  1  0  0.38979  0  0.917045  0  0  0.355112  0  0.999897  0  0  0.36824  0  0.986759  0  0  0.296711  0.345947  0  1.008264  0
H  H10  1  0.72677320  0.17642721  0.45792795  1  0  0.413823  0  0.890501  0  0  0.381206  0  0.956991  0  0  0.392479  0  0.940318  0  0  0.286634  0.373309  0  0.968615  0
H  H11  1  0.27323065  0.82357134  0.54207681  1  0  0.413858  0  0.890415  0  0  0.381217  0  0.956952  0  0  0.392489  0  0.940282  0  0  0.286628  0.373322  0  0.968571  0
H  H12  1  0.63454827  0.07376893  0.43433687  1  0  0.420476  0  0.87805  0  0  0.39136  0  0.938831  0  0  0.40209  0  0.923014  0  0  0.294852  0.383637  0  0.950239  0
H  H13  1  0.36545256  0.92623062  0.56566915  1  0  0.420443  0  0.878106  0  0  0.391346  0  0.938849  0  0  0.402075  0  0.923034  0  0  0.294844  0.383627  0  0.950248  0
H  H14  1  0.48661545  0.25703609  0.29081276  1  0  0.424945  0  0.876786  0  0  0.391039  0  0.944084  0  0  0.402455  0  0.927259  0  0  0.295602  0.382934  0  0.956045  0
H  H15  1  0.51338631  0.74296443  0.70919008  1  0  0.424905  0  0.876835  0  0  0.390999  0  0.944135  0  0  0.402415  0  0.92731  0  0  0.295597  0.382893  0  0.956093  0
H  H16  1  0.34956655  0.34092388  0.32764924  1  0  0.422036  0  0.883483  0  0  0.388688  0  0.951076  0  0  0.400177  0  0.93415  0  0  0.297505  0.380517  0  0.963111  0
H  H17  1  0.65043531  0.65907465  0.67235031  1  0  0.422024  0  0.883517  0  0  0.38867  0  0.951115  0  0  0.400161  0  0.934189  0  0  0.297537  0.380501  0  0.963148  0
H  H18  1  0.56881006  0.41516311  0.81320023  1  0  0.417014  0  0.872785  0  0  0.386524  0  0.94225  0  0  0.396756  0  0.926886  0  0  0.299534  0.379259  0  0.953132  0
H  H19  1  0.43118670  0.58483842  0.18680237  1  0  0.41704  0  0.872749  0  0  0.386557  0  0.942208  0  0  0.396783  0  0.92685  0  0  0.299537  0.379294  0  0.953086  0
H  H20  1  0.50892864  0.53404817  0.71826665  1  0  0.416856  0  0.889038  0  0  0.389367  0  0.947803  0  0  0.400128  0  0.932023  0  0  0.296937  0.381706  0  0.959037  0
H  H21  1  0.49107103  0.46595434  0.28173611  1  0  0.416863  0  0.889037  0  0  0.389378  0  0.947795  0  0  0.400138  0  0.932016  0  0  0.296942  0.381717  0  0.959031  0
H  H22  1  0.16157978  0.07784611  0.62270636  1  0  0.108755  0  0.930234  0  0  0.123791  0  0.988742  0  0  0.126132  0  0.987204  0  0  0.111888  0.122157  0  0.989798  0
H  H23  1  0.83841922  0.92215044  0.37729139  1  0  0.108785  0  0.930233  0  0  0.123783  0  0.988753  0  0  0.126123  0  0.987216  0  0  0.111899  0.122155  0  0.989802  0
H  H24  1  0.98843480  0.09115483  0.62582151  1  0  0.105323  0  0.905788  0  0  0.123059  0  0.956579  0  0  0.125151  0  0.955478  0  0  0.105488  0.121423  0  0.957599  0
H  H25  1  0.01156311  0.90884373  0.37418156  1  0  0.105327  0  0.905803  0  0  0.123031  0  0.956605  0  0  0.125122  0  0.955506  0  0  0.105457  0.121398  0  0.957623  0
H  H26  1  0.94659259  0.07275339  0.86528896  1  0  0.046181  0  0.957197  0  0  0.064467  0  1.021737  0  0  0.064454  0  1.023326  0  0  0.081019  0.064268  0  1.021004  0
H  H27  1  0.05341119  0.92724613  0.13471094  1  0  0.046218  0  0.957224  0  0  0.064496  0  1.021774  0  0  0.064488  0  1.02335  0  0  0.081024  0.064303  0  1.02104  0
H  H28  1  0.11735871  0.06913285  0.86525143  1  0  0.055736  0  0.953304  0  0  0.075879  0  1.013343  0  0  0.075736  0  1.015679  0  0  0.086676  0.075645  0  1.01222  0
H  H29  1  0.88264496  0.93086864  0.13474803  1  0  0.055797  0  0.953302  0  0  0.075933  0  1.013345  0  0  0.075795  0  1.015676  0  0  0.08668  0.075704  0  1.012219  0
H  H30  1  0.97970368  0.85755389  0.78692024  1  0  0.095262  0  0.963705  0  0  0.116447  0  1.025969  0  0  0.118146  0  1.025613  0  0  0.082525  0.115178  0  1.0263  0
H  H31  1  0.02030213  0.14244463  0.21308044  1  0  0.09519  0  0.963715  0  0  0.116376  0  1.025986  0  0  0.118073  0  1.025633  0  0  0.082497  0.115108  0  1.026326  0
H  H32  1  0.03501703  0.84006199  0.93682703  1  0  0.089355  0  0.964243  0  0  0.108792  0  1.031474  0  0  0.110211  0  1.031587  0  0  0.082102  0.107806  0  1.03139  0
H  H33  1  0.96498873  0.15993752  0.06317343  1  0  0.08933  0  0.964206  0  0  0.108767  0  1.031443  0  0  0.110186  0  1.03156  0  0  0.082077  0.107785  0  1.031353  0
H  H34  1  0.15053863  0.85328185  0.79014107  1  0  0.099596  0  0.958731  0  0  0.121072  0  1.019923  0  0  0.122319  0  1.020655  0  0  0.086406  0.119997  0  1.019787  0
H  H35  1  0.84946702  0.14671964  0.20985803  1  0  0.099602  0  0.958666  0  0  0.121079  0  1.019859  0  0  0.122327  0  1.02059  0  0  0.086436  0.120014  0  1.019716  0
H  H36  1  0.38522984  0.36539061  0.99224523  1  0  0.116706  0  0.927312  0  0  0.133195  0  0.982154  0  0  0.135568  0  0.980653  0  0  0.109103  0.131356  0  0.983268  0
H  H37  1  0.61476396  0.63461094  0.00775885  1  0  0.116636  0  0.927362  0  0  0.13312  0  0.982214  0  0  0.135493  0  0.980717  0  0  0.109053  0.13128  0  0.983329  0
H  H38  1  0.26099467  0.31030147  0.12829559  1  0  0.098318  0  0.952367  0  0  0.109169  0  1.017462  0  0  0.111528  0  1.016064  0  0  0.097537  0.107454  0  1.018503  0
H  H39  1  0.73899704  0.68970206  0.87170656  1  0  0.098313  0  0.952426  0  0  0.109197  0  1.017477  0  0  0.111559  0  1.016077  0  0  0.097533  0.107483  0  1.018508  0
H  H40  1  0.21972717  0.37645223  0.84488052  1  0  0.054595  0  0.970856  0  0  0.071366  0  1.037552  0  0  0.071466  0  1.0393  0  0  0.093323  0.071352  0  1.03624  0
H  H41  1  0.78027244  0.62355125  0.15511924  1  0  0.05473  0  0.970819  0  0  0.071472  0  1.037562  0  0  0.071571  0  1.03931  0  0  0.093362  0.071459  0  1.036257  0
H  H42  1  0.09389970  0.34514712  0.98236310  1  0  0.046407  0  0.955726  0  0  0.066305  0  1.017982  0  0  0.066553  0  1.019072  0  0  0.083605  0.065838  0  1.017578  0
H  H43  1  0.90609491  0.65485737  0.01763457  1  0  0.046361  0  0.955753  0  0  0.066304  0  1.017986  0  0  0.066553  0  1.019074  0  0  0.083592  0.065838  0  1.017581  0
H  H44  1  0.14943206  0.55468729  0.04291411  1  0  0.091977  0  0.962954  0  0  0.110395  0  1.029418  0  0  0.111604  0  1.029903  0  0  0.07896  0.109619  0  1.028916  0
H  H45  1  0.85056453  0.44531719  0.95708598  1  0  0.091955  0  0.962893  0  0  0.110377  0  1.029373  0  0  0.111589  0  1.029853  0  0  0.078938  0.109601  0  1.028869  0
H  H46  1  0.10131977  0.58777939  0.88769628  1  0  0.088792  0  0.966178  0  0  0.109925  0  1.030159  0  0  0.110552  0  1.031673  0  0  0.082412  0.109284  0  1.029458  0
H  H47  1  0.89867984  0.41222409  0.11230162  1  0  0.088758  0  0.966211  0  0  0.109879  0  1.030203  0  0  0.110496  0  1.031727  0  0  0.082405  0.10924  0  1.029501  0
H  H48  1  0.27078502  0.58204171  0.89990566  1  0  0.102468  0  0.952089  0  0  0.125437  0  1.009834  0  0  0.12732  0  1.009062  0  0  0.087234  0.124004  0  1.010541  0
H  H49  1  0.72921283  0.41795782  0.10009441  1  0  0.102447  0  0.952124  0  0  0.125424  0  1.009849  0  0  0.127309  0  1.009081  0  0  0.087237  0.123992  0  1.01056  0
C  C50  1  0.22346429  0.56709935  0.58351174  1  0  0.659136  0  3.896448  0  0  0.604245  0  4.197951  0  0  0.638757  0  4.188338  0  0  0.234296  0.580745  0  4.203879  0
C  C51  1  0.77654053  0.43289915  0.41648355  1  0  0.659074  0  3.896485  0  0  0.604244  0  4.197932  0  0  0.638754  0  4.18832  0  0  0.234257  0.580746  0  4.203862  0
C  C52  1  0.13116659  0.45849485  0.62390458  1  0  -0.006328  0  3.788482  0  0  -0.012559  0  4.05642  0  0  -0.013449  0  4.075677  0  0  0.084367  -0.011821  0  4.043294  0
C  C53  1  0.86883834  0.54150169  0.37609300  1  0  -0.006124  0  3.788387  0  0  -0.012397  0  4.056373  0  0  -0.013279  0  4.075619  0  0  0.084424  -0.011652  0  4.043246  0
C  C54  1  0.99364480  0.46547170  0.66109361  1  0  -0.017788  0  3.739537  0  0  -0.033195  0  4.005795  0  0  -0.036497  0  4.02674  0  0  0.08148  -0.031113  0  3.991981  0
C  C55  1  0.00635811  0.53452584  0.33890505  1  0  -0.017821  0  3.739591  0  0  -0.033276  0  4.005908  0  0  -0.036561  0  4.026863  0  0  0.081486  -0.031199  0  3.992088  0
C  C56  1  0.89295870  0.57309580  0.67863911  1  0  0.631354  0  3.900583  0  0  0.578047  0  4.210778  0  0  0.611681  0  4.201454  0  0  0.225587  0.555128  0  4.216536  0
C  C57  1  0.10704512  0.42690270  0.32135357  1  0  0.631458  0  3.900235  0  0  0.578165  0  4.210431  0  0  0.611798  0  4.201102  0  0  0.225653  0.555267  0  4.216169  0
C  C58  1  0.06828056  0.25839191  0.65747595  1  0  0.417661  0  3.664471  0  0  0.388709  0  3.944021  0  0  0.404335  0  3.956564  0  0  0.24159  0.378336  0  3.935373  0
C  C59  1  0.93172246  0.74160366  0.34252500  1  0  0.417789  0  3.664474  0  0  0.388816  0  3.943972  0  0  0.40446  0  3.956526  0  0  0.24161  0.378442  0  3.93533  0
C  C60  1  0.06662928  0.11284835  0.67338771  1  0  -0.219174  0  3.684738  0  0  -0.25769  0  3.937044  0  0  -0.260692  0  3.946347  0  0  -0.147954  -0.255714  0  3.930536  0
C  C61  1  0.93337165  0.88714920  0.32661224  1  0  -0.219229  0  3.684809  0  0  -0.257662  0  3.937049  0  0  -0.260661  0  3.946349  0  0  -0.14792  -0.25569  0  3.930541  0
C  C62  1  0.04397440  0.03958285  0.81709222  1  0  -0.042311  0  3.694275  0  0  -0.079893  0  3.959046  0  0  -0.080272  0  3.974781  0  0  -0.166567  -0.079065  0  3.948116  0
C  C63  1  0.95602845  0.96041569  0.18290901  1  0  -0.042459  0  3.69445  0  0  -0.080049  0  3.959171  0  0  -0.08043  0  3.974914  0  0  -0.166584  -0.079227  0  3.948247  0
C  C64  1  0.05269454  0.88980670  0.83359932  1  0  -0.291073  0  3.704191  0  0  -0.36482  0  3.952979  0  0  -0.367903  0  3.964488  0  0  -0.250691  -0.362342  0  3.94491  0
C  C65  1  0.94731028  0.11019183  0.16640154  1  0  -0.290912  0  3.70416  0  0  -0.364664  0  3.952943  0  0  -0.36775  0  3.964456  0  0  -0.250647  -0.362189  0  3.944869  0
C  C66  1  0.39842462  0.94053479  0.80020170  1  0  0.640126  0  3.918329  0  0  0.582861  0  4.226004  0  0  0.616456  0  4.217237  0  0  0.226867  0.559881  0  4.231611  0
C  C67  1  0.60157324  0.05946476  0.19980115  1  0  0.640117  0  3.918173  0  0  0.582923  0  4.225767  0  0  0.616517  0  4.217  0  0  0.226945  0.559955  0  4.23138  0
C  C68  1  0.36532574  0.00932051  0.90961880  1  0  0.001732  0  3.803389  0  0  -0.006376  0  4.075281  0  0  -0.00622  0  4.094562  0  0  0.086217  -0.006498  0  4.062931  0
C  C69  1  0.63467108  0.99068001  0.09038123  1  0  0.001795  0  3.803269  0  0  -0.006361  0  4.07518  0  0  -0.006207  0  4.094465  0  0  0.086235  -0.006512  0  4.062865  0
C  C70  1  0.33135712  0.95653496  0.04261378  1  0  -0.024089  0  3.759046  0  0  -0.040454  0  4.03031  0  0  -0.04412  0  4.050356  0  0  0.078925  -0.038066  0  4.017444  0
C  C71  1  0.66863778  0.04346460  0.95738962  1  0  -0.02398  0  3.758921  0  0  -0.040296  0  4.030155  0  0  -0.043968  0  4.050192  0  0  0.079033  -0.037898  0  4.017281  0
C  C72  1  0.31891698  0.82240915  0.12246266  1  0  0.618269  0  3.924936  0  0  0.565177  0  4.234743  0  0  0.599198  0  4.225005  0  0  0.230405  0.541978  0  4.241002  0
C  C73  1  0.68107977  0.17759236  0.87753529  1  0  0.618294  0  3.925012  0  0  0.565194  0  4.234841  0  0  0.599213  0  4.225099  0  0  0.230363  0.542006  0  4.241083  0
C  C74  1  0.32038461  0.17690547  0.00271553  1  0  0.426699  0  3.655033  0  0  0.395012  0  3.940478  0  0  0.411271  0  3.952659  0  0  0.245315  0.384284  0  3.932138  0
C  C75  1  0.67960919  0.82309607  0.99728669  1  0  0.426713  0  3.654907  0  0  0.395052  0  3.940323  0  0  0.411298  0  3.952506  0  0  0.245291  0.384326  0  3.931982  0
C  C76  1  0.29316254  0.31324419  0.02433262  1  0  -0.227144  0  3.689731  0  0  -0.265202  0  3.940943  0  0  -0.268945  0  3.950951  0  0  -0.154636  -0.262701  0  3.934145  0
C  C77  1  0.70683120  0.68675833  0.97566938  1  0  -0.227085  0  3.689711  0  0  -0.265092  0  3.940793  0  0  -0.268838  0  3.950807  0  0  -0.154564  -0.262591  0  3.933989  0
C  C78  1  0.18973223  0.38979932  0.94478751  1  0  -0.037478  0  3.692379  0  0  -0.073849  0  3.950864  0  0  -0.074345  0  3.966569  0  0  -0.162421  -0.073318  0  3.940058  0
C  C79  1  0.81026348  0.61020319  0.05521227  1  0  -0.037574  0  3.692443  0  0  -0.074037  0  3.951056  0  0  -0.074532  0  3.96676  0  0  -0.162449  -0.073509  0  3.940255  0
C  C80  1  0.17670128  0.53665564  0.94434151  1  0  -0.284648  0  3.700165  0  0  -0.35753  0  3.946224  0  0  -0.360122  0  3.95749  0  0  -0.251119  -0.355198  0  3.938291  0
C  C81  1  0.82329438  0.46334786  0.05565712  1  0  -0.284568  0  3.700148  0  0  -0.357435  0  3.94626  0  0  -0.360021  0  3.957532  0  0  -0.2511  -0.355102  0  3.938323  0
N  N82  1  0.17552026  0.32934514  0.62320528  1  0  -0.473514  0  3.030986  0  0  -0.435672  0  3.306332  0  0  -0.45171  0  3.320723  0  0  -0.36454  -0.424435  0  3.295972  0
N  N83  1  0.82448264  0.67065239  0.37679338  1  0  -0.473705  0  3.030954  0  0  -0.435838  0  3.306293  0  0  -0.451869  0  3.320658  0  0  -0.364605  -0.424602  0  3.295941  0
N  N84  1  0.95731649  0.33791155  0.68086800  1  0  -0.333456  0  3.37751  0  0  -0.278599  0  3.613187  0  0  -0.294736  0  3.627478  0  0  -0.364237  -0.267885  0  3.603826  0
N  N85  1  0.04268839  0.66208599  0.31913216  1  0  -0.333502  0  3.377554  0  0  -0.278558  0  3.613198  0  0  -0.294757  0  3.627543  0  0  -0.36422  -0.267842  0  3.60383  0
N  N86  1  0.35848823  0.14487477  0.88695231  1  0  -0.469587  0  3.028906  0  0  -0.432716  0  3.307145  0  0  -0.449473  0  3.32278  0  0  -0.354996  -0.421334  0  3.296842  0
N  N87  1  0.64150656  0.85512677  0.11304972  1  0  -0.469723  0  3.028938  0  0  -0.432854  0  3.307185  0  0  -0.449615  0  3.322828  0  0  -0.355071  -0.421473  0  3.296906  0
N  N88  1  0.30326697  0.06492974  0.09810772  1  0  -0.334037  0  3.385018  0  0  -0.280682  0  3.622068  0  0  -0.295952  0  3.635162  0  0  -0.35972  -0.270402  0  3.614046  0
N  N89  1  0.69672776  0.93507277  0.90189317  1  0  -0.334143  0  3.384951  0  0  -0.280847  0  3.622039  0  0  -0.296087  0  3.635108  0  0  -0.359781  -0.270562  0  3.613996  0
O  O90  1  0.34434150  0.54024570  0.54552126  1  0  -0.661475  0  1.963464  0  0  -0.594904  0  2.200836  0  0  -0.620395  0  2.191425  0  0  -0.352418  -0.577108  0  2.206938  0
O  O91  1  0.65566453  0.45974885  0.45447564  1  0  -0.661494  0  1.963572  0  0  -0.594957  0  2.200949  0  0  -0.620447  0  2.191535  0  0  -0.352382  -0.577158  0  2.207054  0
O  O92  1  0.17328920  0.68510881  0.58797605  1  0  -0.610021  0  2.032668  0  0  -0.545215  0  2.247156  0  0  -0.571308  0  2.234444  0  0  -0.297241  -0.526869  0  2.25439  0
O  O93  1  0.82671776  0.31488671  0.41201674  1  0  -0.609974  0  2.032604  0  0  -0.545208  0  2.247058  0  0  -0.571304  0  2.234346  0  0  -0.297237  -0.526863  0  2.254305  0
O  O94  1  0.93244717  0.69341890  0.65835874  1  0  -0.552906  0  2.06771  0  0  -0.503972  0  2.286528  0  0  -0.526141  0  2.269303  0  0  -0.328399  -0.48836  0  2.295979  0
O  O95  1  0.06755683  0.30657664  0.34163738  1  0  -0.553012  0  2.067615  0  0  -0.504073  0  2.286399  0  0  -0.526242  0  2.269173  0  0  -0.328456  -0.488463  0  2.295867  0
O  O96  1  0.77442871  0.54755209  0.71293995  1  0  -0.566018  0  1.982705  0  0  -0.515036  0  2.206044  0  0  -0.535846  0  2.194903  0  0  -0.280567  -0.500638  0  2.213199  0
O  O97  1  0.22557516  0.45244539  0.28704645  1  0  -0.566093  0  1.982579  0  0  -0.515108  0  2.205922  0  0  -0.535915  0  2.194772  0  0  -0.280607  -0.500723  0  2.213078  0
O  O98  1  0.40649721  0.00821570  0.68606955  1  0  -0.618022  0  1.979735  0  0  -0.553633  0  2.203012  0  0  -0.578066  0  2.193304  0  0  -0.315589  -0.536416  0  2.209505  0
O  O99  1  0.59350437  0.99178778  0.31392891  1  0  -0.617966  0  1.979833  0  0  -0.553593  0  2.20307  0  0  -0.578029  0  2.193377  0  0  -0.315583  -0.536376  0  2.209568  0
O  O100  1  0.41616547  0.81295221  0.82905987  1  0  -0.608171  0  2.043286  0  0  -0.546245  0  2.264031  0  0  -0.571912  0  2.252646  0  0  -0.303678  -0.528372  0  2.271547  0
O  O101  1  0.58383024  0.18705030  0.17093898  1  0  -0.60824  0  2.043151  0  0  -0.546329  0  2.263875  0  0  -0.571993  0  2.252485  0  0  -0.303748  -0.528453  0  2.271393  0
O  O102  1  0.34746978  0.72372987  0.06271682  1  0  -0.544731  0  2.125234  0  0  -0.485131  0  2.346907  0  0  -0.508925  0  2.333352  0  0  -0.305011  -0.468301  0  2.355038  0
O  O103  1  0.65252495  0.27627265  0.93728499  1  0  -0.544803  0  2.125084  0  0  -0.485205  0  2.346772  0  0  -0.508997  0  2.333217  0  0  -0.305013  -0.468382  0  2.354901  0
O  O104  1  0.28166684  0.80425131  0.24251325  1  0  -0.58167  0  1.923392  0  0  -0.536783  0  2.147169  0  0  -0.556506  0  2.1365  0  0  -0.288795  -0.523376  0  2.154667  0
O  O105  1  0.71832795  0.19575023  0.75749157  1  0  -0.581625  0  1.923671  0  0  -0.536765  0  2.147479  0  0  -0.55649  0  2.136814  0  0  -0.28876  -0.523366  0  2.154974  0
O  O106  1  0.65995058  0.11129463  0.50183478  1  0  -0.884148  0  1.771302  0  0  -0.832941  0  1.93677  0  0  -0.851512  0  1.903704  0  0  -0.644437  -0.819736  0  1.960575  0
O  O107  1  0.34005524  0.88870391  0.49816962  1  0  -0.884143  0  1.771245  0  0  -0.832939  0  1.936731  0  0  -0.851511  0  1.903669  0  0  -0.644432  -0.819742  0  1.960533  0
O  O108  1  0.43573995  0.30602187  0.35514135  1  0  -0.886804  0  1.859916  0  0  -0.821825  0  2.037691  0  0  -0.843146  0  2.003733  0  0  -0.62274  -0.806514  0  2.061584  0
O  O109  1  0.56426070  0.69398063  0.64485937  1  0  -0.886762  0  1.859943  0  0  -0.821779  0  2.037718  0  0  -0.843098  0  2.003746  0  0  -0.622784  -0.806478  0  2.061611  0
O  O110  1  0.49380578  0.44188666  0.76729744  1  0  -0.868791  0  1.833816  0  0  -0.81523  0  2.01454  0  0  -0.835332  0  1.985307  0  0  -0.633557  -0.800834  0  2.035063  0
O  O111  1  0.50619603  0.55811287  0.23270283  1  0  -0.868812  0  1.833805  0  0  -0.815276  0  2.014497  0  0  -0.835368  0  1.985285  0  0  -0.633551  -0.800875  0  2.03502  0
