# generated using pymatgen
data_CdH14C12(N4O)2
_symmetry_space_group_name_H-M   'P 1'
_cell_length_a   8.87044687
_cell_length_b   12.83993508
_cell_length_c   15.19800000
_cell_angle_alpha   68.44373148
_cell_angle_beta   77.25560832
_cell_angle_gamma   73.54084209
_symmetry_Int_Tables_number   1
_chemical_formula_structural   CdH14C12(N4O)2
_chemical_formula_sum   'Cd4 H56 C48 N32 O8'
_cell_volume   1530.72224627
_cell_formula_units_Z   4
loop_
 _symmetry_equiv_pos_site_id
 _symmetry_equiv_pos_as_xyz
  1  'x, y, z'
loop_
 _atom_site_type_symbol
 _atom_site_label
 _atom_site_symmetry_multiplicity
 _atom_site_fract_x
 _atom_site_fract_y
 _atom_site_fract_z
 _atom_site_occupancy
 _atom_site_hle17_bader_spin_density
 _atom_site_hle17_ddec_charge
 _atom_site_hle17_ddec_spin_density
 _atom_site_hle17_ddec_sum_bond_order
 _atom_site_hle17_magmom
 _atom_site_hse06_10hf_bader_spin_density
 _atom_site_hse06_10hf_ddec_charge
 _atom_site_hse06_10hf_ddec_spin_density
 _atom_site_hse06_10hf_ddec_sum_bond_order
 _atom_site_hse06_10hf_magmom
 _atom_site_hse06_bader_spin_density
 _atom_site_hse06_ddec_charge
 _atom_site_hse06_ddec_spin_density
 _atom_site_hse06_ddec_sum_bond_order
 _atom_site_hse06_magmom
 _atom_site_pbe_bader_charge
 _atom_site_pbe_bader_spin_density
 _atom_site_pbe_cm5_charge
 _atom_site_pbe_ddec_charge
 _atom_site_pbe_ddec_spin_density
 _atom_site_pbe_ddec_sum_bond_order
 _atom_site_pbe_magmom
Cd  Cd0  1  0.38898375  0.99765656  0.61378045  1  0  1.002003  0  1.903959  0  0  0.817276  0  2.370152  0  0  0.86268  0  2.333825  0  1.22235  0  0.793424  0.785696  0  2.394463  0
Cd  Cd1  1  0.61101598  0.00234426  0.38621934  1  0  1.002022  0  1.903937  0  0  0.817308  0  2.370098  0  0  0.862712  0  2.333772  0  1.222339  0  0.793441  0.78573  0  2.39441  0
Cd  Cd2  1  0.16325525  0.98674102  0.84377512  1  0  0.994456  0  1.907833  0  0  0.806536  0  2.374896  0  0  0.850604  0  2.33876  0  1.218497  0  0.805335  0.775876  0  2.399217  0
Cd  Cd3  1  0.83674384  0.01325808  0.15622593  1  0  0.994441  0  1.907841  0  0  0.806532  0  2.374878  0  0  0.8506  0  2.338743  0  1.218448  0  0.805327  0.775872  0  2.399197  0
H  H4  1  0.67092836  0.97839136  0.71839324  1  0  0.067093  0  0.957416  0  0  0.074653  0  1.026723  0  0  0.076666  0  1.024939  0  0.067286  0  0.107467  0.073183  0  1.028033  0
H  H5  1  0.32907190  0.02160774  0.28160701  1  0  0.06707  0  0.957423  0  0  0.07463  0  1.026734  0  0  0.076644  0  1.024949  0  0.06727  0  0.107456  0.073161  0  1.028042  0
H  H6  1  0.85755728  0.83405487  0.83002021  1  0  0.1124  0  0.988937  0  0  0.119256  0  1.05561  0  0  0.122137  0  1.055431  0  0.126552  0  0.1019  0.117173  0  1.055921  0
H  H7  1  0.14244298  0.16594423  0.16998136  1  0  0.112441  0  0.988923  0  0  0.11931  0  1.055573  0  0  0.12219  0  1.055393  0  0.126436  0  0.101919  0.117226  0  1.055886  0
H  H8  1  0.69728691  0.56913460  0.78906654  1  0  0.114006  0  0.971049  0  0  0.120208  0  1.038274  0  0  0.124143  0  1.035726  0  0.090864  0  0.107756  0.117362  0  1.040305  0
H  H9  1  0.30271307  0.43086536  0.21093347  1  0  0.114006  0  0.971049  0  0  0.120208  0  1.038275  0  0  0.124142  0  1.035729  0  0.090865  0  0.107757  0.117363  0  1.040305  0
H  H10  1  0.51958261  0.72278628  0.67979191  1  0  0.070004  0  0.969937  0  0  0.077492  0  1.037446  0  0  0.078428  0  1.036965  0  0.095256  0  0.114258  0.076732  0  1.03789  0
H  H11  1  0.48041880  0.27721282  0.32020753  1  0  0.069993  0  0.969924  0  0  0.077511  0  1.03739  0  0  0.078447  0  1.036909  0  0.095354  0  0.114255  0.076749  0  1.037839  0
H  H12  1  0.02338624  0.61276842  0.85904209  1  0  0.061103  0  0.971345  0  0  0.073761  0  1.043589  0  0  0.073776  0  1.042757  0  0.10709  0  0.104297  0.073679  0  1.044278  0
H  H13  1  0.97661260  0.38723154  0.14095873  1  0  0.061101  0  0.971312  0  0  0.073764  0  1.043575  0  0  0.073768  0  1.042754  0  0.107081  0  0.104294  0.073683  0  1.044264  0
H  H14  1  0.87299252  0.62253975  0.95505611  1  0  0.062045  0  0.93453  0  0  0.076234  0  1.001061  0  0  0.076451  0  1.000581  0  0.061761  0  0.100546  0.076034  0  1.001514  0
H  H15  1  0.12700773  0.37745935  0.04494414  1  0  0.062098  0  0.934481  0  0  0.076304  0  1.001007  0  0  0.076521  0  1.000526  0  0.061778  0  0.100583  0.076104  0  1.00146  0
H  H16  1  0.12297679  0.03935075  0.48792696  1  0  0.069892  0  0.951201  0  0  0.078831  0  1.01799  0  0  0.081113  0  1.015773  0  0.086206  0  0.109079  0.0772  0  1.01957  0
H  H17  1  0.87702178  0.96065006  0.51207231  1  0  0.0699  0  0.951225  0  0  0.078842  0  1.018016  0  0  0.081125  0  1.015798  0  0.086202  0  0.109087  0.077209  0  1.019597  0
H  H18  1  0.92738826  0.19689636  0.39002676  1  0  0.107141  0  0.963349  0  0  0.116167  0  1.026026  0  0  0.118106  0  1.027254  0  0.084142  0  0.105195  0.114771  0  1.025329  0
H  H19  1  0.07260774  0.80310532  0.60997389  1  0  0.10716  0  0.963346  0  0  0.116178  0  1.026027  0  0  0.118118  0  1.027255  0  0.084195  0  0.105202  0.114782  0  1.02533  0
H  H20  1  0.07757323  0.43495514  0.47371136  1  0  0.125209  0  0.959944  0  0  0.132728  0  1.022512  0  0  0.136413  0  1.020486  0  0.109431  0  0.113078  0.130056  0  1.02419  0
H  H21  1  0.92242560  0.56504482  0.52628946  1  0  0.125207  0  0.959931  0  0  0.132727  0  1.022497  0  0  0.136412  0  1.020473  0  0.109474  0  0.113083  0.130056  0  1.024175  0
H  H22  1  0.26051128  0.26930814  0.56980842  1  0  0.069961  0  0.966656  0  0  0.077817  0  1.033951  0  0  0.078739  0  1.03376  0  0.073935  0  0.114557  0.077063  0  1.03419  0
H  H23  1  0.73948845  0.73069268  0.43019136  1  0  0.069937  0  0.966661  0  0  0.077794  0  1.033958  0  0  0.078724  0  1.033748  0  0.073929  0  0.11455  0.077041  0  1.034197  0
H  H24  1  0.93009414  0.44619969  0.28661882  1  0  0.059525  0  0.933395  0  0  0.074762  0  0.998534  0  0  0.074928  0  0.997826  0  0.074746  0  0.102322  0.074634  0  0.999144  0
H  H25  1  0.06990470  0.55380027  0.71338134  1  0  0.059525  0  0.933406  0  0  0.074767  0  0.998543  0  0  0.074932  0  0.997835  0  0.074737  0  0.102331  0.074638  0  0.999152  0
H  H26  1  0.76543455  0.40101534  0.36708289  1  0  0.054826  0  0.956742  0  0  0.064224  0  1.030856  0  0  0.064663  0  1.029701  0  0.078905  0  0.096798  0.063919  0  1.031716  0
H  H27  1  0.23456402  0.59898547  0.63291704  1  0  0.054829  0  0.956753  0  0  0.064229  0  1.030868  0  0  0.064669  0  1.029714  0  0.078908  0  0.096801  0.063925  0  1.031726  0
H  H28  1  0.46661483  0.95330288  0.93139794  1  0  0.077617  0  0.938008  0  0  0.086777  0  1.000291  0  0  0.088922  0  0.998347  0  0.117531  0  0.113506  0.085234  0  1.001642  0
H  H29  1  0.53338489  0.04669793  0.06860250  1  0  0.077621  0  0.938026  0  0  0.086779  0  1.000315  0  0  0.088924  0  0.998372  0  0.117549  0  0.113506  0.085234  0  1.001665  0
H  H30  1  0.65461171  0.80710920  0.04080913  1  0  0.107857  0  1.006029  0  0  0.110861  0  1.078028  0  0  0.113839  0  1.077468  0  0.1228  0  0.102618  0.108687  0  1.07864  0
H  H31  1  0.34538854  0.19288990  0.95919046  1  0  0.107858  0  1.006032  0  0  0.110863  0  1.078031  0  0  0.11384  0  1.077471  0  0.122783  0  0.102621  0.108689  0  1.078641  0
H  H32  1  0.40334332  0.55494105  0.05861314  1  0  0.111528  0  0.954114  0  0  0.122103  0  1.014362  0  0  0.124997  0  1.014203  0  0.083953  0  0.108332  0.120015  0  1.014674  0
H  H33  1  0.59665666  0.44505891  0.94138621  1  0  0.11153  0  0.954112  0  0  0.122105  0  1.014367  0  0  0.124995  0  1.014218  0  0.083956  0  0.108326  0.120019  0  1.014668  0
H  H34  1  0.22253350  0.71148762  0.95298242  1  0  0.080489  0  0.957348  0  0  0.084175  0  1.030533  0  0  0.086545  0  1.028008  0  0.136801  0  0.112955  0.082386  0  1.032386  0
H  H35  1  0.77746623  0.28851320  0.04701736  1  0  0.080473  0  0.957355  0  0  0.084166  0  1.030536  0  0  0.086537  0  1.028009  0  0.136791  0  0.112957  0.082376  0  1.032391  0
H  H36  1  0.59352043  0.54021404  0.19308413  1  0  0.078031  0  0.937503  0  0  0.09079  0  1.00323  0  0  0.092122  0  1.001436  0  0.116168  0  0.105936  0.089764  0  1.004579  0
H  H37  1  0.40647841  0.45978591  0.80691537  1  0  0.078001  0  0.937542  0  0  0.090797  0  1.003232  0  0  0.09213  0  1.001438  0  0.116172  0  0.105943  0.089771  0  1.004581  0
H  H38  1  0.70917649  0.50282701  0.09399585  1  0  0.076222  0  0.918475  0  0  0.092058  0  0.980538  0  0  0.09217  0  0.980146  0  0.086145  0  0.110979  0.091951  0  0.980869  0
H  H39  1  0.29082376  0.49717209  0.90600374  1  0  0.076241  0  0.918445  0  0  0.092073  0  0.980517  0  0  0.092184  0  0.980125  0  0.086165  0  0.110989  0.091966  0  0.980848  0
H  H40  1  0.91694347  0.04397313  0.70480546  1  0  0.071842  0  0.954364  0  0  0.080301  0  1.022583  0  0  0.082569  0  1.020374  0  0.118945  0  0.108908  0.078634  0  1.024152  0
H  H41  1  0.08305678  0.95602597  0.29519545  1  0  0.07181  0  0.954406  0  0  0.080271  0  1.022622  0  0  0.082543  0  1.020412  0  0.118946  0  0.1089  0.078606  0  1.024191  0
H  H42  1  0.71038254  0.20478816  0.61716354  1  0  0.103487  0  0.97623  0  0  0.112063  0  1.040163  0  0  0.114011  0  1.041319  0  0.098007  0  0.1031  0.110633  0  1.039564  0
H  H43  1  0.28961976  0.79521180  0.38283617  1  0  0.103504  0  0.976219  0  0  0.112078  0  1.040147  0  0  0.114026  0  1.041302  0  0.097991  0  0.10311  0.110648  0  1.039548  0
H  H44  1  0.81115005  0.42074355  0.74673434  1  0  0.115378  0  0.958843  0  0  0.123525  0  1.02205  0  0  0.127266  0  1.01978  0  0.102652  0  0.109216  0.120778  0  1.023933  0
H  H45  1  0.18885109  0.57925641  0.25326552  1  0  0.115417  0  0.958802  0  0  0.123556  0  1.022018  0  0  0.127301  0  1.019749  0  0.102646  0  0.109223  0.12081  0  1.023901  0
H  H46  1  0.00881900  0.25061762  0.83151490  1  0  0.075008  0  0.960554  0  0  0.08299  0  1.024854  0  0  0.084618  0  1.023826  0  0.108588  0  0.112849  0.081727  0  1.025685  0
H  H47  1  0.99118125  0.74938148  0.16848601  1  0  0.075042  0  0.960528  0  0  0.083019  0  1.024827  0  0  0.084647  0  1.023798  0  0.108528  0  0.112863  0.081755  0  1.025659  0
H  H48  1  0.68335269  0.45757308  0.54503296  1  0  0.067669  0  0.934345  0  0  0.083513  0  0.996443  0  0  0.084118  0  0.995376  0  0.08468  0  0.103709  0.083036  0  0.997279  0
H  H49  1  0.31664730  0.54242687  0.45496705  1  0  0.067683  0  0.934322  0  0  0.083533  0  0.996425  0  0  0.084138  0  0.99536  0  0.084684  0  0.10371  0.083054  0  0.997263  0
H  H50  1  0.52465060  0.39404613  0.61751999  1  0  0.05059  0  0.955394  0  0  0.058968  0  1.030936  0  0  0.059562  0  1.029794  0  0.072421  0  0.092958  0.05859  0  1.031714  0
H  H51  1  0.47535081  0.60595297  0.38248011  1  0  0.050611  0  0.955358  0  0  0.058994  0  1.030906  0  0  0.059589  0  1.029764  0  0.072429  0  0.092961  0.058615  0  1.031685  0
H  H52  1  0.00128560  0.44219323  0.89731224  1  0  0.364728  0  0.922975  0  0  0.341646  0  0.996881  0  0  0.351281  0  0.985225  0  0.645811  0  0.29327  0.334838  0  1.005068  0
H  H53  1  0.99871580  0.55780587  0.10268851  1  0  0.364746  0  0.922971  0  0  0.341667  0  0.996868  0  0  0.351303  0  0.985212  0  0.645817  0  0.293285  0.334858  0  1.005057  0
H  H54  1  0.78291079  0.59209100  0.34542588  1  0  0.343066  0  0.946349  0  0  0.31816  0  1.028348  0  0  0.327086  0  1.017681  0  0.627162  0  0.288939  0.311884  0  1.035788  0
H  H55  1  0.21708867  0.40791068  0.65457367  1  0  0.343102  0  0.946308  0  0  0.318196  0  1.028307  0  0  0.327122  0  1.017638  0  0.627178  0  0.288959  0.311919  0  1.035746  0
H  H56  1  0.75286541  0.65891400  0.17465545  1  0  0.353701  0  0.93607  0  0  0.328077  0  1.016187  0  0  0.336958  0  1.005865  0  0.613057  0  0.295171  0.321904  0  1.023309  0
H  H57  1  0.24713458  0.34108596  0.82534456  1  0  0.353694  0  0.936079  0  0  0.328069  0  1.016197  0  0  0.33695  0  1.005875  0  0.613058  0  0.295173  0.321896  0  1.023319  0
H  H58  1  0.52719012  0.58402568  0.61440027  1  0  0.342452  0  0.953859  0  0  0.31856  0  1.036021  0  0  0.327397  0  1.025296  0  0.627074  0  0.288287  0.312355  0  1.043474  0
H  H59  1  0.47281102  0.41597428  0.38559959  1  0  0.342562  0  0.953738  0  0  0.318696  0  1.035905  0  0  0.327533  0  1.025185  0  0.627174  0  0.288342  0.312486  0  1.043363  0
C  C60  1  0.68215126  0.88649019  0.73544877  1  0  0.123858  0  3.745811  0  0  0.092222  0  4.000327  0  0  0.1  0  4.018907  0  0.397426  0  0.033966  0.087186  0  3.98758  0
C  C61  1  0.31784783  0.11350891  0.26455163  1  0  0.123895  0  3.745799  0  0  0.092255  0  4.000323  0  0  0.100033  0  4.018903  0  0.397393  0  0.033979  0.087218  0  3.987577  0
C  C62  1  0.78519323  0.80593750  0.79729424  1  0  -0.174738  0  3.712146  0  0  -0.191635  0  3.959403  0  0  -0.201059  0  3.982926  0  0.030233  0  -0.089634  -0.185485  0  3.943654  0
C  C63  1  0.21480702  0.19406160  0.20270601  1  0  -0.174826  0  3.71218  0  0  -0.191745  0  3.959422  0  0  -0.201169  0  3.982945  0  0.030346  0  -0.08967  -0.185595  0  3.943674  0
C  C64  1  0.79237305  0.68856386  0.81936490  1  0  0.128361  0  3.70318  0  0  0.143174  0  3.939974  0  0  0.147741  0  3.961992  0  -0.013077  0  0.012004  0.140242  0  3.925024  0
C  C65  1  0.20762694  0.31143609  0.18063511  1  0  0.128324  0  3.703203  0  0  0.143213  0  3.939934  0  0  0.147781  0  3.961947  0  -0.013106  0  0.011996  0.140282  0  3.924982  0
C  C66  1  0.69602842  0.65857555  0.77558238  1  0  -0.162077  0  3.696914  0  0  -0.180851  0  3.944854  0  0  -0.188998  0  3.965068  0  0.006466  0  -0.086711  -0.175678  0  3.931505  0
C  C67  1  0.30397157  0.34142441  0.22441764  1  0  -0.162053  0  3.696936  0  0  -0.180847  0  3.944859  0  0  -0.188995  0  3.965074  0  0.006475  0  -0.086715  -0.175674  0  3.931508  0
C  C68  1  0.59625940  0.74472474  0.71388518  1  0  0.139229  0  3.714244  0  0  0.10623  0  3.969704  0  0  0.114607  0  3.98914  0  0.472659  0  0.040891  0.100808  0  3.956464  0
C  C69  1  0.40374085  0.25527436  0.28611507  1  0  0.139212  0  3.71427  0  0  0.106204  0  3.969711  0  0  0.114581  0  3.989147  0  0.472576  0  0.040909  0.100781  0  3.956471  0
C  C70  1  0.90153889  0.60129537  0.88816846  1  0  0.076376  0  3.68793  0  0  0.016973  0  3.95362  0  0  0.023948  0  3.957782  0  0.43364  0  -0.075453  0.012307  0  3.950503  0
C  C71  1  0.09846136  0.39870373  0.11183245  1  0  0.076368  0  3.687809  0  0  0.016882  0  3.953601  0  0  0.023864  0  3.957765  0  0.433662  0  -0.07548  0.012214  0  3.950485  0
C  C72  1  0.10700898  0.12853399  0.48339920  1  0  0.125725  0  3.739951  0  0  0.094003  0  3.994472  0  0  0.101847  0  4.012774  0  0.449002  0  0.035758  0.088895  0  3.981961  0
C  C73  1  0.89298702  0.87146768  0.51660013  1  0  0.125723  0  3.740022  0  0  0.093996  0  3.994534  0  0  0.10184  0  4.012836  0  0.448999  0  0.03576  0.088889  0  3.982023  0
C  C74  1  0.99979127  0.21660653  0.42856767  1  0  -0.171833  0  3.717341  0  0  -0.189505  0  3.965911  0  0  -0.198505  0  3.990056  0  -0.003398  0  -0.086302  -0.183671  0  3.949778  0
C  C75  1  0.00020588  0.78339515  0.57143218  1  0  -0.171846  0  3.717349  0  0  -0.189513  0  3.965916  0  0  -0.198513  0  3.990061  0  -0.00335  0  -0.086281  -0.18368  0  3.949783  0
C  C76  1  0.98664640  0.33029583  0.42285598  1  0  0.132302  0  3.696748  0  0  0.148665  0  3.931152  0  0  0.152849  0  3.953103  0  0.008534  0  0.016943  0.145981  0  3.916292  0
C  C77  1  0.01335190  0.66970584  0.57714438  1  0  0.132292  0  3.696605  0  0  0.148659  0  3.931009  0  0  0.152842  0  3.952962  0  0.008464  0  0.016927  0.145975  0  3.916149  0
C  C78  1  0.08215892  0.34905678  0.47488382  1  0  -0.143877  0  3.664546  0  0  -0.164501  0  3.912308  0  0  -0.17173  0  3.931855  0  0.010019  0  -0.080546  -0.160012  0  3.899489  0
C  C79  1  0.91784080  0.65094403  0.52511662  1  0  -0.143881  0  3.664501  0  0  -0.164504  0  3.912267  0  0  -0.171733  0  3.931817  0  0.010035  0  -0.080559  -0.160014  0  3.899447  0
C  C80  1  0.18526059  0.25615399  0.52898063  1  0  0.134445  0  3.713226  0  0  0.100483  0  3.97155  0  0  0.108328  0  3.99109  0  0.445568  0  0.040292  0.095402  0  3.958293  0
C  C81  1  0.81473824  0.74384596  0.47101954  1  0  0.134433  0  3.713243  0  0  0.100463  0  3.971575  0  0  0.108308  0  3.991118  0  0.445557  0  0.040269  0.095382  0  3.958317  0
C  C82  1  0.87545313  0.42795586  0.36200968  1  0  0.086175  0  3.688081  0  0  0.027609  0  3.9507  0  0  0.034778  0  3.954611  0  0.462469  0  -0.071995  0.022727  0  3.947782  0
C  C83  1  0.12454660  0.57204495  0.63799010  1  0  0.086194  0  3.688058  0  0  0.027613  0  3.950691  0  0  0.034781  0  3.954602  0  0.462597  0  -0.071993  0.022729  0  3.947777  0
C  C84  1  0.45772283  0.86361454  0.96125926  1  0  0.131961  0  3.73374  0  0  0.102113  0  3.983619  0  0  0.110136  0  4.002275  0  0.413381  0  0.04041  0.096979  0  3.970742  0
C  C85  1  0.54227831  0.13638542  0.03874061  1  0  0.131962  0  3.733815  0  0  0.102115  0  3.983697  0  0  0.110137  0  4.002354  0  0.41338  0  0.040429  0.096984  0  3.970816  0
C  C86  1  0.56257910  0.78163588  0.02167604  1  0  -0.168199  0  3.716777  0  0  -0.186094  0  3.963053  0  0  -0.194746  0  3.985002  0  0.018193  0  -0.094052  -0.180547  0  3.948398  0
C  C87  1  0.43742115  0.21836322  0.97832421  1  0  -0.168183  0  3.716809  0  0  -0.186074  0  3.963083  0  0  -0.194726  0  3.985032  0  0.018194  0  -0.094049  -0.180528  0  3.948427  0
C  C88  1  0.54807548  0.66742172  0.05748641  1  0  0.119747  0  3.70747  0  0  0.134988  0  3.944631  0  0  0.13959  0  3.966667  0  -0.047431  0  0.01033  0.13208  0  3.929646  0
C  C89  1  0.45192477  0.33257738  0.94251252  1  0  0.119733  0  3.707577  0  0  0.134977  0  3.944746  0  0  0.139577  0  3.966781  0  -0.047439  0  0.010345  0.132069  0  3.929761  0
C  C90  1  0.42390220  0.64166234  0.03187836  1  0  -0.165833  0  3.704292  0  0  -0.183022  0  3.950745  0  0  -0.191842  0  3.973022  0  -0.005224  0  -0.084542  -0.177372  0  3.935881  0
C  C91  1  0.57609637  0.35833847  0.96812091  1  0  -0.165855  0  3.704275  0  0  -0.183049  0  3.950745  0  0  -0.191871  0  3.973022  0  -0.00522  0  -0.084534  -0.177397  0  3.935883  0
C  C92  1  0.32217656  0.72865595  0.97224625  1  0  0.129364  0  3.720036  0  0  0.095437  0  3.976008  0  0  0.103226  0  3.99521  0  0.436359  0  0.039118  0.090438  0  3.962915  0
C  C93  1  0.67782432  0.27134487  0.02775273  1  0  0.129399  0  3.719903  0  0  0.095467  0  3.975893  0  0  0.103257  0  3.995093  0  0.436372  0  0.039104  0.090467  0  3.962803  0
C  C94  1  0.66014216  0.57484020  0.12224720  1  0  0.079836  0  3.650558  0  0  0.017766  0  3.915641  0  0  0.024174  0  3.920011  0  0.424486  0  -0.068324  0.01346  0  3.912529  0
C  C95  1  0.33985925  0.42515890  0.87775290  1  0  0.079845  0  3.650592  0  0  0.017748  0  3.915679  0  0  0.024158  0  3.920045  0  0.424469  0  -0.06833  0.013443  0  3.912565  0
C  C96  1  0.88762267  0.12889736  0.71260905  1  0  0.12567  0  3.737913  0  0  0.0943  0  3.990513  0  0  0.102235  0  4.009025  0  0.428008  0  0.034806  0.089177  0  3.977865  0
C  C97  1  0.11237732  0.87110260  0.28739162  1  0  0.125737  0  3.737927  0  0  0.094355  0  3.990551  0  0  0.102283  0  4.009059  0  0.427993  0  0.034829  0.089228  0  3.977906  0
C  C98  1  0.77449401  0.21829364  0.66399083  1  0  -0.173296  0  3.723261  0  0  -0.191229  0  3.971023  0  0  -0.200303  0  3.994799  0  0.005339  0  -0.089711  -0.185386  0  3.955164  0
C  C99  1  0.22550714  0.78170632  0.33600904  1  0  -0.173316  0  3.723213  0  0  -0.19124  0  3.970969  0  0  -0.200313  0  3.994745  0  0.005146  0  -0.089706  -0.185396  0  3.955111  0
C  C100  1  0.74432946  0.32667765  0.67449725  1  0  0.137595  0  3.692695  0  0  0.153267  0  3.927845  0  0  0.157944  0  3.949425  0  -0.057391  0  0.016911  0.15022  0  3.913242  0
C  C101  1  0.25567284  0.67332231  0.32550181  1  0  0.137619  0  3.692671  0  0  0.153302  0  3.927819  0  0  0.157982  0  3.949399  0  -0.057197  0  0.016916  0.150255  0  3.913216  0
C  C102  1  0.82968203  0.33865236  0.73596765  1  0  -0.146576  0  3.683157  0  0  -0.166396  0  3.930263  0  0  -0.173781  0  3.949968  0  -0.000157  0  -0.082208  -0.161785  0  3.917295  0
C  C103  1  0.17032054  0.66134674  0.26403230  1  0  -0.146654  0  3.683165  0  0  -0.166474  0  3.930265  0  0  -0.173865  0  3.949973  0  -0.000156  0  -0.082247  -0.161863  0  3.917297  0
C  C104  1  0.94009493  0.24467322  0.78298332  1  0  0.129661  0  3.723846  0  0  0.097752  0  3.978285  0  0  0.105611  0  3.997195  0  0.446719  0  0.039392  0.092687  0  3.965397  0
C  C105  1  0.05990621  0.75532674  0.21701720  1  0  0.129659  0  3.723822  0  0  0.097766  0  3.978237  0  0  0.105626  0  3.997148  0  0.446814  0  0.039417  0.092703  0  3.965348  0
C  C106  1  0.62700993  0.42551453  0.61961070  1  0  0.083285  0  3.68308  0  0  0.025104  0  3.946548  0  0  0.031692  0  3.950841  0  0.458149  0  -0.074144  0.020671  0  3.943323  0
C  C107  1  0.37299121  0.57448542  0.38038916  1  0  0.083223  0  3.682999  0  0  0.025013  0  3.94651  0  0  0.031597  0  3.95081  0  0.458126  0  -0.074173  0.020581  0  3.943284  0
N  N108  1  0.40845472  0.90781273  0.49542303  1  0  -0.58888  0  2.705191  0  0  -0.548636  0  3.012866  0  0  -0.571485  0  3.018943  0  -0.296782  0  -0.311538  -0.532902  0  3.008309  0
N  N109  1  0.59154411  0.09218723  0.50457713  1  0  -0.588937  0  2.705239  0  0  -0.548689  0  3.012906  0  0  -0.57154  0  3.018984  0  -0.296815  0  -0.311557  -0.532954  0  3.00835  0
N  N110  1  0.42127082  0.80701728  0.51182333  1  0  0.399535  0  4.239082  0  0  0.427287  0  4.527953  0  0  0.443431  0  4.556279  0  -0.372367  0  0.080405  0.41657  0  4.508859  0
N  N111  1  0.57872890  0.19298353  0.48817645  1  0  0.399552  0  4.239178  0  0  0.427305  0  4.528053  0  0  0.44345  0  4.556379  0  -0.37238  0  0.080404  0.416587  0  4.508958  0
N  N112  1  0.43093528  0.70967595  0.52509179  1  0  -0.402211  0  2.491945  0  0  -0.394976  0  2.73294  0  0  -0.402709  0  2.740024  0  -0.058961  0  -0.185507  -0.389892  0  2.728608  0
N  N113  1  0.56906498  0.29032315  0.47490846  1  0  -0.402179  0  2.492005  0  0  -0.394946  0  2.733015  0  0  -0.402675  0  2.740095  0  -0.058934  0  -0.18548  -0.38986  0  2.728683  0
N  N114  1  0.19260915  0.90704563  0.72051145  1  0  -0.621612  0  2.73445  0  0  -0.577934  0  3.045428  0  0  -0.603618  0  3.051795  0  -0.368656  0  -0.338495  -0.5603  0  3.040778  0
N  N115  1  0.80739084  0.09295433  0.27948857  1  0  -0.621688  0  2.734393  0  0  -0.577938  0  3.045444  0  0  -0.603621  0  3.051813  0  -0.368608  0  -0.338489  -0.560304  0  3.040796  0
N  N116  1  0.20787855  0.80397980  0.74581029  1  0  0.394526  0  4.227167  0  0  0.425665  0  4.513863  0  0  0.441675  0  4.54221  0  -0.384194  0  0.077968  0.414972  0  4.49468  0
N  N117  1  0.79212029  0.19602016  0.25418988  1  0  0.394733  0  4.226752  0  0  0.425675  0  4.513838  0  0  0.441686  0  4.542186  0  -0.384178  0  0.077974  0.414983  0  4.494656  0
N  N118  1  0.22011548  0.70506989  0.76919954  1  0  -0.365308  0  2.414924  0  0  -0.367522  0  2.652608  0  0  -0.373128  0  2.661692  0  0.045323  0  -0.172644  -0.363697  0  2.646704  0
N  N119  1  0.77988425  0.29493092  0.23080024  1  0  -0.365392  0  2.414774  0  0  -0.367534  0  2.652578  0  0  -0.373139  0  2.661662  0  0.04529  0  -0.172654  -0.363709  0  2.646675  0
N  N120  1  0.37152955  0.08813782  0.73338265  1  0  -0.556822  0  2.671859  0  0  -0.51818  0  2.97137  0  0  -0.539246  0  2.977878  0  -0.259639  0  -0.285464  -0.503723  0  2.966785  0
N  N121  1  0.62847044  0.91186214  0.26661802  1  0  -0.5568  0  2.671819  0  0  -0.518152  0  2.971328  0  0  -0.539219  0  2.97784  0  -0.259648  0  -0.285446  -0.503697  0  2.966744  0
N  N122  1  0.35331994  0.18392519  0.73282195  1  0  0.425052  0  4.237351  0  0  0.450157  0  4.525413  0  0  0.466624  0  4.554135  0  -0.344748  0  0.09165  0.439228  0  4.506009  0
N  N123  1  0.64668121  0.81607477  0.26717792  1  0  0.425026  0  4.237329  0  0  0.450125  0  4.525397  0  0  0.466591  0  4.554121  0  -0.344741  0  0.091622  0.439197  0  4.505993  0
N  N124  1  0.33680788  0.27786224  0.73342701  1  0  -0.453777  0  2.560747  0  0  -0.439679  0  2.807587  0  0  -0.45047  0  2.813919  0  -0.125614  0  -0.205458  -0.432437  0  2.803622  0
N  N125  1  0.66319211  0.72213772  0.26657301  1  0  -0.453766  0  2.560765  0  0  -0.439669  0  2.807607  0  0  -0.450461  0  2.813945  0  -0.125615  0  -0.205454  -0.432427  0  2.803643  0
N  N126  1  0.97061951  0.87791203  0.92541932  1  0  -0.494027  0  2.608663  0  0  -0.473508  0  2.879918  0  0  -0.488281  0  2.88556  0  -0.187974  0  -0.264551  -0.463474  0  2.876235  0
N  N127  1  0.02938022  0.12208878  0.07458112  1  0  -0.494038  0  2.608626  0  0  -0.473538  0  2.879884  0  0  -0.488311  0  2.885527  0  -0.187991  0  -0.264563  -0.463504  0  2.876202  0
N  N128  1  0.89356900  0.89257461  0.99590448  1  0  0.400152  0  4.250718  0  0  0.438641  0  4.521454  0  0  0.455806  0  4.548507  0  -0.339366  0  0.080809  0.427169  0  4.503303  0
N  N129  1  0.10643099  0.10742535  0.00409553  1  0  0.400176  0  4.250696  0  0  0.438671  0  4.521434  0  0  0.455835  0  4.548487  0  -0.33935  0  0.080824  0.427198  0  4.503284  0
N  N130  1  0.81253307  0.90345236  0.06657349  1  0  -0.505322  0  2.635613  0  0  -0.488208  0  2.916106  0  0  -0.503634  0  2.921977  0  -0.201391  0  -0.266228  -0.477681  0  2.912156  0
N  N131  1  0.18746692  0.09654760  0.93342653  1  0  -0.505334  0  2.635615  0  0  -0.488216  0  2.916105  0  0  -0.503642  0  2.921976  0  -0.201389  0  -0.266228  -0.477689  0  2.912156  0
N  N132  1  0.58730691  0.85723032  0.69439013  1  0  -0.353793  0  3.290798  0  0  -0.27438  0  3.557253  0  0  -0.295655  0  3.577924  0  -1.247159  0  -0.34402  -0.259872  0  3.542792  0
N  N133  1  0.41269308  0.14276964  0.30560988  1  0  -0.353771  0  3.2908  0  0  -0.274353  0  3.557251  0  0  -0.295629  0  3.577924  0  -1.247147  0  -0.344015  -0.259845  0  3.542789  0
N  N134  1  0.19923098  0.14729323  0.53317143  1  0  -0.350336  0  3.293394  0  0  -0.270738  0  3.560807  0  0  -0.292045  0  3.581993  0  -1.231393  0  -0.341666  -0.256194  0  3.545982  0
N  N135  1  0.80076785  0.85270673  0.46682808  1  0  -0.350306  0  3.293363  0  0  -0.270715  0  3.560797  0  0  -0.292022  0  3.581984  0  -1.231434  0  -0.341669  -0.256172  0  3.545972  0
N  N136  1  0.33932526  0.83828296  0.93648551  1  0  -0.347446  0  3.293808  0  0  -0.266433  0  3.555679  0  0  -0.288238  0  3.577585  0  -1.23954  0  -0.339429  -0.25157  0  3.540316  0
N  N137  1  0.66067563  0.16171786  0.06351346  1  0  -0.347461  0  3.293793  0  0  -0.266454  0  3.555673  0  0  -0.288259  0  3.577579  0  -1.239516  0  -0.33945  -0.251591  0  3.54031  0
N  N138  1  0.96988039  0.14135140  0.77149391  1  0  -0.349046  0  3.297344  0  0  -0.268784  0  3.560268  0  0  -0.290302  0  3.581809  0  -1.230018  0  -0.341993  -0.254109  0  3.545143  0
N  N139  1  0.03012076  0.85864856  0.22850662  1  0  -0.349086  0  3.297351  0  0  -0.268818  0  3.560265  0  0  -0.290336  0  3.581809  0  -1.230006  0  -0.342028  -0.254144  0  3.545141  0
O  O140  1  0.89134753  0.48630036  0.90663281  1  0  -0.553649  0  2.027525  0  0  -0.505171  0  2.250871  0  0  -0.520771  0  2.240124  0  -1.168833  0  -0.419936  -0.493813  0  2.257898  0
O  O141  1  0.10865273  0.51369874  0.09336744  1  0  -0.553671  0  2.027485  0  0  -0.505168  0  2.25084  0  0  -0.520767  0  2.240088  0  -1.168819  0  -0.419947  -0.493816  0  2.257884  0
O  O142  1  0.84517158  0.52622751  0.39111559  1  0  -0.54726  0  2.096798  0  0  -0.497529  0  2.324692  0  0  -0.513752  0  2.315706  0  -1.158089  0  -0.409668  -0.485671  0  2.330531  0
O  O143  1  0.15482672  0.47377416  0.60888411  1  0  -0.547313  0  2.096792  0  0  -0.497571  0  2.324673  0  0  -0.513792  0  2.315687  0  -1.158207  0  -0.409691  -0.485712  0  2.330512  0
O  O144  1  0.79144670  0.61259833  0.13100633  1  0  -0.550726  0  2.129396  0  0  -0.49475  0  2.355066  0  0  -0.511403  0  2.344584  0  -1.152072  0  -0.397432  -0.48288  0  2.362059  0
O  O145  1  0.20855098  0.38740163  0.86899398  1  0  -0.550705  0  2.129358  0  0  -0.494738  0  2.355057  0  0  -0.511392  0  2.344575  0  -1.15208  0  -0.397445  -0.48287  0  2.36205  0
O  O146  1  0.57936372  0.51409646  0.66186978  1  0  -0.545561  0  2.07478  0  0  -0.496696  0  2.299529  0  0  -0.512857  0  2.29032  0  -1.15733  0  -0.410755  -0.484847  0  2.305441  0
O  O147  1  0.42063627  0.48590349  0.33813024  1  0  -0.545655  0  2.074701  0  0  -0.496815  0  2.299399  0  0  -0.512976  0  2.29019  0  -1.157434  0  -0.410795  -0.48496  0  2.305319  0
