# generated using pymatgen
data_Mg2H8C17N5ClO6
_symmetry_space_group_name_H-M   'P 1'
_cell_length_a   6.71487911
_cell_length_b   28.54549056
_cell_length_c   28.54561467
_cell_angle_alpha   119.40113829
_cell_angle_beta   94.51044516
_cell_angle_gamma   94.46921676
_symmetry_Int_Tables_number   1
_chemical_formula_structural   Mg2H8C17N5ClO6
_chemical_formula_sum   'Mg6 H24 C51 N15 Cl3 O18'
_cell_volume   4709.15657587
_cell_formula_units_Z   3
loop_
 _symmetry_equiv_pos_site_id
 _symmetry_equiv_pos_as_xyz
  1  'x, y, z'
loop_
 _atom_site_type_symbol
 _atom_site_label
 _atom_site_symmetry_multiplicity
 _atom_site_fract_x
 _atom_site_fract_y
 _atom_site_fract_z
 _atom_site_occupancy
 _atom_site_pbe_bader_charge
 _atom_site_pbe_bader_spin_density
 _atom_site_pbe_cm5_charge
 _atom_site_pbe_ddec_charge
 _atom_site_pbe_ddec_spin_density
 _atom_site_pbe_ddec_sum_bond_order
 _atom_site_pbe_magmom
Mg  Mg0  1  0.75030329  0.31878637  0.69499692  1  1.683919  0  0.906453  1.413536  0  1.327076  0
Mg  Mg1  1  0.43144293  0.37612716  0.68110590  1  1.683106  0  0.906658  1.413361  0  1.327874  0
Mg  Mg2  1  0.05545850  0.30486089  0.62380481  1  1.684134  0  0.90637  1.41274  0  1.328312  0
Mg  Mg3  1  0.83463302  0.67560733  0.37404199  1  1.682592  0  0.901737  1.405705  0  1.331629  0
Mg  Mg4  1  0.15897065  0.69869387  0.32431232  1  1.683617  0  0.901428  1.405905  0  1.330759  0
Mg  Mg5  1  0.46063977  0.62588703  0.30124094  1  1.682568  0  0.901647  1.40616  0  1.329928  0
H  H6  1  0.87676258  0.06576252  0.56095296  1  0.475266  0  0.33174  0.288629  0  0.905652  0
H  H7  1  0.81156953  0.49475902  0.93414179  1  0.445919  0  0.331833  0.289205  0  0.905395  0
H  H8  1  0.31579109  0.43940422  0.50517673  1  0.458975  0  0.332077  0.288992  0  0.905685  0
H  H9  1  0.94505326  0.15843713  0.59739133  1  0.066689  0  0.108465  0.134484  0  0.992152  0
H  H10  1  0.78650065  0.43877307  0.84139666  1  0.073902  0  0.108132  0.133929  0  0.99212  0
H  H11  1  0.34778365  0.40279182  0.56131405  1  0.089444  0  0.108118  0.133968  0  0.992025  0
H  H12  1  0.25351006  0.15797763  0.52261934  1  0.101301  0  0.105968  0.109571  0  0.997312  0
H  H13  1  0.09539319  0.36476383  0.84209744  1  0.077619  0  0.105807  0.109437  0  0.997799  0
H  H14  1  0.73044928  0.47734749  0.63545304  1  0.109199  0  0.105596  0.109449  0  0.998632  0
H  H15  1  0.38390189  0.07004490  0.49449425  1  0.134029  0  0.095763  0.109904  0  1.073615  0
H  H16  1  0.31453146  0.42413965  0.92989771  1  0.102474  0  0.096028  0.109983  0  1.073868  0
H  H17  1  0.88917008  0.50565270  0.57584704  1  0.098965  0  0.095765  0.109973  0  1.073847  0
H  H18  1  0.12871943  0.96542578  0.44821089  1  0.449243  0  0.332115  0.283726  0  0.910655  0
H  H19  1  0.16420464  0.48242067  0.03463630  1  0.456875  0  0.332469  0.284403  0  0.90947  0
H  H20  1  0.68043781  0.55230507  0.51743302  1  0.450469  0  0.332417  0.284337  0  0.909321  0
H  H21  1  0.23213920  0.83255409  0.43181515  1  0.150911  0  0.109411  0.143755  0  1.030837  0
H  H22  1  0.39988064  0.59915559  0.16733504  1  0.129631  0  0.109564  0.143885  0  1.031915  0
H  H23  1  0.80113636  0.56846688  0.40092282  1  0.160921  0  0.109471  0.143671  0  1.031729  0
H  H24  1  0.54055166  0.84861525  0.37135584  1  0.097861  0  0.107115  0.114563  0  0.990339  0
H  H25  1  0.69245791  0.52273675  0.15147739  1  0.075532  0  0.106995  0.114208  0  0.989613  0
H  H26  1  0.16930477  0.62892700  0.47700840  1  0.091787  0  0.10711  0.114534  0  0.990107  0
H  H27  1  0.80388914  0.92919832  0.41239389  1  0.045817  0  0.097726  0.10903  0  1.00429  0
H  H28  1  0.87532970  0.48290149  0.07089061  1  0.050763  0  0.098139  0.109271  0  1.004033  0
H  H29  1  0.39103405  0.58787703  0.51669565  1  0.054112  0  0.098001  0.109059  0  1.004094  0
C  C30  1  0.63095590  0.92971775  0.51728877  1  1.329214  0  0.2766  0.473516  0  4.150322  0
C  C31  1  0.70142529  0.58729715  0.07013815  1  1.307907  0  0.275931  0.473006  0  4.148814  0
C  C32  1  0.11360863  0.48287728  0.41275500  1  1.292072  0  0.275783  0.472891  0  4.152305  0
C  C33  1  0.63609134  0.01016411  0.52109750  1  1.529377  0  0.348783  0.55133  0  4.099394  0
C  C34  1  0.62648682  0.51053657  0.98976275  1  1.558454  0  0.348694  0.550825  0  4.100517  0
C  C35  1  0.11479603  0.47924645  0.48948977  1  1.560632  0  0.34862  0.551471  0  4.098874  0
C  C36  1  0.66862141  0.10825781  0.54652221  1  0.298196  0  0.104259  0.284432  0  4.042743  0
C  C37  1  0.56070937  0.43797526  0.89163103  1  0.293486  0  0.103296  0.284925  0  4.04109  0
C  C38  1  0.12201108  0.45364823  0.56203765  1  0.312763  0  0.103756  0.284279  0  4.04212  0
C  C39  1  0.79269721  0.15772525  0.58034507  1  0.015057  0  -0.118979  -0.337308  0  3.917872  0
C  C40  1  0.63505041  0.42238310  0.84213673  1  0.009093  0  -0.117312  -0.335746  0  3.915469  0
C  C41  1  0.21232855  0.41976676  0.57760024  1  0.00713  0  -0.117966  -0.335882  0  3.915513  0
C  C42  1  0.72285302  0.20791063  0.59593194  1  0.626451  0  0.094907  0.387075  0  4.102309  0
C  C43  1  0.51482242  0.38782836  0.79198164  1  0.628426  0  0.094129  0.386649  0  4.10352  0
C  C44  1  0.12669586  0.40403033  0.61205761  1  0.588738  0  0.09496  0.387401  0  4.102963  0
C  C45  1  0.51894997  0.20713944  0.57622769  1  -0.050207  0  -0.050721  -0.23164  0  3.995117  0
C  C46  1  0.31163528  0.36902269  0.79279976  1  -0.04978  0  -0.050761  -0.232871  0  3.993707  0
C  C47  1  0.94228290  0.42365316  0.63091427  1  -0.039011  0  -0.051598  -0.232584  0  3.993476  0
C  C48  1  0.40552791  0.15709107  0.53836309  1  -0.10128  0  -0.086803  -0.046947  0  4.04877  0
C  C49  1  0.24841852  0.38119730  0.84287964  1  0.013995  0  -0.085385  -0.044981  0  4.047825  0
C  C50  1  0.86673894  0.46162425  0.61884106  1  -0.097544  0  -0.085867  -0.046333  0  4.049628  0
C  C51  1  0.47617911  0.10810183  0.52267278  1  0.024666  0  -0.122415  -0.228582  0  4.020286  0
C  C52  1  0.36847100  0.41431794  0.89181976  1  -0.033341  0  -0.123126  -0.229929  0  4.022666  0
C  C53  1  0.95326047  0.47744559  0.58569269  1  0.043375  0  -0.122632  -0.229137  0  4.022278  0
C  C54  1  0.41298634  0.25500376  0.59742204  1  1.497981  0  0.232801  0.675213  0  4.136755  0
C  C55  1  0.15792665  0.34242808  0.74491101  1  1.48338  0  0.232154  0.675061  0  4.137348  0
C  C56  1  0.81519233  0.40234023  0.65746768  1  1.496035  0  0.232478  0.675475  0  4.136739  0
C  C57  1  0.36310450  0.94613608  0.47859741  1  1.592351  0  0.357144  0.553811  0  4.085912  0
C  C58  1  0.41744464  0.53217665  0.05382078  1  1.569343  0  0.357153  0.553851  0  4.084849  0
C  C59  1  0.88438932  0.52168007  0.46777723  1  1.565575  0  0.356605  0.55234  0  4.087479  0
C  C60  1  0.03527661  0.88621717  0.42599613  1  0.313411  0  0.100864  0.278748  0  4.05992  0
C  C61  1  0.14947996  0.53959676  0.11376007  1  0.240188  0  0.101007  0.277929  0  4.059411  0
C  C62  1  0.60935177  0.57426582  0.46023909  1  0.310552  0  0.10108  0.277729  0  4.060768  0
C  C63  1  0.08180392  0.83649948  0.41843876  1  -0.008163  0  -0.11422  -0.317329  0  3.909778  0
C  C64  1  0.24554803  0.58190950  0.16342263  1  0.061606  0  -0.114519  -0.317281  0  3.910391  0
C  C65  1  0.66382578  0.58177146  0.41807619  1  -0.032603  0  -0.114631  -0.317089  0  3.908794  0
C  C66  1  0.93585414  0.79014480  0.39311498  1  0.616716  0  0.097992  0.384915  0  4.085843  0
C  C67  1  0.14590542  0.60307034  0.20977853  1  0.638724  0  0.097737  0.38507  0  4.085405  0
C  C68  1  0.54323599  0.60698611  0.39688396  1  0.636258  0  0.097552  0.384251  0  4.087052  0
C  C69  1  0.73414251  0.79519424  0.37752749  1  -0.040332  0  -0.046907  -0.224923  0  3.970094  0
C  C70  1  0.93915218  0.58246253  0.20474937  1  -0.008872  0  -0.04642  -0.225185  0  3.969901  0
C  C71  1  0.35703937  0.62262308  0.41746671  1  -0.015707  0  -0.04641  -0.223688  0  3.969093  0
C  C72  1  0.69375294  0.84578105  0.38442610  1  -0.053745  0  -0.086469  -0.045375  0  4.041387  0
C  C73  1  0.84837855  0.53864885  0.15423573  1  -0.064541  0  -0.085892  -0.044551  0  4.038856  0
C  C74  1  0.30948421  0.61580051  0.46116183  1  -0.088133  0  -0.086402  -0.045784  0  4.039938  0
C  C75  1  0.83985700  0.89050134  0.40736951  1  0.033858  0  -0.121042  -0.240601  0  4.040302  0
C  C76  1  0.94987334  0.51670049  0.10951554  1  0.033376  0  -0.121356  -0.240223  0  4.039479  0
C  C77  1  0.43236658  0.59285688  0.48302386  1  0.015633  0  -0.121203  -0.239984  0  4.040541  0
C  C78  1  0.56615466  0.75065221  0.35505286  1  1.492596  0  0.234977  0.674785  0  4.12399  0
C  C79  1  0.81558328  0.60461385  0.24927811  1  1.50195  0  0.235521  0.675927  0  4.121845  0
C  C80  1  0.21143554  0.64503851  0.39532677  1  1.502945  0  0.234563  0.675235  0  4.123247  0
N  N81  1  0.73705576  0.97767735  0.53413141  1  -1.202352  0  -0.35419  -0.525779  0  3.224559  0
N  N82  1  0.75978064  0.55608653  0.02221496  1  -1.185687  0  -0.353446  -0.524833  0  3.221625  0
N  N83  1  0.20288554  0.46615018  0.44398359  1  -1.196911  0  -0.353884  -0.526303  0  3.22285  0
N  N84  1  0.74062275  0.06073996  0.53955983  1  -1.248286  0  -0.383258  -0.361659  0  3.503605  0
N  N85  1  0.68041672  0.47841944  0.93916310  1  -1.21978  0  -0.38334  -0.362773  0  3.504123  0
N  N86  1  0.20098366  0.46076672  0.52159183  1  -1.235448  0  -0.383572  -0.362471  0  3.504529  0
N  N87  1  0.45273586  0.99627777  0.49288811  1  -1.22899  0  -0.339139  -0.52276  0  3.225208  0
N  N88  1  0.45715760  0.49624499  0.00369951  1  -1.230993  0  -0.338716  -0.522372  0  3.225675  0
N  N89  1  0.95957316  0.50745182  0.50371596  1  -1.233511  0  -0.338954  -0.521893  0  3.224659  0
N  N90  1  0.17463544  0.93343959  0.45047288  1  -1.261587  0  -0.378186  -0.350527  0  3.545321  0
N  N91  1  0.24186473  0.51673934  0.06657195  1  -1.251624  0  -0.379137  -0.350993  0  3.543094  0
N  N92  1  0.72415513  0.54987825  0.48312761  1  -1.230367  0  -0.378478  -0.350201  0  3.545027  0
N  N93  1  0.44516636  0.91087467  0.49024149  1  -1.192168  0  -0.326963  -0.469856  0  3.222015  0
N  N94  1  0.53443450  0.57913986  0.08899633  1  -1.20037  0  -0.327208  -0.470387  0  3.222427  0
N  N95  1  0.95489355  0.50993386  0.42086488  1  -1.178444  0  -0.327016  -0.46952  0  3.224536  0
Cl  Cl96  1  0.74710883  0.88605900  0.53253970  1  -0.167011  0  0.011075  -0.08058  0  1.383919  0
Cl  Cl97  1  0.86099201  0.64624836  0.11370623  1  -0.163929  0  0.011294  -0.080337  0  1.385128  0
Cl  Cl98  1  0.21480180  0.46746791  0.35386522  1  -0.165507  0  0.01143  -0.080106  0  1.384571  0
O  O99  1  0.23205696  0.25177794  0.57777517  1  -1.243689  0  -0.365721  -0.649329  0  2.142927  0
O  O100  1  0.98027733  0.32596476  0.74807400  1  -1.236819  0  -0.365174  -0.649346  0  2.143855  0
O  O101  1  0.65401648  0.42201142  0.67395437  1  -1.243939  0  -0.365125  -0.649436  0  2.143493  0
O  O102  1  0.50321603  0.29988322  0.63881787  1  -1.29799  0  -0.407215  -0.776202  0  2.423808  0
O  O103  1  0.20339646  0.33904319  0.70007612  1  -1.295918  0  -0.40751  -0.77605  0  2.42456  0
O  O104  1  0.86407294  0.36090004  0.66086387  1  -1.296812  0  -0.40737  -0.776259  0  2.425275  0
O  O105  1  0.84500031  0.25407933  0.62996990  1  -1.318626  0  -0.444781  -0.781363  0  2.299443  0
O  O106  1  0.59064242  0.37562827  0.74577354  1  -1.315922  0  -0.445262  -0.781501  0  2.301297  0
O  O107  1  0.21479586  0.36997819  0.62416644  1  -1.313589  0  -0.444776  -0.781358  0  2.301125  0
O  O108  1  0.38984410  0.75707102  0.34116765  1  -1.234634  0  -0.354469  -0.636307  0  2.143461  0
O  O109  1  0.63297057  0.58426910  0.24285678  1  -1.2406  0  -0.355177  -0.637081  0  2.142979  0
O  O110  1  0.04891453  0.65887122  0.41557510  1  -1.234511  0  -0.354993  -0.63696  0  2.143591  0
O  O111  1  0.59876882  0.70440864  0.35054119  1  -1.301567  0  -0.402573  -0.776135  0  2.396193  0
O  O112  1  0.89414327  0.64642653  0.29549449  1  -1.306736  0  -0.402338  -0.776568  0  2.394753  0
O  O113  1  0.24843390  0.64948738  0.35356504  1  -1.298564  0  -0.401901  -0.776239  0  2.397012  0
O  O114  1  0.99646016  0.74315492  0.38436019  1  -1.308181  0  -0.451906  -0.773533  0  2.305512  0
O  O115  1  0.25335585  0.64137111  0.25676356  1  -1.316161  0  -0.451701  -0.773752  0  2.303733  0
O  O116  1  0.61247708  0.61559824  0.35856011  1  -1.308667  0  -0.450745  -0.772794  0  2.30436  0
