# generated using pymatgen
data_Ni2H26C36N4O11
_symmetry_space_group_name_H-M   'P 1'
_cell_length_a   8.06385341
_cell_length_b   11.23249495
_cell_length_c   12.95333937
_cell_angle_alpha   104.21669743
_cell_angle_beta   108.13687113
_cell_angle_gamma   90.03001847
_symmetry_Int_Tables_number   1
_chemical_formula_structural   Ni2H26C36N4O11
_chemical_formula_sum   'Ni2 H26 C36 N4 O11'
_cell_volume   1077.05623496
_cell_formula_units_Z   1
loop_
 _symmetry_equiv_pos_site_id
 _symmetry_equiv_pos_as_xyz
  1  'x, y, z'
loop_
 _atom_site_type_symbol
 _atom_site_label
 _atom_site_symmetry_multiplicity
 _atom_site_fract_x
 _atom_site_fract_y
 _atom_site_fract_z
 _atom_site_occupancy
 _atom_site_pbe_bader_charge
 _atom_site_pbe_bader_spin_density
 _atom_site_pbe_cm5_charge
 _atom_site_pbe_ddec_charge
 _atom_site_pbe_ddec_spin_density
 _atom_site_pbe_ddec_sum_bond_order
 _atom_site_pbe_magmom
Ni  Ni0  1  0.49632889  0.43710961  0.37408536  1  1.194809  1.56034  0.653457  0.810338  1.771824  2.500096  1.548
Ni  Ni1  1  0.12223316  0.56286821  0.62591118  1  1.187824  1.560277  0.653695  0.810971  1.77224  2.499186  1.548
H  H2  1  0.01498659  0.70575721  0.36486421  1  0.085852  4.5e-05  0.091825  0.088747  -3.3e-05  1.062624  0.0
H  H3  1  0.93728040  0.80001043  0.20172794  1  0.042614  5.6e-05  0.096055  0.092512  1.7e-05  1.002742  0.0
H  H4  1  0.68823331  0.69837449  0.02695013  1  0.173811  1e-06  0.108054  0.138544  -4.8e-05  1.025586  0.0
H  H5  1  0.32524764  0.57978891  0.21372249  1  0.148333  0.001647  0.123395  0.098741  0.000497  1.000461  0.001
H  H6  1  0.32184256  0.79645246  0.19940815  1  0.099414  0.000955  0.118818  0.127928  0.000465  0.979359  0.0
H  H7  1  0.67311246  0.90155427  0.54239278  1  0.07677  0.00107  0.106287  0.109322  0.000506  1.017578  0.0
H  H8  1  0.65963181  0.68081037  0.54217245  1  0.147241  0.001862  0.122974  0.103007  0.000652  1.003446  0.001
H  H9  1  0.75534695  0.27208566  0.47280977  1  0.15916  0.001632  0.119308  0.094113  0.000602  1.026273  0.001
H  H10  1  0.76834806  0.05106868  0.47695100  1  0.066504  0.000921  0.101793  0.105107  0.000406  1.034327  0.0
H  H11  1  0.23413470  0.98766098  0.25218688  1  0.070149  0.001026  0.111495  0.114757  0.000494  1.001192  0.0
H  H12  1  0.24813119  0.20951541  0.25464485  1  0.121749  0.001713  0.125942  0.10287  0.000587  0.983889  0.001
H  H13  1  0.16344549  0.47854991  0.38361718  1  0.647791  0.000372  0.296128  0.388473  0.000387  0.955696  0.001
H  H14  1  0.17238637  0.42409168  0.25966078  1  0.639752  5e-06  0.329295  0.409266  -3.1e-05  0.860275  0.0
H  H15  1  0.64958590  0.29433982  0.63511514  1  0.052017  4.8e-05  0.092055  0.089253  -3.4e-05  1.062354  0.0
H  H16  1  0.73518321  0.20018458  0.79833189  1  0.045937  4e-05  0.096245  0.092505  1.1e-05  1.003108  0.0
H  H17  1  0.66124962  0.30189795  0.97315449  1  0.17302  0.000126  0.107955  0.139038  2.7e-05  1.025198  0.0
H  H18  1  0.11161742  0.42008453  0.78615888  1  0.140312  0.001636  0.12354  0.099165  0.00049  1.000365  0.001
H  H19  1  0.12246689  0.20345376  0.80052542  1  0.103891  0.000946  0.119292  0.128311  0.000463  0.978094  0.0
H  H20  1  0.13024296  0.09830039  0.45748396  1  0.079876  0.001068  0.10614  0.108918  0.000506  1.017597  0.0
H  H21  1  0.11715422  0.31903339  0.45766399  1  0.140456  0.001863  0.123156  0.102874  0.000649  1.004013  0.001
H  H22  1  0.28247806  0.72798807  0.52733609  1  0.117156  0.001669  0.119122  0.094209  0.000606  1.025588  0.001
H  H23  1  0.29118595  0.94898217  0.52304420  1  0.064986  0.000918  0.102361  0.10578  0.000407  1.034791  0.0
H  H24  1  0.98194876  0.01224215  0.74783675  1  0.075147  0.001024  0.111434  0.11465  0.000496  1.001602  0.0
H  H25  1  0.99339740  0.79039277  0.74546344  1  0.139719  0.0017  0.125763  0.102655  0.000586  0.98442  0.001
H  H26  1  0.77966254  0.52133226  0.61638149  1  0.652465  0.000372  0.295859  0.388037  0.000392  0.956335  0.001
H  H27  1  0.91268752  0.57576154  0.74034624  1  0.636218  -5e-05  0.328882  0.409307  -3.7e-05  0.860542  0.0
C  C28  1  0.63610530  0.55266695  0.09603588  1  0.471749  -9.7e-05  0.082021  0.225586  -0.000249  4.006729  0.0
C  C29  1  0.67558822  0.49818061  0.18639519  1  -0.084257  0.001275  -0.012711  -0.132793  0.000155  3.915097  0.001
C  C30  1  0.81489588  0.55590742  0.28397516  1  0.003536  0.004107  -0.028835  -0.079059  0.002208  4.004896  0.003
C  C31  1  0.90904475  0.66329634  0.28804455  1  -0.081376  0.001423  -0.104399  -0.123466  0.000746  4.031439  0.001
C  C32  1  0.86563313  0.71536464  0.19705298  1  -0.030409  -0.000572  -0.103041  -0.080519  -0.000681  4.067147  0.0
C  C33  1  0.72825111  0.65978762  0.09987754  1  -0.055987  0.001959  -0.093227  -0.173307  0.001088  3.953739  0.001
C  C34  1  0.57265526  0.37790579  0.17152276  1  1.644078  0.005945  0.195512  0.588715  0.004376  4.258971  0.004
C  C35  1  0.86649757  0.50832357  0.38638691  1  1.529455  0.001372  0.217628  0.583328  0.001064  4.144275  0.001
C  C36  1  0.39629231  0.65499569  0.28546082  1  0.452296  -0.004656  0.051846  0.098363  -0.005518  3.941955  -0.003
C  C37  1  0.39606629  0.77627915  0.27828195  1  -0.037009  0.004136  -0.075255  -0.161744  0.002277  3.924516  0.003
C  C38  1  0.49707510  0.86949139  0.37055539  1  -0.013138  -0.006642  0.010871  0.097471  -0.007419  3.996513  -0.004
C  C39  1  0.59388303  0.83372171  0.46704683  1  -0.071791  0.004167  -0.082662  -0.17468  0.00226  3.946503  0.003
C  C40  1  0.58628009  0.71044167  0.46797937  1  0.497485  -0.004131  0.051194  0.102659  -0.00483  3.922583  -0.003
C  C41  1  0.64268860  0.20533721  0.42643072  1  0.411789  -0.003682  0.052293  0.104285  -0.004378  3.923423  -0.003
C  C42  1  0.64798846  0.08229777  0.42863970  1  0.032378  0.003902  -0.082983  -0.175079  0.002149  3.941253  0.003
C  C43  1  0.49982352  0.99965009  0.36696130  1  -0.060641  -0.005911  0.008153  0.09834  -0.006652  4.002505  -0.004
C  C44  1  0.35371708  0.04657763  0.30235078  1  -0.022058  0.004219  -0.079639  -0.178372  0.00231  3.951428  0.003
C  C45  1  0.35952352  0.17064898  0.30376028  1  0.534925  -0.003832  0.059696  0.113808  -0.00451  3.919005  -0.002
C  C46  1  0.54004344  0.44749715  0.90402042  1  0.418972  -0.000104  0.081803  0.225065  -0.000239  4.006703  0.0
C  C47  1  0.48918636  0.50199221  0.81366958  1  -0.015865  0.001902  -0.012643  -0.134031  0.000595  3.916146  0.001
C  C48  1  0.53081593  0.44424630  0.71609251  1  -0.027032  0.004192  -0.029135  -0.078727  0.002273  4.004995  0.003
C  C49  1  0.62068466  0.33682610  0.71198171  1  -0.025079  0.000944  -0.104158  -0.1241  0.000438  4.033567  0.001
C  C50  1  0.66832230  0.28481302  0.80299307  1  -0.043138  -0.000538  -0.103188  -0.079604  -0.000639  4.069901  0.0
C  C51  1  0.62831001  0.34041903  0.90019544  1  -0.054277  0.00147  -0.093447  -0.174512  0.000795  3.955575  0.001
C  C52  1  0.40116237  0.62219371  0.82853796  1  1.656718  0.005757  0.195252  0.590273  0.004199  4.25764  0.004
C  C53  1  0.48008450  0.49177600  0.61364585  1  1.547503  0.001367  0.217906  0.583414  0.001171  4.143005  0.001
C  C54  1  0.11076101  0.34488206  0.71440347  1  0.45354  -0.004632  0.051689  0.098551  -0.005508  3.942959  -0.003
C  C55  1  0.11763247  0.22360360  0.72160864  1  0.013619  0.004146  -0.075239  -0.162117  0.002272  3.923185  0.003
C  C56  1  0.12632233  0.13038985  0.62936354  1  -0.067159  -0.006639  0.010206  0.09653  -0.007417  3.995709  -0.004
C  C57  1  0.12657943  0.16613248  0.53285011  1  -0.073368  0.004174  -0.082113  -0.173034  0.002265  3.944372  0.003
C  C58  1  0.11808187  0.28940928  0.53188399  1  0.49692  -0.004091  0.050697  0.102094  -0.00482  3.922679  -0.003
C  C59  1  0.21614551  0.79467408  0.57365244  1  0.453782  -0.00375  0.05316  0.105212  -0.004405  3.920563  -0.003
C  C60  1  0.21914801  0.91768959  0.57135807  1  -0.002302  0.003908  -0.084413  -0.177171  0.002153  3.940558  0.003
C  C61  1  0.13269692  0.00028822  0.63301489  1  0.038199  -0.005939  0.00892  0.099628  -0.00669  4.000124  -0.004
C  C62  1  0.05124287  0.95332682  0.69764861  1  -0.028676  0.004167  -0.079291  -0.178304  0.002312  3.951129  0.003
C  C63  1  0.05567253  0.82926386  0.69631443  1  0.445351  -0.003777  0.059315  0.113609  -0.004534  3.918967  -0.002
N  N64  1  0.48934104  0.62167586  0.37859224  1  -1.219293  0.06505  -0.326021  -0.241792  0.037655  3.596519  0.059
N  N65  1  0.50005985  0.24983080  0.36659498  1  -1.17433  0.065442  -0.313057  -0.197068  0.03826  3.520477  0.059
N  N66  1  0.11065744  0.37820440  0.62126126  1  -1.203549  0.064878  -0.325948  -0.242393  0.037606  3.598224  0.059
N  N67  1  0.13340082  0.75014706  0.63352454  1  -1.16636  0.065539  -0.313156  -0.19688  0.038302  3.518728  0.059
O  O68  1  0.43448549  0.38808895  0.20333450  1  -1.158172  0.067737  -0.35173  -0.61074  0.036601  2.308459  0.059
O  O69  1  0.62426659  0.28049364  0.12732293  1  -1.148736  0.029632  -0.329182  -0.519976  0.015898  2.042026  0.025
O  O70  1  0.76029000  0.44479838  0.40970364  1  -1.144648  0.071554  -0.296601  -0.520643  0.039662  2.430267  0.066
O  O71  1  0.02627682  0.53641441  0.45132817  1  -1.167061  0.069895  -0.309279  -0.56444  0.039217  2.445365  0.063
O  O72  1  0.22272973  0.41962266  0.33725304  1  -1.238846  0.055643  -0.558508  -0.744514  0.03144  2.197945  0.049
O  O73  1  0.23117485  0.61181561  0.79663366  1  -1.180546  0.067519  -0.351793  -0.611083  0.036517  2.309558  0.058
O  O74  1  0.49686144  0.71971535  0.87276389  1  -1.13757  0.030355  -0.32928  -0.520881  0.016328  2.040602  0.025
O  O75  1  0.35062074  0.55526586  0.59025713  1  -1.149931  0.071599  -0.29641  -0.520985  0.039756  2.429369  0.066
O  O76  1  0.57488065  0.46361692  0.54871063  1  -1.176726  0.069884  -0.309223  -0.563831  0.039185  2.443755  0.063
O  O77  1  0.88545607  0.58021870  0.66275424  1  -1.23775  0.055861  -0.558072  -0.74458  0.031471  2.198295  0.049
O  O78  1  0.49443564  0.50010173  0.00002409  1  -1.088191  0.000593  -0.17385  -0.235904  0.000354  2.50468  0.0
