# generated using pymatgen
data_HgH8C12(N3Cl)2
_symmetry_space_group_name_H-M   'P 1'
_cell_length_a   7.11234734
_cell_length_b   7.38020976
_cell_length_c   7.99424755
_cell_angle_alpha   115.04577293
_cell_angle_beta   96.82398123
_cell_angle_gamma   105.75058907
_symmetry_Int_Tables_number   1
_chemical_formula_structural   HgH8C12(N3Cl)2
_chemical_formula_sum   'Hg1 H8 C12 N6 Cl2'
_cell_volume   352.50063175
_cell_formula_units_Z   1
loop_
 _symmetry_equiv_pos_site_id
 _symmetry_equiv_pos_as_xyz
  1  'x, y, z'
loop_
 _atom_site_type_symbol
 _atom_site_label
 _atom_site_symmetry_multiplicity
 _atom_site_fract_x
 _atom_site_fract_y
 _atom_site_fract_z
 _atom_site_occupancy
 _atom_site_hle17_bader_spin_density
 _atom_site_hle17_ddec_charge
 _atom_site_hle17_ddec_spin_density
 _atom_site_hle17_ddec_sum_bond_order
 _atom_site_hle17_magmom
 _atom_site_hse06_10hf_bader_spin_density
 _atom_site_hse06_10hf_ddec_charge
 _atom_site_hse06_10hf_ddec_spin_density
 _atom_site_hse06_10hf_ddec_sum_bond_order
 _atom_site_hse06_10hf_magmom
 _atom_site_hse06_bader_spin_density
 _atom_site_hse06_ddec_charge
 _atom_site_hse06_ddec_spin_density
 _atom_site_hse06_ddec_sum_bond_order
 _atom_site_hse06_magmom
 _atom_site_pbe_bader_spin_density
 _atom_site_pbe_cm5_charge
 _atom_site_pbe_ddec_charge
 _atom_site_pbe_ddec_spin_density
 _atom_site_pbe_ddec_sum_bond_order
 _atom_site_pbe_magmom
Hg  Hg0  1  0.49999612  0.99999571  0.49999798  1  0  0.746301  0  2.086179  0  0  0.581459  0  2.583074  0  0  0.634552  0  2.543523  0  0  0.519518  0.544962  0  2.60956  0
H  H1  1  0.98915756  0.76492013  0.47236998  1  0  0.076127  0  0.937651  0  0  0.082521  0  1.004012  0  0  0.085058  0  1.001896  0  0  0.105482  0.080619  0  1.00565  0
H  H2  1  0.01084012  0.23508069  0.52763604  1  0  0.076104  0  0.937721  0  0  0.082474  0  1.004099  0  0  0.085011  0  1.001982  0  0  0.105464  0.080559  0  1.005751  0
H  H3  1  0.69618620  0.42208594  0.33906469  1  0  0.107976  0  0.979018  0  0  0.109338  0  1.054478  0  0  0.11279  0  1.053506  0  0  0.09007  0.106729  0  1.055597  0
H  H4  1  0.30382325  0.57790839  0.66093471  1  0  0.107872  0  0.979157  0  0  0.109221  0  1.054641  0  0  0.112677  0  1.05367  0  0  0.090013  0.106612  0  1.055759  0
H  H5  1  0.70893190  0.09215756  0.06505744  1  0  0.100202  0  0.943309  0  0  0.106089  0  1.010973  0  0  0.109024  0  1.00866  0  0  0.103135  0.103952  0  1.012649  0
H  H6  1  0.29107127  0.90784330  0.93494155  1  0  0.100215  0  0.943299  0  0  0.106116  0  1.010952  0  0  0.109049  0  1.008642  0  0  0.103134  0.10398  0  1.012627  0
H  H7  1  0.01375087  0.12594756  0.93727337  1  0  0.109668  0  0.972083  0  0  0.112948  0  1.045599  0  0  0.116476  0  1.043414  0  0  0.103722  0.110434  0  1.047252  0
H  H8  1  0.98624537  0.87405329  0.06273128  1  0  0.109661  0  0.972033  0  0  0.112938  0  1.045552  0  0  0.11647  0  1.04337  0  0  0.103709  0.110423  0  1.047211  0
C  C9  1  0.99221646  0.61943778  0.35568590  1  0  0.129045  0  3.716036  0  0  0.102731  0  3.972019  0  0  0.107671  0  3.991712  0  0  0.044773  0.099646  0  3.958312  0
C  C10  1  0.00778172  0.38056467  0.64431831  1  0  0.129  0  3.716047  0  0  0.102726  0  3.971979  0  0  0.107668  0  3.991669  0  0  0.044761  0.099653  0  3.958279  0
C  C11  1  0.82683664  0.42725370  0.27992981  1  0  -0.108059  0  3.706255  0  0  -0.123447  0  3.958124  0  0  -0.130418  0  3.982335  0  0  -0.086229  -0.118751  0  3.94183  0
C  C12  1  0.17317317  0.57275036  0.72006605  1  0  -0.107886  0  3.706147  0  0  -0.123255  0  3.957984  0  0  -0.13023  0  3.982196  0  0  -0.08612  -0.11856  0  3.941688  0
C  C13  1  0.83432112  0.24522365  0.12955940  1  0  -0.009683  0  3.701348  0  0  -0.026411  0  3.954683  0  0  -0.025788  0  3.975259  0  0  -0.069954  -0.026509  0  3.940628  0
C  C14  1  0.16567899  0.75477240  0.87043864  1  0  -0.009813  0  3.701607  0  0  -0.026579  0  3.954968  0  0  -0.025955  0  3.975548  0  0  -0.070009  -0.026673  0  3.940909  0
C  C15  1  0.00509848  0.26171412  0.05952868  1  0  -0.104149  0  3.672054  0  0  -0.129022  0  3.923724  0  0  -0.134213  0  3.945026  0  0  -0.074204  -0.125809  0  3.909403  0
C  C16  1  0.99491149  0.73828985  0.94047467  1  0  -0.104056  0  3.672026  0  0  -0.128899  0  3.923699  0  0  -0.134096  0  3.945008  0  0  -0.074142  -0.125685  0  3.909379  0
C  C17  1  0.16501568  0.45979496  0.14620837  1  0  0.141243  0  3.771741  0  0  0.141308  0  4.01117  0  0  0.144825  0  4.033722  0  0  0.115799  0.139141  0  3.995729  0
C  C18  1  0.83497909  0.54020593  0.85379367  1  0  0.141227  0  3.771604  0  0  0.141251  0  4.011102  0  0  0.144766  0  4.033659  0  0  0.115803  0.139083  0  3.995664  0
C  C19  1  0.34550440  0.48250593  0.07188831  1  0  0.249052  0  3.70739  0  0  0.235915  0  3.969187  0  0  0.242921  0  3.985123  0  0  0.25301  0.23069  0  3.959008  0
C  C20  1  0.65449035  0.51749499  0.92811248  1  0  0.248997  0  3.707303  0  0  0.23585  0  3.96914  0  0  0.242858  0  3.985069  0  0  0.252922  0.230628  0  3.958961  0
N  N21  1  0.15857612  0.63607317  0.29268720  1  0  -0.326904  0  3.176289  0  0  -0.274595  0  3.435502  0  0  -0.291446  0  3.456667  0  0  -0.305594  -0.262754  0  3.420462  0
N  N22  1  0.84142736  0.36393247  0.70731627  1  0  -0.326884  0  3.176438  0  0  -0.27457  0  3.435644  0  0  -0.291419  0  3.456807  0  0  -0.305601  -0.262726  0  3.420599  0
N  N23  1  0.48850260  0.67912634  0.14081973  1  0  -0.149141  0  3.048621  0  0  -0.115931  0  3.32729  0  0  -0.121878  0  3.338464  0  0  -0.14027  -0.111525  0  3.319979  0
N  N24  1  0.51148973  0.32087133  0.85918454  1  0  -0.148955  0  3.048385  0  0  -0.115727  0  3.327047  0  0  -0.121674  0  3.338221  0  0  -0.140163  -0.111323  0  3.319734  0
N  N25  1  0.35558009  0.30276061  0.93170315  1  0  -0.146864  0  2.948178  0  0  -0.129687  0  3.222126  0  0  -0.131652  0  3.232203  0  0  -0.141398  -0.128354  0  3.215626  0
N  N26  1  0.64441080  0.69723708  0.06829976  1  0  -0.146801  0  2.948254  0  0  -0.129608  0  3.222186  0  0  -0.131573  0  3.232262  0  0  -0.141345  -0.128276  0  3.215686  0
Cl  Cl27  1  0.35303017  0.18530914  0.37297037  1  0  -0.441744  0  0.994114  0  0  -0.382566  0  1.273854  0  0  -0.400725  0  1.256958  0  0  -0.258131  -0.370069  0  1.285333  0
Cl  Cl28  1  0.64697130  0.81468693  0.62702529  1  0  -0.441752  0  0.99406  0  0  -0.38259  0  1.273813  0  0  -0.400749  0  1.256918  0  0  -0.258153  -0.370096  0  1.285297  0
