# generated using pymatgen
data_TbH3C4O9
_symmetry_space_group_name_H-M   'P 1'
_cell_length_a   10.68291616
_cell_length_b   9.93998956
_cell_length_c   12.11964029
_cell_angle_alpha   90.00027876
_cell_angle_beta   107.51825790
_cell_angle_gamma   89.99916971
_symmetry_Int_Tables_number   1
_chemical_formula_structural   TbH3C4O9
_chemical_formula_sum   'Tb4 H12 C16 O36'
_cell_volume   1227.27339808
_cell_formula_units_Z   4
loop_
 _symmetry_equiv_pos_site_id
 _symmetry_equiv_pos_as_xyz
  1  'x, y, z'
loop_
 _atom_site_type_symbol
 _atom_site_label
 _atom_site_symmetry_multiplicity
 _atom_site_fract_x
 _atom_site_fract_y
 _atom_site_fract_z
 _atom_site_occupancy
 _atom_site_hle17_bader_spin_density
 _atom_site_hle17_ddec_charge
 _atom_site_hle17_ddec_spin_density
 _atom_site_hle17_ddec_sum_bond_order
 _atom_site_hle17_magmom
 _atom_site_hse06_10hf_bader_spin_density
 _atom_site_hse06_10hf_ddec_charge
 _atom_site_hse06_10hf_ddec_spin_density
 _atom_site_hse06_10hf_ddec_sum_bond_order
 _atom_site_hse06_10hf_magmom
 _atom_site_hse06_bader_spin_density
 _atom_site_hse06_ddec_charge
 _atom_site_hse06_ddec_spin_density
 _atom_site_hse06_ddec_sum_bond_order
 _atom_site_hse06_magmom
 _atom_site_pbe_bader_spin_density
 _atom_site_pbe_cm5_charge
 _atom_site_pbe_ddec_charge
 _atom_site_pbe_ddec_spin_density
 _atom_site_pbe_ddec_sum_bond_order
 _atom_site_pbe_magmom
Tb  Tb0  1  0.29482661  0.57164037  0.61497158  1  0  2.191481  0  1.669105  0  0  2.028781  0  2.160539  0  0  2.074896  0  2.121438  0  0  1.522351  1.993331  0  2.192231  0
Tb  Tb1  1  0.20517556  0.07163816  0.88503882  1  0  2.191426  0  1.669259  0  0  2.028713  0  2.160748  0  0  2.07483  0  2.121642  0  0  1.522386  1.993259  0  2.192437  0
Tb  Tb2  1  0.70518217  0.42836558  0.38503616  1  0  2.191363  0  1.669361  0  0  2.028631  0  2.160863  0  0  2.074753  0  2.121753  0  0  1.522381  1.993188  0  2.192581  0
Tb  Tb3  1  0.79482376  0.92835471  0.11497037  1  0  2.191395  0  1.669193  0  0  2.028693  0  2.160641  0  0  2.074811  0  2.121535  0  0  1.522364  1.993244  0  2.192347  0
H  H4  1  0.40781315  0.75843895  0.83870310  1  0  0.449128  0  0.842647  0  0  0.415708  0  0.908312  0  0  0.427301  0  0.891601  0  0  0.308152  0.407528  0  0.920085  0
H  H5  1  0.09219342  0.25844863  0.66130218  1  0  0.448959  0  0.842852  0  0  0.415584  0  0.908456  0  0  0.42717  0  0.891757  0  0  0.308113  0.407409  0  0.920222  0
H  H6  1  0.59219236  0.24156398  0.16131061  1  0  0.449169  0  0.842594  0  0  0.415761  0  0.908235  0  0  0.427349  0  0.891533  0  0  0.308172  0.407588  0  0.92  0
H  H7  1  0.90780509  0.74155531  0.33869857  1  0  0.449159  0  0.842587  0  0  0.415776  0  0.908199  0  0  0.427365  0  0.891496  0  0  0.308196  0.407598  0  0.919971  0
H  H8  1  0.36935292  0.55161382  0.88646038  1  0  0.406656  0  0.870179  0  0  0.374249  0  0.952066  0  0  0.386205  0  0.939469  0  0  0.314751  0.365872  0  0.960776  0
H  H9  1  0.13067201  0.05164757  0.61353166  1  0  0.406566  0  0.870348  0  0  0.374192  0  0.952109  0  0  0.386148  0  0.939517  0  0  0.314723  0.365816  0  0.960808  0
H  H10  1  0.63065602  0.44836496  0.11354904  1  0  0.406558  0  0.870368  0  0  0.374128  0  0.952273  0  0  0.386085  0  0.93968  0  0  0.314695  0.365754  0  0.960975  0
H  H11  1  0.86932196  0.94837649  0.38645164  1  0  0.406652  0  0.870212  0  0  0.374346  0  0.951906  0  0  0.386301  0  0.93931  0  0  0.314799  0.365974  0  0.9606  0
H  H12  1  0.51768224  0.66405969  0.81679790  1  0  0.470631  0  0.765995  0  0  0.449309  0  0.819686  0  0  0.458545  0  0.809006  0  0  0.347436  0.442678  0  0.827415  0
H  H13  1  0.98232676  0.16406171  0.68319183  1  0  0.4704  0  0.766496  0  0  0.449102  0  0.820138  0  0  0.458335  0  0.809461  0  0  0.347363  0.442465  0  0.827869  0
H  H14  1  0.48232369  0.33594424  0.18321011  1  0  0.470697  0  0.76589  0  0  0.449345  0  0.819646  0  0  0.458581  0  0.80896  0  0  0.347397  0.442717  0  0.827368  0
H  H15  1  0.01767258  0.83594626  0.31679750  1  0  0.470536  0  0.766205  0  0  0.449258  0  0.819841  0  0  0.458496  0  0.809155  0  0  0.347377  0.442627  0  0.827567  0
C  C16  1  0.21421529  0.87857450  0.60635663  1  0  0.557277  0  3.78038  0  0  0.50725  0  4.089279  0  0  0.53761  0  4.077499  0  0  0.249451  0.486602  0  4.096729  0
C  C17  1  0.28578725  0.37855579  0.89363818  1  0  0.557315  0  3.780416  0  0  0.507203  0  4.089377  0  0  0.537559  0  4.077599  0  0  0.249375  0.486547  0  4.09684  0
C  C18  1  0.78577418  0.12143749  0.39363987  1  0  0.557429  0  3.78035  0  0  0.507433  0  4.08928  0  0  0.53779  0  4.0775  0  0  0.24943  0.486773  0  4.096746  0
C  C19  1  0.71420377  0.62142702  0.10635448  1  0  0.557255  0  3.780537  0  0  0.50703  0  4.089626  0  0  0.537387  0  4.077849  0  0  0.249356  0.486378  0  4.097082  0
C  C20  1  0.00454119  0.44024178  0.54175408  1  0  0.583015  0  3.891524  0  0  0.539346  0  4.183637  0  0  0.570075  0  4.173668  0  0  0.232031  0.518426  0  4.189653  0
C  C21  1  0.49546421  0.94023874  0.95824676  1  0  0.582967  0  3.891153  0  0  0.539236  0  4.183342  0  0  0.569977  0  4.17337  0  0  0.231974  0.518319  0  4.189354  0
C  C22  1  0.99546368  0.55976216  0.45825289  1  0  0.582815  0  3.891341  0  0  0.539082  0  4.183557  0  0  0.56983  0  4.173564  0  0  0.231979  0.51818  0  4.189557  0
C  C23  1  0.50454067  0.05975917  0.04175027  1  0  0.582817  0  3.891563  0  0  0.53915  0  4.183693  0  0  0.569869  0  4.173748  0  0  0.231992  0.518237  0  4.1897  0
C  C24  1  0.44708746  0.46022614  0.45275782  1  0  0.574393  0  3.926665  0  0  0.533595  0  4.221143  0  0  0.5637  0  4.212104  0  0  0.227149  0.513389  0  4.226082  0
C  C25  1  0.05292064  0.96021492  0.04724565  1  0  0.574623  0  3.926404  0  0  0.533788  0  4.220939  0  0  0.563898  0  4.211892  0  0  0.227298  0.51358  0  4.225888  0
C  C26  1  0.55293094  0.53976975  0.54725015  1  0  0.574722  0  3.926335  0  0  0.533957  0  4.220789  0  0  0.564066  0  4.211743  0  0  0.227276  0.513751  0  4.225732  0
C  C27  1  0.94708048  0.03976990  0.95276224  1  0  0.574392  0  3.926535  0  0  0.533638  0  4.221005  0  0  0.563742  0  4.211965  0  0  0.227104  0.513431  0  4.22595  0
C  C28  1  0.15497052  0.81831481  0.69830759  1  0  0.587008  0  3.94927  0  0  0.54348  0  4.24696  0  0  0.574737  0  4.236498  0  0  0.230173  0.522324  0  4.253222  0
C  C29  1  0.34503376  0.31828919  0.80168951  1  0  0.586664  0  3.949882  0  0  0.543335  0  4.247199  0  0  0.574591  0  4.23674  0  0  0.230154  0.522172  0  4.253469  0
C  C30  1  0.84502416  0.18170220  0.30169324  1  0  0.58681  0  3.949682  0  0  0.543304  0  4.247354  0  0  0.574561  0  4.236894  0  0  0.229982  0.522151  0  4.253607  0
C  C31  1  0.65497031  0.68169764  0.19830902  1  0  0.586484  0  3.950121  0  0  0.543187  0  4.247449  0  0  0.574444  0  4.236988  0  0  0.2299  0.522031  0  4.253708  0
O  O32  1  0.28904569  0.80808852  0.57007127  1  0  -0.565273  0  2.010089  0  0  -0.523697  0  2.236518  0  0  -0.543411  0  2.226651  0  0  -0.321374  -0.509894  0  2.24303  0
O  O33  1  0.21095473  0.30808589  0.92991285  1  0  -0.56512  0  2.010336  0  0  -0.523501  0  2.236807  0  0  -0.543212  0  2.226939  0  0  -0.321247  -0.509691  0  2.243318  0
O  O34  1  0.71094892  0.19192448  0.42992872  1  0  -0.565328  0  2.010077  0  0  -0.523713  0  2.236496  0  0  -0.543429  0  2.226629  0  0  -0.321348  -0.509898  0  2.243012  0
O  O35  1  0.78902506  0.69190497  0.07006271  1  0  -0.565154  0  2.010377  0  0  -0.523519  0  2.236894  0  0  -0.54323  0  2.227027  0  0  -0.321254  -0.509706  0  2.243408  0
O  O36  1  0.18306416  0.00149053  0.56905681  1  0  -0.455851  0  2.086401  0  0  -0.407956  0  2.286166  0  0  -0.428172  0  2.271528  0  0  -0.293989  -0.394111  0  2.29599  0
O  O37  1  0.31695506  0.50147398  0.93093256  1  0  -0.45596  0  2.086111  0  0  -0.408109  0  2.285986  0  0  -0.428323  0  2.271347  0  0  -0.294096  -0.394251  0  2.295818  0
O  O38  1  0.81692166  0.99851844  0.43092158  1  0  -0.455914  0  2.086338  0  0  -0.408173  0  2.286186  0  0  -0.428384  0  2.271541  0  0  -0.294018  -0.394318  0  2.296013  0
O  O39  1  0.68304411  0.49850783  0.06906501  1  0  -0.455771  0  2.086199  0  0  -0.407821  0  2.286062  0  0  -0.428036  0  2.271432  0  0  -0.29393  -0.39396  0  2.29588  0
O  O40  1  0.11908301  0.41079880  0.60797730  1  0  -0.670559  0  2.035823  0  0  -0.613294  0  2.26485  0  0  -0.639247  0  2.255129  0  0  -0.348469  -0.595131  0  2.271114  0
O  O41  1  0.38092466  0.91078729  0.89202950  1  0  -0.670526  0  2.035743  0  0  -0.613232  0  2.264809  0  0  -0.639185  0  2.255074  0  0  -0.348409  -0.595073  0  2.271078  0
O  O42  1  0.88092359  0.58920111  0.39201759  1  0  -0.670504  0  2.035645  0  0  -0.613201  0  2.264688  0  0  -0.63916  0  2.254957  0  0  -0.348445  -0.595049  0  2.270958  0
O  O43  1  0.61907660  0.08919753  0.10799000  1  0  -0.67046  0  2.035713  0  0  -0.613187  0  2.264741  0  0  -0.639138  0  2.255026  0  0  -0.348474  -0.595029  0  2.271001  0
O  O44  1  0.90051595  0.37927794  0.53843844  1  0  -0.637611  0  2.050575  0  0  -0.59025  0  2.284677  0  0  -0.613638  0  2.275926  0  0  -0.356434  -0.574042  0  2.29058  0
O  O45  1  0.59949812  0.87928053  0.96156068  1  0  -0.637601  0  2.050274  0  0  -0.590215  0  2.284402  0  0  -0.613606  0  2.275648  0  0  -0.356436  -0.574008  0  2.290303  0
O  O46  1  0.09949169  0.62072600  0.46157734  1  0  -0.637544  0  2.050502  0  0  -0.590164  0  2.284647  0  0  -0.613554  0  2.275887  0  0  -0.356459  -0.573958  0  2.290541  0
O  O47  1  0.40051362  0.12072240  0.03842776  1  0  -0.637613  0  2.050746  0  0  -0.590247  0  2.284857  0  0  -0.613629  0  2.276108  0  0  -0.356442  -0.574041  0  2.290758  0
O  O48  1  0.33123039  0.46251652  0.45955611  1  0  -0.646126  0  1.996977  0  0  -0.603322  0  2.22808  0  0  -0.62532  0  2.216902  0  0  -0.386981  -0.588033  0  2.235568  0
O  O49  1  0.16877162  0.96251107  0.04043453  1  0  -0.646197  0  1.997047  0  0  -0.603375  0  2.22818  0  0  -0.625374  0  2.216999  0  0  -0.387088  -0.588086  0  2.235672  0
O  O50  1  0.66878745  0.53747635  0.54044595  1  0  -0.646259  0  1.9968  0  0  -0.603454  0  2.227901  0  0  -0.625455  0  2.216722  0  0  -0.387113  -0.588164  0  2.235394  0
O  O51  1  0.83121696  0.03748482  0.95955268  1  0  -0.646147  0  1.996754  0  0  -0.603348  0  2.227835  0  0  -0.625347  0  2.216659  0  0  -0.387045  -0.588061  0  2.235327  0
O  O52  1  0.48632859  0.40025872  0.37714661  1  0  -0.650627  0  2.013628  0  0  -0.605417  0  2.248284  0  0  -0.628095  0  2.236586  0  0  -0.385052  -0.588926  0  2.255519  0
O  O53  1  0.01366315  0.90025264  0.12285062  1  0  -0.650669  0  2.013501  0  0  -0.605457  0  2.248184  0  0  -0.628134  0  2.236482  0  0  -0.385077  -0.588968  0  2.255425  0
O  O54  1  0.51367580  0.59973113  0.62285529  1  0  -0.650708  0  2.01367  0  0  -0.605525  0  2.248337  0  0  -0.628202  0  2.236632  0  0  -0.385005  -0.589032  0  2.255574  0
O  O55  1  0.98631546  0.09973722  0.87715285  1  0  -0.650599  0  2.013613  0  0  -0.605422  0  2.248251  0  0  -0.628097  0  2.236554  0  0  -0.38495  -0.588932  0  2.255485  0
O  O56  1  0.11367692  0.89949528  0.75941614  1  0  -0.671544  0  2.06107  0  0  -0.624306  0  2.305114  0  0  -0.647873  0  2.293733  0  0  -0.395138  -0.607564  0  2.312328  0
O  O57  1  0.38632203  0.39947308  0.74057675  1  0  -0.671463  0  2.061014  0  0  -0.62426  0  2.304895  0  0  -0.647827  0  2.293517  0  0  -0.395051  -0.607511  0  2.312099  0
O  O58  1  0.88631736  0.10051973  0.24058048  1  0  -0.671443  0  2.06094  0  0  -0.624194  0  2.304933  0  0  -0.647761  0  2.293557  0  0  -0.39499  -0.607442  0  2.312126  0
O  O59  1  0.61368236  0.60052281  0.25942516  1  0  -0.671338  0  2.061206  0  0  -0.624134  0  2.305075  0  0  -0.647701  0  2.293696  0  0  -0.394964  -0.607384  0  2.312281  0
O  O60  1  0.15742714  0.69198178  0.70424222  1  0  -0.631502  0  2.021251  0  0  -0.589226  0  2.252704  0  0  -0.61262  0  2.244252  0  0  -0.362031  -0.572798  0  2.25818  0
O  O61  1  0.34257874  0.19196099  0.79575838  1  0  -0.631368  0  2.021733  0  0  -0.589148  0  2.253079  0  0  -0.612543  0  2.244626  0  0  -0.362062  -0.572715  0  2.258556  0
O  O62  1  0.84257479  0.30803222  0.29576417  1  0  -0.631457  0  2.021705  0  0  -0.589184  0  2.253165  0  0  -0.612578  0  2.244712  0  0  -0.361992  -0.572758  0  2.258644  0
O  O63  1  0.65742296  0.80802987  0.20423555  1  0  -0.631319  0  2.021803  0  0  -0.5891  0  2.253137  0  0  -0.612495  0  2.244688  0  0  -0.36196  -0.572664  0  2.258608  0
O  O64  1  0.42472470  0.66604996  0.81219260  1  0  -0.890428  0  1.917428  0  0  -0.834196  0  2.111881  0  0  -0.854647  0  2.082592  0  0  -0.582044  -0.819616  0  2.132159  0
O  O65  1  0.07528419  0.16606177  0.68780245  1  0  -0.88996  0  1.917972  0  0  -0.83379  0  2.112336  0  0  -0.85423  0  2.083051  0  0  -0.581909  -0.819218  0  2.132605  0
O  O66  1  0.57528009  0.33395096  0.18781352  1  0  -0.890468  0  1.917375  0  0  -0.834223  0  2.11187  0  0  -0.854671  0  2.082585  0  0  -0.581976  -0.819652  0  2.132137  0
O  O67  1  0.92471247  0.83394820  0.31218883  1  0  -0.89035  0  1.917672  0  0  -0.834231  0  2.112008  0  0  -0.854682  0  2.082717  0  0  -0.582027  -0.819655  0  2.132281  0
