# generated using pymatgen
data_CdH26C24SN8O7
_symmetry_space_group_name_H-M   'P 1'
_cell_length_a   10.64685907
_cell_length_b   14.54954548
_cell_length_c   18.80042270
_cell_angle_alpha   89.99997746
_cell_angle_beta   90.00005546
_cell_angle_gamma   92.21363202
_symmetry_Int_Tables_number   1
_chemical_formula_structural   CdH26C24SN8O7
_chemical_formula_sum   'Cd4 H104 C96 S4 N32 O28'
_cell_volume   2910.14303072
_cell_formula_units_Z   4
loop_
 _symmetry_equiv_pos_site_id
 _symmetry_equiv_pos_as_xyz
  1  'x, y, z'
loop_
 _atom_site_type_symbol
 _atom_site_label
 _atom_site_symmetry_multiplicity
 _atom_site_fract_x
 _atom_site_fract_y
 _atom_site_fract_z
 _atom_site_occupancy
 _atom_site_pbe_bader_charge
 _atom_site_pbe_bader_spin_density
 _atom_site_pbe_cm5_charge
 _atom_site_pbe_ddec_charge
 _atom_site_pbe_ddec_spin_density
 _atom_site_pbe_ddec_sum_bond_order
 _atom_site_pbe_magmom
Cd  Cd0  1  0.00928701  0.22854596  0.71241746  1  1.240684  0  0.786979  0.798635  0  2.224202  0
Cd  Cd1  1  0.49071054  0.27145471  0.21241766  1  1.240584  0  0.786968  0.798565  0  2.224307  0
Cd  Cd2  1  0.99071201  0.77145420  0.28758305  1  1.240708  0  0.786976  0.798639  0  2.224207  0
Cd  Cd3  1  0.50928848  0.72854545  0.78758285  1  1.240704  0  0.78697  0.798565  0  2.224297  0
H  H4  1  0.14195412  0.13565090  0.83962688  1  0.08826  0  0.113051  0.085587  0  1.008243  0
H  H5  1  0.35804566  0.36435246  0.33963017  1  0.088133  0  0.11299  0.085529  0  1.008257  0
H  H6  1  0.85804597  0.86435201  0.16037150  1  0.088448  0  0.113021  0.085539  0  1.008241  0
H  H7  1  0.64195440  0.63564977  0.66037034  1  0.088218  0  0.11302  0.085563  0  1.008225  0
H  H8  1  0.34980913  0.07421906  0.87727557  1  0.062707  0  0.102035  0.099054  0  1.010314  0
H  H9  1  0.15019259  0.42578429  0.37727926  1  0.062611  0  0.102039  0.099039  0  1.010365  0
H  H10  1  0.65019183  0.92578248  0.12272281  1  0.062658  0  0.102046  0.099086  0  1.010393  0
H  H11  1  0.84980737  0.57421587  0.62272178  1  0.062512  0  0.102037  0.099053  0  1.010384  0
H  H12  1  0.53474026  0.09354016  0.79548331  1  0.193913  0  0.10806  0.133  0  1.038904  0
H  H13  1  0.96526058  0.40646369  0.29548558  1  0.19351  0  0.108035  0.132983  0  1.038862  0
H  H14  1  0.46526074  0.90646207  0.20451560  1  0.193537  0  0.108035  0.133003  0  1.038875  0
H  H15  1  0.03473743  0.59353509  0.70451599  1  0.193537  0  0.108051  0.132956  0  1.038914  0
H  H16  1  0.29255658  0.22910215  0.64771846  1  0.171465  0  0.115837  0.111106  0  1.030137  0
H  H17  1  0.20744375  0.27089993  0.14772169  1  0.171528  0  0.115805  0.111085  0  1.030263  0
H  H18  1  0.70744335  0.77089733  0.35227939  1  0.171504  0  0.115824  0.111088  0  1.03019  0
H  H19  1  0.79255540  0.72910298  0.85227882  1  0.171522  0  0.115839  0.111124  0  1.030201  0
H  H20  1  0.77735912  0.21904933  0.48767485  1  0.078644  0  0.115731  0.104854  0  0.97045  0
H  H21  1  0.72264466  0.28095032  0.98767582  1  0.078672  0  0.11573  0.104842  0  0.970498  0
H  H22  1  0.22264258  0.78094809  0.51232406  1  0.078649  0  0.115743  0.104853  0  0.970503  0
H  H23  1  0.27735536  0.71905122  0.01232522  1  0.078659  0  0.115745  0.104895  0  0.970487  0
H  H24  1  0.66167401  0.30165574  0.50001708  1  0.065027  0  0.106927  0.082098  0  0.998449  0
H  H25  1  0.83833191  0.19834689  0.00001935  1  0.065024  0  0.10696  0.082155  0  0.998412  0
H  H26  1  0.33832786  0.69834512  0.49998130  1  0.065045  0  0.106939  0.082114  0  0.998445  0
H  H27  1  0.16167003  0.80165534  0.99998116  1  0.065042  0  0.106964  0.082177  0  0.998413  0
H  H28  1  0.56584425  0.05497256  0.49305023  1  0.080143  0  0.104012  0.097941  0  1.042884  0
H  H29  1  0.93416159  0.44503052  0.99305020  1  0.080144  0  0.103984  0.097959  0  1.042882  0
H  H30  1  0.43415292  0.94502828  0.50694922  1  0.080244  0  0.103997  0.097924  0  1.042919  0
H  H31  1  0.06583854  0.55497308  0.00694871  1  0.080319  0  0.103984  0.09795  0  1.042868  0
H  H32  1  0.43174082  0.98955996  0.39232519  1  0.10549  0  0.102907  0.10279  0  1.06198  0
H  H33  1  0.06826329  0.51043712  0.89232243  1  0.105498  0  0.102881  0.102801  0  1.061998  0
H  H34  1  0.56826084  0.01043677  0.60767426  1  0.105542  0  0.102908  0.102821  0  1.062026  0
H  H35  1  0.93173677  0.48956510  0.10767648  1  0.105564  0  0.102888  0.102811  0  1.062017  0
H  H36  1  0.39828658  0.08695918  0.28623675  1  0.138212  0  0.109118  0.075474  0  1.063009  0
H  H37  1  0.10171835  0.41303596  0.78623654  1  0.138201  0  0.109092  0.07541  0  1.063037  0
H  H38  1  0.60172073  0.91303756  0.71376111  1  0.138219  0  0.109115  0.075403  0  1.063042  0
H  H39  1  0.89828168  0.58696558  0.21376290  1  0.138218  0  0.109101  0.075432  0  1.063012  0
H  H40  1  0.61472900  0.30377633  0.37089178  1  0.161765  0  0.117408  0.101661  0  1.015384  0
H  H41  1  0.88527274  0.19622405  0.87089659  1  0.161967  0  0.11741  0.101584  0  1.015378  0
H  H42  1  0.38527093  0.69622314  0.62910713  1  0.161718  0  0.117401  0.101625  0  1.015391  0
H  H43  1  0.11472731  0.80377818  0.12910392  1  0.161783  0  0.117431  0.10164  0  1.015388  0
H  H44  1  0.05937725  0.02902861  0.66662332  1  0.128262  0  0.112807  0.08535  0  1.039229  0
H  H45  1  0.44062854  0.47096934  0.16662237  1  0.12835  0  0.112796  0.085209  0  1.039412  0
H  H46  1  0.94062371  0.97097293  0.33337772  1  0.128339  0  0.11279  0.085278  0  1.03936  0
H  H47  1  0.55937323  0.52902945  0.83337655  1  0.128318  0  0.112805  0.085225  0  1.039361  0
H  H48  1  0.15766394  0.93788073  0.56989294  1  0.084979  0  0.105937  0.114897  0  1.0264  0
H  H49  1  0.34233585  0.56211581  0.06989312  1  0.085041  0  0.105905  0.114874  0  1.026315  0
H  H50  1  0.84233981  0.06212013  0.43010810  1  0.08496  0  0.105955  0.114903  0  1.026419  0
H  H51  1  0.65766304  0.43788160  0.93010580  1  0.085013  0  0.105927  0.114895  0  1.026361  0
H  H52  1  0.20034193  0.01504835  0.45109257  1  0.062068  0  0.107394  0.113856  0  0.992556  0
H  H53  1  0.29965385  0.48494601  0.95109352  1  0.062161  0  0.107404  0.113844  0  0.992579  0
H  H54  1  0.79965894  0.98495112  0.54890794  1  0.062053  0  0.107415  0.113884  0  0.992514  0
H  H55  1  0.70034497  0.51505003  0.04890540  1  0.062076  0  0.107393  0.113857  0  0.992626  0
H  H56  1  0.05089081  0.26067411  0.53937721  1  0.062179  0  0.111299  0.080206  0  1.015971  0
H  H57  1  0.44911092  0.23932183  0.03937580  1  0.062076  0  0.111293  0.080175  0  1.015944  0
H  H58  1  0.94911009  0.73932606  0.46062330  1  0.062166  0  0.111292  0.080157  0  1.016002  0
H  H59  1  0.55088891  0.76067558  0.96062471  1  0.062135  0  0.111307  0.080179  0  1.015911  0
H  H60  1  0.16755288  0.11977820  0.32174758  1  0.497986  0  0.305389  0.273487  0  0.9959  0
H  H61  1  0.33244569  0.38022036  0.82174911  1  0.497909  0  0.305403  0.273497  0  0.995911  0
H  H62  1  0.83244426  0.88022196  0.67825346  1  0.497956  0  0.305397  0.273458  0  0.995872  0
H  H63  1  0.66755423  0.61977912  0.17825246  1  0.497995  0  0.305393  0.273495  0  0.995885  0
H  H64  1  0.59592254  0.14908135  0.08538705  1  0.053356  0  0.110848  0.077208  0  1.015898  0
H  H65  1  0.90407319  0.35092121  0.58538650  1  0.053422  0  0.110839  0.077202  0  1.015914  0
H  H66  1  0.40407930  0.85091881  0.91461186  1  0.053338  0  0.110816  0.077179  0  1.015896  0
H  H67  1  0.09592395  0.64907895  0.41461295  1  0.053367  0  0.110842  0.077222  0  1.015933  0
H  H68  1  0.77795618  0.05184995  0.05513992  1  0.07415  0  0.114942  0.117496  0  0.972533  0
H  H69  1  0.72203752  0.44815056  0.55514031  1  0.074132  0  0.114953  0.11753  0  0.972504  0
H  H70  1  0.22204569  0.94815091  0.94485846  1  0.074156  0  0.114961  0.117504  0  0.972558  0
H  H71  1  0.27795956  0.55184822  0.44485861  1  0.074136  0  0.114953  0.117522  0  0.972501  0
H  H72  1  0.95453950  0.04161249  0.14292949  1  0.07912  0  0.119822  0.134128  0  0.972041  0
H  H73  1  0.54545619  0.45838730  0.64292977  1  0.079061  0  0.119816  0.134117  0  0.972041  0
H  H74  1  0.04546046  0.95838767  0.85707049  1  0.07913  0  0.119806  0.134098  0  0.972001  0
H  H75  1  0.45453994  0.54161148  0.35706914  1  0.07912  0  0.119807  0.134102  0  0.972032  0
H  H76  1  0.75550698  0.22354688  0.28030983  1  0.169763  0  0.117941  0.10544  0  1.047042  0
H  H77  1  0.74449467  0.27645492  0.78030921  1  0.169795  0  0.117945  0.105446  0  1.047051  0
H  H78  1  0.24448901  0.77644915  0.71969175  1  0.169622  0  0.117912  0.10541  0  1.047073  0
H  H79  1  0.25550629  0.72354662  0.21969076  1  0.169766  0  0.11794  0.105428  0  1.047049  0
H  H80  1  0.60967935  0.13315270  0.68637142  1  0.523685  0  0.3032  0.279513  0  1.013038  0
H  H81  1  0.89032121  0.36684914  0.18637206  1  0.523667  0  0.303218  0.279553  0  1.013014  0
H  H82  1  0.39032061  0.86684746  0.31362909  1  0.523688  0  0.303202  0.279519  0  1.013021  0
H  H83  1  0.10967784  0.63315171  0.81362898  1  0.523708  0  0.303212  0.279569  0  1.012947  0
H  H84  1  0.71981179  0.15983895  0.59791971  1  0.492897  0  0.310336  0.28264  0  0.968455  0
H  H85  1  0.78019047  0.34016224  0.09792083  1  0.492883  0  0.310356  0.282591  0  0.968451  0
H  H86  1  0.28018820  0.84016190  0.40208027  1  0.49289  0  0.31031  0.282546  0  0.968543  0
H  H87  1  0.21981140  0.65983861  0.90208021  1  0.492902  0  0.310335  0.282557  0  0.968531  0
H  H88  1  0.04617122  0.09261865  0.24415142  1  0.522566  0  0.305865  0.281295  0  1.015502  0
H  H89  1  0.45382726  0.40738062  0.74415301  1  0.52262  0  0.305885  0.281278  0  1.015487  0
H  H90  1  0.95382776  0.90738082  0.75584962  1  0.522563  0  0.305866  0.281272  0  1.015514  0
H  H91  1  0.54617176  0.59261954  0.25584803  1  0.522583  0  0.305893  0.281286  0  1.015488  0
H  H92  1  0.11428060  0.26516117  0.42353568  1  0.0765  0  0.106771  0.078335  0  1.013387  0
H  H93  1  0.38572277  0.23483597  0.92353462  1  0.076435  0  0.106799  0.078356  0  1.013427  0
H  H94  1  0.88572023  0.73483762  0.57646536  1  0.076486  0  0.106789  0.078379  0  1.013384  0
H  H95  1  0.61427896  0.76516213  0.07646429  1  0.076476  0  0.106765  0.078316  0  1.013388  0
H  H96  1  0.25714209  0.20818872  0.41292320  1  0.077272  0  0.113849  0.098581  0  0.970851  0
H  H97  1  0.24286022  0.29180636  0.91292311  1  0.077272  0  0.113836  0.098612  0  0.970933  0
H  H98  1  0.74285874  0.79181007  0.58707678  1  0.077265  0  0.113834  0.098577  0  0.970901  0
H  H99  1  0.75714144  0.70819037  0.08707687  1  0.077261  0  0.11382  0.098537  0  0.9709  0
H  H100  1  0.19914904  0.39501200  0.68173733  1  0.658267  0  0.284572  0.390466  0  0.948917  0
H  H101  1  0.30084940  0.10498868  0.18173800  1  0.65825  0  0.284571  0.390447  0  0.948949  0
H  H102  1  0.80085001  0.60498885  0.31826159  1  0.658258  0  0.284574  0.390442  0  0.948951  0
H  H103  1  0.69914969  0.89501285  0.81826198  1  0.658258  0  0.284561  0.390447  0  0.948942  0
H  H104  1  0.07351329  0.41960585  0.64652478  1  0.606178  0  0.305192  0.377935  0  0.919453  0
H  H105  1  0.42648516  0.08039623  0.14652500  1  0.6062  0  0.305193  0.377967  0  0.919398  0
H  H106  1  0.92648583  0.58039638  0.35347467  1  0.606204  0  0.305182  0.377963  0  0.919394  0
H  H107  1  0.57351393  0.91960531  0.85347498  1  0.60618  0  0.305165  0.377932  0  0.919422  0
C  C108  1  0.22511322  0.14195800  0.80590320  1  0.465141  0  0.025602  0.048661  0  3.996379  0
C  C109  1  0.27488738  0.35804401  0.30590644  1  0.465175  0  0.02562  0.048664  0  3.996315  0
C  C110  1  0.77488681  0.85804354  0.19409572  1  0.464934  0  0.025662  0.048774  0  3.99631  0
C  C111  1  0.72511359  0.64195753  0.69409460  1  0.465132  0  0.025609  0.048679  0  3.99637  0
C  C112  1  0.34014935  0.10758347  0.82585810  1  -0.04808  0  -0.091574  -0.113016  0  4.053595  0
C  C113  1  0.15985319  0.39241922  0.32586074  1  -0.047785  0  -0.09154  -0.113017  0  4.053584  0
C  C114  1  0.65985349  0.89241808  0.17414028  1  -0.047731  0  -0.091624  -0.113126  0  4.053668  0
C  C115  1  0.84014583  0.60758094  0.67414030  1  -0.047624  0  -0.091577  -0.113066  0  4.053665  0
C  C116  1  0.44195265  0.11651987  0.78016501  1  -0.056971  0  -0.08074  -0.144134  0  3.901061  0
C  C117  1  0.05804699  0.38348283  0.28016866  1  -0.05705  0  -0.080698  -0.144014  0  3.900906  0
C  C118  1  0.55804734  0.88348098  0.21983284  1  -0.057048  0  -0.080648  -0.144091  0  3.900979  0
C  C119  1  0.94195109  0.61651733  0.71983292  1  -0.057045  0  -0.080691  -0.144001  0  3.900996  0
C  C120  1  0.42670145  0.15954474  0.71373564  1  0.409173  0  0.107916  0.231486  0  4.023644  0
C  C121  1  0.07329999  0.34045868  0.21373931  1  0.409389  0  0.10784  0.231382  0  4.023758  0
C  C122  1  0.57330049  0.84045749  0.28626274  1  0.409227  0  0.107866  0.231477  0  4.023747  0
C  C123  1  0.92669906  0.65954216  0.78626226  1  0.40924  0  0.107869  0.23146  0  4.023812  0
C  C124  1  0.30830071  0.19393376  0.69776469  1  0.503204  0  0.030156  -0.02395  0  3.885775  0
C  C125  1  0.19169980  0.30607036  0.19776737  1  0.502568  0  0.030184  -0.023971  0  3.88592  0
C  C126  1  0.69170032  0.80606916  0.30223476  1  0.503188  0  0.030218  -0.023901  0  3.885841  0
C  C127  1  0.80829932  0.69393186  0.80223367  1  0.502638  0  0.030187  -0.02395  0  3.885847  0
C  C128  1  0.53637240  0.20190592  0.60093501  1  1.834149  0  0.318552  0.61364  0  4.21598  0
C  C129  1  0.96362802  0.29809596  0.10093838  1  1.833842  0  0.318502  0.613612  0  4.215893  0
C  C130  1  0.46362763  0.79809562  0.39906231  1  1.833829  0  0.318546  0.613649  0  4.215859  0
C  C131  1  0.03637103  0.70190489  0.89906267  1  1.834204  0  0.318499  0.613617  0  4.215943  0
C  C132  1  0.67713729  0.22730436  0.49947456  1  0.34321  0  -0.050209  -0.042973  0  3.966098  0
C  C133  1  0.82286481  0.27269872  0.99947665  1  0.343195  0  -0.050214  -0.043029  0  3.966121  0
C  C134  1  0.32286271  0.77269649  0.50052382  1  0.34317  0  -0.050179  -0.042935  0  3.966115  0
C  C135  1  0.17713616  0.72730282  0.00052386  1  0.343201  0  -0.050236  -0.043175  0  3.966312  0
C  C136  1  0.59880417  0.18431018  0.44038385  1  -0.04412  0  0.002974  0.070397  0  3.937376  0
C  C137  1  0.90119775  0.31569154  0.94038544  1  -0.044094  0  0.002985  0.070452  0  3.937399  0
C  C138  1  0.40119481  0.81568929  0.55961506  1  -0.044122  0  0.002955  0.070438  0  3.937268  0
C  C139  1  0.09880140  0.68431137  0.05961401  1  -0.044738  0  0.003005  0.070554  0  3.937405  0
C  C140  1  0.54815833  0.09483021  0.44535076  1  -0.035366  0  -0.072066  -0.085746  0  3.943408  0
C  C141  1  0.95184353  0.40517014  0.94535128  1  -0.035376  0  -0.072074  -0.085876  0  3.943548  0
C  C142  1  0.45184068  0.90516995  0.55464869  1  -0.035367  0  -0.0721  -0.08585  0  3.943521  0
C  C143  1  0.04815374  0.59483277  0.05464869  1  -0.035398  0  -0.072101  -0.085881  0  3.943653  0
C  C144  1  0.47469658  0.05851572  0.39017858  1  -0.017764  0  -0.089414  -0.118238  0  3.988063  0
C  C145  1  0.02530778  0.44148350  0.89017780  1  -0.017749  0  -0.089363  -0.118176  0  3.987976  0
C  C146  1  0.52530515  0.94148239  0.60981980  1  -0.017802  0  -0.089367  -0.11829  0  3.988164  0
C  C147  1  0.97469232  0.55851941  0.10982059  1  -0.017983  0  -0.089321  -0.118189  0  3.988155  0
C  C148  1  0.45565275  0.11250660  0.33048576  1  0.437782  0  0.03181  0.07365  0  3.96306  0
C  C149  1  0.04434957  0.38749127  0.83048607  1  0.437783  0  0.03185  0.073746  0  3.962894  0
C  C150  1  0.54435084  0.88749082  0.66951315  1  0.43786  0  0.031872  0.073947  0  3.9628  0
C  C151  1  0.95564861  0.61251095  0.16951391  1  0.438057  0  0.031857  0.073797  0  3.96279  0
C  C152  1  0.57543014  0.23390580  0.37845119  1  0.462254  0  0.049792  0.041657  0  3.887344  0
C  C153  1  0.92457161  0.26609457  0.87845387  1  0.462108  0  0.049811  0.041756  0  3.887154  0
C  C154  1  0.42456975  0.76609298  0.62154773  1  0.462268  0  0.049798  0.04169  0  3.887184  0
C  C155  1  0.07542751  0.73390765  0.12154611  1  0.46278  0  0.049786  0.04166  0  3.887205  0
C  C156  1  0.08011987  0.05905524  0.61464577  1  0.470301  0  0.041605  0.087346  0  3.935322  0
C  C157  1  0.41988483  0.44094136  0.11464534  1  0.470198  0  0.041502  0.087359  0  3.935522  0
C  C158  1  0.91988200  0.94094562  0.38535581  1  0.470211  0  0.041619  0.087388  0  3.935476  0
C  C159  1  0.58011593  0.55905605  0.88535464  1  0.469625  0  0.041528  0.087418  0  3.935608  0
C  C160  1  0.13534833  0.00932422  0.56038744  1  -0.008122  0  -0.084844  -0.122099  0  3.973625  0
C  C161  1  0.36465732  0.49067447  0.06038643  1  -0.00865  0  -0.084747  -0.122018  0  3.973471  0
C  C162  1  0.86465351  0.99067595  0.43961361  1  -0.008247  0  -0.084836  -0.122069  0  3.973791  0
C  C163  1  0.63534546  0.50932569  0.93961248  1  -0.008067  0  -0.084842  -0.122129  0  3.973693  0
C  C164  1  0.15915262  0.05224685  0.49526018  1  0.022673  0  -0.065267  -0.075077  0  3.916156  0
C  C165  1  0.34084709  0.44774956  0.99525956  1  0.02254  0  -0.065246  -0.075029  0  3.916163  0
C  C166  1  0.84084824  0.94775263  0.50474140  1  0.022488  0  -0.065343  -0.075147  0  3.916172  0
C  C167  1  0.65915364  0.55224716  0.00474042  1  0.022508  0  -0.06528  -0.07517  0  3.916242  0
C  C168  1  0.12808628  0.14405668  0.48640025  1  0.005069  0  -0.000403  0.06124  0  3.945323  0
C  C169  1  0.37191250  0.35594042  0.98640074  1  0.004858  0  -0.000505  0.06107  0  3.945337  0
C  C170  1  0.87191555  0.85594349  0.51360080  1  0.004957  0  -0.000386  0.061169  0  3.945268  0
C  C171  1  0.62808360  0.64405767  0.01359977  1  0.004768  0  -0.000446  0.061225  0  3.945241  0
C  C172  1  0.07375501  0.18840513  0.54372447  1  0.46968  0  0.045549  0.035099  0  3.942086  0
C  C173  1  0.42624477  0.31158942  0.04372462  1  0.470136  0  0.045664  0.035284  0  3.941878  0
C  C174  1  0.92624585  0.81159434  0.45627604  1  0.4703  0  0.045597  0.035292  0  3.941955  0
C  C175  1  0.57375404  0.68840661  0.95627642  1  0.470262  0  0.045612  0.035238  0  3.941839  0
C  C176  1  0.67357388  0.14148884  0.12243305  1  0.44569  0  0.018604  0.028113  0  4.029578  0
C  C177  1  0.82642372  0.35851233  0.62243245  1  0.445438  0  0.018593  0.028106  0  4.029588  0
C  C178  1  0.32642699  0.85851063  0.87756693  1  0.445717  0  0.018627  0.028159  0  4.029474  0
C  C179  1  0.17357429  0.64148645  0.37756699  1  0.445716  0  0.018609  0.028085  0  4.029637  0
C  C180  1  0.77532047  0.08811508  0.10583399  1  -0.01947  0  -0.085515  -0.114882  0  4.057619  0
C  C181  1  0.72467525  0.41188679  0.60583385  1  -0.019708  0  -0.085458  -0.114816  0  4.057644  0
C  C182  1  0.22468042  0.91188508  0.89416492  1  -0.019443  0  -0.085531  -0.11492  0  4.057676  0
C  C183  1  0.27532091  0.58811268  0.39416506  1  -0.019476  0  -0.085513  -0.114906  0  4.057647  0
C  C184  1  0.87307710  0.08245335  0.15412283  1  0.039081  0  -0.068231  -0.127595  0  3.89843  0
C  C185  1  0.62691955  0.41754644  0.65412317  1  0.03951  0  -0.068288  -0.127682  0  3.898517  0
C  C186  1  0.12692380  0.91754682  0.84587662  1  0.039074  0  -0.068196  -0.127467  0  3.898355  0
C  C187  1  0.37307756  0.58245303  0.34587575  1  0.039055  0  -0.06823  -0.127539  0  3.898321  0
C  C188  1  0.86784382  0.13082239  0.21895913  1  0.384085  0  0.115447  0.238888  0  4.011165  0
C  C189  1  0.63215579  0.36917805  0.71895895  1  0.384088  0  0.115435  0.238901  0  4.011124  0
C  C190  1  0.13215607  0.86917639  0.78104085  1  0.384093  0  0.115413  0.238781  0  4.011289  0
C  C191  1  0.36784326  0.63082279  0.28104049  1  0.384074  0  0.115407  0.238816  0  4.011195  0
C  C192  1  0.76174080  0.18348305  0.23166731  1  0.504947  0  0.035506  -0.018269  0  3.883083  0
C  C193  1  0.73826077  0.31651877  0.73166721  1  0.504948  0  0.035529  -0.018249  0  3.883069  0
C  C194  1  0.23825902  0.81651436  0.76833320  1  0.505083  0  0.035557  -0.018166  0  3.88304  0
C  C195  1  0.26173925  0.68348277  0.26833223  1  0.504954  0  0.035606  -0.018071  0  3.882878  0
C  C196  1  0.98780180  0.16496382  0.33109121  1  1.824587  0  0.324671  0.617913  0  4.210564  0
C  C197  1  0.51219883  0.33503452  0.83109098  1  1.824365  0  0.324702  0.618038  0  4.210482  0
C  C198  1  0.01219440  0.83503634  0.66891037  1  1.824624  0  0.32472  0.617994  0  4.210564  0
C  C199  1  0.48780478  0.66496359  0.16890953  1  1.824396  0  0.324758  0.618102  0  4.210358  0
C  C200  1  0.15485531  0.19716815  0.41880123  1  0.330361  0  -0.051559  -0.041197  0  3.977498  0
C  C201  1  0.34514333  0.30282830  0.91880120  1  0.330345  0  -0.051598  -0.041246  0  3.977616  0
C  C202  1  0.84514274  0.80283132  0.58119981  1  0.330356  0  -0.051564  -0.04124  0  3.977564  0
C  C203  1  0.65485743  0.69716911  0.08119931  1  0.330365  0  -0.051527  -0.041123  0  3.977456  0
S  S204  1  0.80315063  0.05304675  0.76000387  1  3.764943  0  0.541407  1.385075  0  6.439918  0
S  S205  1  0.69684905  0.44695367  0.26000438  1  3.764689  0  0.541297  1.384854  0  6.44008  0
S  S206  1  0.19684933  0.94695341  0.23999717  1  3.764537  0  0.541266  1.384803  0  6.440146  0
S  S207  1  0.30314997  0.55304649  0.73999613  1  3.764872  0  0.541301  1.384904  0  6.439991  0
N  N208  1  0.10799959  0.15364508  0.35446970  1  -1.218551  0  -0.438099  -0.41402  0  3.54535  0
N  N209  1  0.39200092  0.34635347  0.85446914  1  -1.218403  0  -0.438141  -0.414083  0  3.545307  0
N  N210  1  0.89199943  0.84635508  0.64553135  1  -1.218547  0  -0.438118  -0.413976  0  3.545347  0
N  N211  1  0.60799904  0.65364670  0.14553084  1  -1.218607  0  -0.438148  -0.414103  0  3.545401  0
N  N212  1  0.21139172  0.18476520  0.74336151  1  -1.266935  0  -0.338606  -0.22313  0  3.569256  0
N  N213  1  0.28860877  0.31523683  0.24336477  1  -1.266186  0  -0.338612  -0.223052  0  3.569112  0
N  N214  1  0.78861015  0.81523565  0.25663741  1  -1.266913  0  -0.338686  -0.223189  0  3.569189  0
N  N215  1  0.71139035  0.68476539  0.75663627  1  -1.266359  0  -0.338649  -0.223157  0  3.569245  0
N  N216  1  0.52976878  0.16516051  0.66891327  1  -1.309377  0  -0.411382  -0.432958  0  3.590177  0
N  N217  1  0.97023276  0.33484271  0.16891610  1  -1.309463  0  -0.411302  -0.432882  0  3.590178  0
N  N218  1  0.47023309  0.83484034  0.33108511  1  -1.309445  0  -0.411326  -0.432875  0  3.590144  0
N  N219  1  0.02976535  0.66515814  0.83108494  1  -1.309447  0  -0.41129  -0.432913  0  3.590163  0
N  N220  1  0.65012990  0.18748178  0.56863683  1  -1.233511  0  -0.441132  -0.430216  0  3.548303  0
N  N221  1  0.84987322  0.31251875  0.06863907  1  -1.233143  0  -0.441162  -0.430125  0  3.548374  0
N  N222  1  0.34987093  0.81251701  0.43136155  1  -1.23316  0  -0.441109  -0.430118  0  3.548383  0
N  N223  1  0.15012778  0.68748348  0.93136091  1  -1.233466  0  -0.441153  -0.430101  0  3.548472  0
N  N224  1  0.04951387  0.14733991  0.60646667  1  -1.247491  0  -0.333206  -0.240006  0  3.526735  0
N  N225  1  0.45048612  0.35265668  0.10646629  1  -1.247081  0  -0.333182  -0.23997  0  3.52684  0
N  N226  1  0.95048515  0.85266025  0.39353384  1  -1.247625  0  -0.333245  -0.240095  0  3.526748  0
N  N227  1  0.54951464  0.64734073  0.89353369  1  -1.247023  0  -0.333119  -0.239912  0  3.526778  0
N  N228  1  0.66789737  0.18794299  0.18416623  1  -1.223761  0  -0.336956  -0.233302  0  3.59171  0
N  N229  1  0.83210318  0.31205885  0.68416512  1  -1.223739  0  -0.336964  -0.233342  0  3.591652  0
N  N230  1  0.33210342  0.81205511  0.81583375  1  -1.223812  0  -0.336982  -0.233364  0  3.591651  0
N  N231  1  0.16789587  0.68794199  0.31583380  1  -1.22375  0  -0.337006  -0.23342  0  3.591633  0
N  N232  1  0.96909445  0.12588920  0.26411665  1  -1.286543  0  -0.40909  -0.426182  0  3.573304  0
N  N233  1  0.53090614  0.37411054  0.76411695  1  -1.286528  0  -0.409086  -0.426178  0  3.57323  0
N  N234  1  0.03090447  0.87410889  0.73588439  1  -1.286566  0  -0.409094  -0.426223  0  3.573459  0
N  N235  1  0.46909378  0.62588894  0.23588303  1  -1.28655  0  -0.409097  -0.426205  0  3.57333  0
N  N236  1  0.50589896  0.19848856  0.32463058  1  -1.249605  0  -0.333557  -0.24913  0  3.548421  0
N  N237  1  0.99410257  0.30150909  0.82463169  1  -1.249589  0  -0.333572  -0.24919  0  3.548196  0
N  N238  1  0.49410278  0.80150955  0.67536834  1  -1.249591  0  -0.333606  -0.249285  0  3.548302  0
N  N239  1  0.00589749  0.69849313  0.17536776  1  -1.249617  0  -0.333622  -0.249269  0  3.548223  0
O  O240  1  0.90635036  0.20413002  0.36583667  1  -1.181615  0  -0.315834  -0.541058  0  2.095855  0
O  O241  1  0.59365027  0.29586692  0.86583597  1  -1.181432  0  -0.315855  -0.541129  0  2.095853  0
O  O242  1  0.09364856  0.79586808  0.63416437  1  -1.181589  0  -0.31585  -0.54109  0  2.095825  0
O  O243  1  0.40634969  0.70413324  0.13416295  1  -1.181359  0  -0.31589  -0.541172  0  2.095629  0
O  O244  1  0.45063422  0.24214664  0.57093246  1  -1.170325  0  -0.322051  -0.537097  0  2.063817  0
O  O245  1  0.04937057  0.25785342  0.07093455  1  -1.17028  0  -0.322065  -0.537178  0  2.063692  0
O  O246  1  0.54936942  0.75785216  0.42906698  1  -1.170294  0  -0.322129  -0.537219  0  2.063645  0
O  O247  1  0.95062942  0.74214743  0.92906596  1  -1.170364  0  -0.322083  -0.537176  0  2.063744  0
O  O248  1  0.12417260  0.36675484  0.65602193  1  -1.26137  0  -0.587938  -0.763505  0  2.025858  0
O  O249  1  0.37582768  0.13324586  0.15602317  1  -1.261353  0  -0.587939  -0.76352  0  2.025832  0
O  O250  1  0.87582739  0.63324601  0.34397698  1  -1.261364  0  -0.587927  -0.763511  0  2.025822  0
O  O251  1  0.62417325  0.86675500  0.84397787  1  -1.261347  0  -0.587911  -0.76349  0  2.025826  0
O  O252  1  0.93708948  0.08903363  0.76471816  1  -1.342215  0  -0.378992  -0.671202  0  2.264985  0
O  O253  1  0.56290924  0.41096610  0.26471808  1  -1.342142  0  -0.378911  -0.671078  0  2.264958  0
O  O254  1  0.06290958  0.91096721  0.23528342  1  -1.342123  0  -0.378922  -0.671087  0  2.26502  0
O  O255  1  0.43709069  0.58903337  0.73528297  1  -1.34212  0  -0.378907  -0.671094  0  2.264919  0
O  O256  1  0.80561540  0.94882610  0.76645306  1  -1.332862  0  -0.36361  -0.676578  0  2.236603  0
O  O257  1  0.69438407  0.55117288  0.26645316  1  -1.332857  0  -0.36361  -0.676547  0  2.236648  0
O  O258  1  0.19438455  0.05117407  0.23354745  1  -1.332862  0  -0.363632  -0.676601  0  2.236631  0
O  O259  1  0.30561488  0.44882591  0.73354735  1  -1.332906  0  -0.363614  -0.676565  0  2.236589  0
O  O260  1  0.72668124  0.08922793  0.81786158  1  -1.350691  0  -0.37611  -0.656126  0  2.137107  0
O  O261  1  0.77331752  0.41077110  0.31786162  1  -1.350516  0  -0.376114  -0.656119  0  2.13715  0
O  O262  1  0.27331777  0.91077224  0.18213946  1  -1.350648  0  -0.376069  -0.656058  0  2.137098  0
O  O263  1  0.22668237  0.58922769  0.68213942  1  -1.350641  0  -0.376067  -0.656067  0  2.137152  0
O  O264  1  0.75143851  0.07547788  0.68841504  1  -1.36722  0  -0.381417  -0.69445  0  2.203247  0
O  O265  1  0.74856292  0.42452259  0.18841505  1  -1.367209  0  -0.381392  -0.694387  0  2.203277  0
O  O266  1  0.24856242  0.92452297  0.31158601  1  -1.36693  0  -0.381375  -0.694357  0  2.203349  0
O  O267  1  0.25143797  0.57547758  0.81158546  1  -1.367243  0  -0.38144  -0.69445  0  2.20327  0
