# generated using pymatgen
data_AlH10C12NClO5
_symmetry_space_group_name_H-M   'P 1'
_cell_length_a   6.63277320
_cell_length_b   10.98430712
_cell_length_c   16.95273873
_cell_angle_alpha   88.28995208
_cell_angle_beta   82.73596752
_cell_angle_gamma   72.54427701
_symmetry_Int_Tables_number   1
_chemical_formula_structural   AlH10C12NClO5
_chemical_formula_sum   'Al2 H20 C24 N2 Cl2 O10'
_cell_volume   1168.73835250
_cell_formula_units_Z   2
loop_
 _symmetry_equiv_pos_site_id
 _symmetry_equiv_pos_as_xyz
  1  'x, y, z'
loop_
 _atom_site_type_symbol
 _atom_site_label
 _atom_site_symmetry_multiplicity
 _atom_site_fract_x
 _atom_site_fract_y
 _atom_site_fract_z
 _atom_site_occupancy
 _atom_site_pbe_bader_charge
 _atom_site_pbe_bader_spin_density
 _atom_site_pbe_cm5_charge
 _atom_site_pbe_ddec_charge
 _atom_site_pbe_ddec_spin_density
 _atom_site_pbe_ddec_sum_bond_order
 _atom_site_pbe_magmom
Al  Al0  1  0.99864109  0.50397696  0.50057832  1  2.499486  0  0.394061  1.645713  0  2.575927  0
Al  Al1  1  0.50100041  0.49912967  0.50094849  1  2.499118  0  0.393943  1.638789  0  2.586933  0
H  H2  1  0.16634962  0.64656910  0.55104684  1  0.612998  0  0.351888  0.426758  0  0.860366  0
H  H3  1  0.84149779  0.35743248  0.44910580  1  0.652068  0  0.352506  0.427014  0  0.860112  0
H  H4  1  0.65439216  0.44559916  0.26537948  1  0.096198  0  0.111501  0.119962  0  0.990216  0
H  H5  1  0.72679086  0.43474645  0.11633702  1  0.121477  0  0.107771  0.112894  0  1.01152  0
H  H6  1  0.06217149  0.62453744  0.10352641  1  0.119934  0  0.111336  0.12742  0  0.995356  0
H  H7  1  0.95075918  0.37277964  0.89550433  1  0.105403  0  0.111881  0.128123  0  0.994827  0
H  H8  1  0.28260883  0.55768279  0.88668800  1  0.114092  0  0.107528  0.112834  0  1.011693  0
H  H9  1  0.34939539  0.55020738  0.73753122  1  0.108157  0  0.110986  0.119056  0  0.992689  0
H  H10  1  0.54160869  0.12041133  0.37285298  1  0.009275  0  0.092262  0.088899  0  0.975678  0
H  H11  1  0.74066937  0.10410581  0.43574341  1  0.018929  0  0.091505  0.089435  0  0.994548  0
H  H12  1  0.82714078  0.88320954  0.41308406  1  0.043625  0  0.092029  0.091555  0  1.00113  0
H  H13  1  0.58987092  0.90076492  0.37101069  1  0.016515  0  0.088702  0.087618  0  0.983105  0
H  H14  1  0.80428870  0.90446820  0.56277768  1  0.044577  0  0.093064  0.091417  0  0.98818  0
H  H15  1  0.58291551  0.88430165  0.62572040  1  0.020601  0  0.093417  0.09044  0  0.974209  0
H  H16  1  0.64669776  0.12457914  0.58492832  1  0.040205  0  0.095498  0.096927  0  0.983142  0
H  H17  1  0.40232321  0.10272269  0.62755166  1  0.023664  0  0.087826  0.085199  0  0.995291  0
H  H18  1  0.17915385  0.09873441  0.43699162  1  0.011233  0  0.088653  0.083004  0  0.982918  0
H  H19  1  0.10911544  0.11768023  0.54065377  1  0.049351  0  0.092716  0.091952  0  0.994489  0
H  H20  1  0.24442703  0.89844257  0.56195153  1  0.021162  0  0.089226  0.084095  0  0.987725  0
H  H21  1  0.25979738  0.87880387  0.45840158  1  0.043825  0  0.093234  0.09264  0  0.984919  0
C  C22  1  0.63864701  0.73220381  0.49988146  1  1.579275  0  0.277679  0.646503  0  4.013064  0
C  C23  1  0.70982287  0.47693896  0.64393397  1  1.600876  0  0.262297  0.641552  0  4.114473  0
C  C24  1  0.35688035  0.27082656  0.50031554  1  1.531536  0  0.277571  0.643539  0  4.020765  0
C  C25  1  0.29156939  0.52462433  0.35721778  1  1.581265  0  0.260771  0.638496  0  4.11881  0
C  C26  1  0.31838514  0.53388208  0.26841350  1  0.052722  0  -0.011576  -0.088645  0  3.912332  0
C  C27  1  0.52578825  0.48193583  0.22872875  1  0.016061  0  -0.078302  -0.073067  0  3.98719  0
C  C28  1  0.56668672  0.47636031  0.14661002  1  -0.05242  0  -0.086217  -0.149783  0  3.959912  0
C  C29  1  0.39665078  0.52630427  0.10150835  1  0.365244  0  0.089282  0.18844  0  4.046087  0
C  C30  1  0.19050956  0.58321813  0.13956364  1  0.066032  0  -0.084316  -0.21199  0  3.936854  0
C  C31  1  0.15093142  0.58648394  0.22237346  1  -0.030819  0  0.022382  0.140617  0  4.026188  0
C  C32  1  0.82032816  0.41394062  0.86036005  1  0.122559  0  -0.085022  -0.21279  0  3.935679  0
C  C33  1  0.61469524  0.46870800  0.89952770  1  0.307996  0  0.088681  0.188089  0  4.044641  0
C  C34  1  0.44218681  0.51802434  0.85548233  1  0.0499  0  -0.085706  -0.150359  0  3.959989  0
C  C35  1  0.47992434  0.51433898  0.77330890  1  -0.014121  0  -0.078838  -0.071254  0  3.987537  0
C  C36  1  0.68666484  0.46508794  0.73259018  1  -0.002529  0  -0.0123  -0.091021  0  3.914025  0
C  C37  1  0.85664461  0.41265774  0.77747394  1  -0.04658  0  0.022726  0.141292  0  4.025997  0
C  C38  1  0.59937913  0.07538807  0.42788118  1  0.010564  0  -0.157316  -0.171088  0  3.863888  0
C  C39  1  0.65417243  0.92850824  0.42203285  1  -0.032382  0  -0.159083  -0.176801  0  3.865186  0
C  C40  1  0.55792983  0.87694936  0.49888960  1  0.034864  0  -0.014968  0.008519  0  3.814034  0
C  C41  1  0.62938347  0.93010575  0.57068103  1  -0.031978  0  -0.155221  -0.168953  0  3.849822  0
C  C42  1  0.52733896  0.07669086  0.57642417  1  -0.026755  0  -0.154811  -0.171302  0  3.842217  0
C  C43  1  0.42744213  0.12604593  0.49939859  1  0.07836  0  -0.014291  0.015535  0  3.808003  0
C  C44  1  0.24003362  0.07242481  0.49456265  1  -0.010269  0  -0.164237  -0.181292  0  3.891607  0
C  C45  1  0.31359674  0.92600238  0.50429959  1  -0.060473  0  -0.163412  -0.179264  0  3.895831  0
N  N46  1  0.41473195  0.52653205  0.01758798  1  -0.496183  0  -0.147669  -0.132146  0  3.270768  0
N  N47  1  0.59839159  0.46788972  0.98349109  1  -0.525518  0  -0.147239  -0.131799  0  3.260856  0
Cl  Cl48  1  0.89350413  0.66167354  0.26456595  1  -0.193202  0  0.015196  -0.05121  0  1.534803  0
Cl  Cl49  1  0.11344194  0.34030025  0.73338387  1  -0.192117  0  0.013727  -0.053072  0  1.53267  0
O  O50  1  0.83948724  0.67972451  0.49174966  1  -1.276998  0  -0.236597  -0.598674  0  2.350054  0
O  O51  1  0.55459242  0.46685288  0.61017817  1  -1.250565  0  -0.236654  -0.586162  0  2.343576  0
O  O52  1  0.50231461  0.32587532  0.49217361  1  -1.273082  0  -0.236254  -0.601825  0  2.354486  0
O  O53  1  0.12173736  0.50503723  0.39065817  1  -1.252408  0  -0.237487  -0.594413  0  2.383783  0
O  O54  1  0.15827816  0.32844465  0.50871752  1  -1.275799  0  -0.232042  -0.592076  0  2.38054  0
O  O55  1  0.44824922  0.53104635  0.39144907  1  -1.250093  0  -0.236725  -0.585335  0  2.345234  0
O  O56  1  0.50086789  0.67203813  0.51040809  1  -1.265679  0  -0.231535  -0.594883  0  2.375198  0
O  O57  1  0.87487009  0.50210268  0.61031965  1  -1.246356  0  -0.237314  -0.594647  0  2.37835  0
O  O58  1  0.21140207  0.55696650  0.53624990  1  -1.411236  0  -0.447945  -0.985107  0  2.202387  0
O  O59  1  0.78968407  0.44647368  0.46513120  1  -1.451582  0  -0.448768  -0.98537  0  2.206896  0
