# generated using pymatgen
data_BaH14C10O13
_symmetry_space_group_name_H-M   'P 1'
_cell_length_a   6.59594241
_cell_length_b   6.66233401
_cell_length_c   19.15514238
_cell_angle_alpha   89.99996691
_cell_angle_beta   90.00010010
_cell_angle_gamma   116.15542351
_symmetry_Int_Tables_number   1
_chemical_formula_structural   BaH14C10O13
_chemical_formula_sum   'Ba2 H28 C20 O26'
_cell_volume   755.56573728
_cell_formula_units_Z   2
loop_
 _symmetry_equiv_pos_site_id
 _symmetry_equiv_pos_as_xyz
  1  'x, y, z'
loop_
 _atom_site_type_symbol
 _atom_site_label
 _atom_site_symmetry_multiplicity
 _atom_site_fract_x
 _atom_site_fract_y
 _atom_site_fract_z
 _atom_site_occupancy
 _atom_site_hle17_bader_spin_density
 _atom_site_hle17_ddec_charge
 _atom_site_hle17_ddec_spin_density
 _atom_site_hle17_ddec_sum_bond_order
 _atom_site_hle17_magmom
 _atom_site_hse06_10hf_bader_spin_density
 _atom_site_hse06_10hf_ddec_charge
 _atom_site_hse06_10hf_ddec_spin_density
 _atom_site_hse06_10hf_ddec_sum_bond_order
 _atom_site_hse06_10hf_magmom
 _atom_site_hse06_bader_spin_density
 _atom_site_hse06_ddec_charge
 _atom_site_hse06_ddec_spin_density
 _atom_site_hse06_ddec_sum_bond_order
 _atom_site_hse06_magmom
 _atom_site_pbe_bader_spin_density
 _atom_site_pbe_cm5_charge
 _atom_site_pbe_ddec_charge
 _atom_site_pbe_ddec_spin_density
 _atom_site_pbe_ddec_sum_bond_order
 _atom_site_pbe_magmom
Ba  Ba0  1  0.60432478  0.41759391  0.74999978  1  0  1.677683  0  1.082488  0  0  1.528784  0  1.485359  0  0  1.564997  0  1.440909  0  0  0.912202  1.502274  0  1.516755  0
Ba  Ba1  1  0.39567543  0.58240541  0.24999924  1  0  1.677674  0  1.082514  0  0  1.528792  0  1.485364  0  0  1.565003  0  1.440915  0  0  0.912208  1.502274  0  1.516762  0
H  H2  1  0.11757710  0.57716208  0.62245946  1  0  0.120534  0  0.971596  0  0  0.124466  0  1.040074  0  0  0.129599  0  1.035604  0  0  0.122057  0.1208  0  1.043327  0
H  H3  1  0.11757175  0.57715886  0.87753978  1  0  0.120537  0  0.971588  0  0  0.124469  0  1.040062  0  0  0.129603  0  1.03559  0  0  0.122063  0.120803  0  1.043319  0
H  H4  1  0.88242461  0.42284058  0.37754062  1  0  0.120521  0  0.9716  0  0  0.124462  0  1.040066  0  0  0.129596  0  1.035594  0  0  0.122056  0.120796  0  1.04332  0
H  H5  1  0.88242468  0.42283880  0.12245977  1  0  0.120539  0  0.971594  0  0  0.124491  0  1.040053  0  0  0.129623  0  1.035582  0  0  0.122061  0.120824  0  1.043309  0
H  H6  1  0.74179761  0.88355596  0.50493608  1  0  0.395183  0  0.926532  0  0  0.358937  0  1.004229  0  0  0.371956  0  0.986646  0  0  0.296392  0.349874  0  1.016448  0
H  H7  1  0.74179743  0.88355616  0.99506452  1  0  0.395167  0  0.926493  0  0  0.358932  0  1.004223  0  0  0.37195  0  0.986641  0  0  0.296374  0.349872  0  1.016437  0
H  H8  1  0.25820184  0.11644504  0.49506451  1  0  0.395173  0  0.926541  0  0  0.35893  0  1.00424  0  0  0.371947  0  0.986659  0  0  0.296384  0.349867  0  1.016459  0
H  H9  1  0.25819976  0.11644318  0.00493555  1  0  0.395179  0  0.926534  0  0  0.35894  0  1.004225  0  0  0.371957  0  0.986645  0  0  0.296387  0.349873  0  1.016451  0
H  H10  1  0.67447236  0.03056659  0.62712736  1  0  0.429536  0  0.866431  0  0  0.397262  0  0.93045  0  0  0.408506  0  0.913985  0  0  0.299539  0.389309  0  0.942082  0
H  H11  1  0.67446849  0.03056671  0.87287286  1  0  0.429542  0  0.866426  0  0  0.397263  0  0.930456  0  0  0.408505  0  0.913992  0  0  0.299554  0.389306  0  0.942094  0
H  H12  1  0.32553088  0.96943271  0.37287271  1  0  0.429573  0  0.866374  0  0  0.397271  0  0.930441  0  0  0.408512  0  0.913978  0  0  0.299548  0.389318  0  0.94207  0
H  H13  1  0.32553172  0.96943261  0.12712774  1  0  0.429581  0  0.866368  0  0  0.397275  0  0.930439  0  0  0.408518  0  0.913975  0  0  0.299565  0.38932  0  0.942073  0
H  H14  1  0.47084394  0.08606581  0.61405508  1  0  0.419489  0  0.880439  0  0  0.386907  0  0.94631  0  0  0.397579  0  0.930625  0  0  0.298328  0.379301  0  0.957461  0
H  H15  1  0.47084090  0.08606426  0.88594500  1  0  0.41954  0  0.880387  0  0  0.386971  0  0.946229  0  0  0.397642  0  0.930546  0  0  0.298394  0.379368  0  0.957376  0
H  H16  1  0.52915929  0.91393349  0.38594499  1  0  0.419547  0  0.880375  0  0  0.386977  0  0.946219  0  0  0.39765  0  0.930535  0  0  0.298388  0.379369  0  0.957376  0
H  H17  1  0.52916158  0.91393672  0.11405508  1  0  0.419513  0  0.880429  0  0  0.386946  0  0.946267  0  0  0.39762  0  0.930581  0  0  0.298375  0.379338  0  0.957423  0
H  H18  1  0.15022214  0.53858158  0.75000016  1  0  0.42385  0  0.882038  0  0  0.396595  0  0.94002  0  0  0.407232  0  0.924366  0  0  0.293221  0.389064  0  0.951094  0
H  H19  1  0.84977808  0.46141773  0.25000044  1  0  0.423841  0  0.882051  0  0  0.396586  0  0.940033  0  0  0.407223  0  0.924379  0  0  0.293219  0.389051  0  0.951117  0
H  H20  1  0.03830264  0.27596424  0.74999963  1  0  0.418712  0  0.886881  0  0  0.391428  0  0.944252  0  0  0.402222  0  0.928496  0  0  0.293021  0.383778  0  0.955411  0
H  H21  1  0.96169681  0.72403676  0.24999992  1  0  0.418735  0  0.88685  0  0  0.39145  0  0.944224  0  0  0.402245  0  0.928466  0  0  0.293043  0.383801  0  0.95538  0
H  H22  1  0.45428146  0.84064980  0.70921013  1  0  0.424505  0  0.876349  0  0  0.394927  0  0.937912  0  0  0.405725  0  0.922025  0  0  0.299243  0.387252  0  0.949195  0
H  H23  1  0.45427942  0.84064817  0.79078926  1  0  0.424527  0  0.876318  0  0  0.39495  0  0.937878  0  0  0.405748  0  0.921992  0  0  0.299252  0.387272  0  0.949166  0
H  H24  1  0.54572101  0.15935118  0.29078995  1  0  0.42449  0  0.876367  0  0  0.394919  0  0.937919  0  0  0.405716  0  0.922033  0  0  0.299231  0.387243  0  0.949203  0
H  H25  1  0.54572155  0.15935282  0.20921081  1  0  0.424519  0  0.876327  0  0  0.39495  0  0.937877  0  0  0.405748  0  0.92199  0  0  0.299249  0.387275  0  0.94916  0
H  H26  1  0.06832257  0.97973734  0.70983124  1  0  0.426484  0  0.871868  0  0  0.398025  0  0.930629  0  0  0.408461  0  0.915403  0  0  0.304907  0.390659  0  0.941367  0
H  H27  1  0.06831977  0.97973739  0.79016789  1  0  0.426438  0  0.87194  0  0  0.39799  0  0.930688  0  0  0.408427  0  0.915461  0  0  0.304897  0.390623  0  0.941428  0
H  H28  1  0.93168066  0.02026531  0.29016883  1  0  0.42642  0  0.871963  0  0  0.397975  0  0.930706  0  0  0.408411  0  0.915479  0  0  0.304892  0.390613  0  0.941436  0
H  H29  1  0.93167969  0.02026361  0.20983166  1  0  0.426411  0  0.871979  0  0  0.397965  0  0.930723  0  0  0.408401  0  0.915496  0  0  0.304886  0.390598  0  0.94146  0
C  C30  1  0.92626004  0.63352315  0.54128776  1  0  -0.065618  0  3.665896  0  0  -0.054675  0  3.91238  0  0  -0.058641  0  3.931223  0  0  0.000232  -0.052085  0  3.899785  0
C  C31  1  0.92625815  0.63351997  0.95871196  1  0  -0.065692  0  3.6659  0  0  -0.054656  0  3.912359  0  0  -0.058622  0  3.931203  0  0  0.000255  -0.05206  0  3.899755  0
C  C32  1  0.07374319  0.36647950  0.45871231  1  0  -0.065605  0  3.665919  0  0  -0.054671  0  3.912385  0  0  -0.058637  0  3.931229  0  0  0.000245  -0.052079  0  3.89979  0
C  C33  1  0.07373979  0.36647768  0.04128759  1  0  -0.06561  0  3.66591  0  0  -0.054666  0  3.9124  0  0  -0.058631  0  3.931243  0  0  0.000241  -0.052074  0  3.899805  0
C  C34  1  0.85658562  0.58667500  0.47063726  1  0  -0.059944  0  3.671641  0  0  -0.050473  0  3.916577  0  0  -0.054314  0  3.935394  0  0  -0.001476  -0.047962  0  3.904007  0
C  C35  1  0.85658442  0.58667483  0.02936307  1  0  -0.059892  0  3.671662  0  0  -0.050447  0  3.916611  0  0  -0.054284  0  3.935425  0  0  -0.001471  -0.047937  0  3.904043  0
C  C36  1  0.14341535  0.41332599  0.52936281  1  0  -0.059956  0  3.671656  0  0  -0.050481  0  3.9166  0  0  -0.05432  0  3.935415  0  0  -0.001482  -0.047972  0  3.904036  0
C  C37  1  0.14341201  0.41332283  0.97063753  1  0  -0.059974  0  3.671675  0  0  -0.050481  0  3.916599  0  0  -0.054319  0  3.935414  0  0  -0.00149  -0.047974  0  3.904038  0
C  C38  1  0.06670598  0.54445264  0.56804377  1  0  -0.052036  0  3.664021  0  0  -0.087666  0  3.916247  0  0  -0.08721  0  3.932454  0  0  -0.062162  -0.087957  0  3.905539  0
C  C39  1  0.06670243  0.54444945  0.93195701  1  0  -0.052035  0  3.664072  0  0  -0.087684  0  3.916293  0  0  -0.08723  0  3.932501  0  0  -0.062177  -0.087979  0  3.905588  0
C  C40  1  0.93329499  0.45554835  0.43195630  1  0  -0.052009  0  3.663998  0  0  -0.087646  0  3.916225  0  0  -0.087191  0  3.932433  0  0  -0.062146  -0.087937  0  3.905513  0
C  C41  1  0.93329476  0.45554653  0.06804410  1  0  -0.05208  0  3.664018  0  0  -0.087719  0  3.916257  0  0  -0.087265  0  3.932464  0  0  -0.062172  -0.08801  0  3.905548  0
C  C42  1  0.87261472  0.77601464  0.59286239  1  0  0.673713  0  3.856071  0  0  0.611852  0  4.169391  0  0  0.646139  0  4.160314  0  0  0.234745  0.588575  0  4.174956  0
C  C43  1  0.87261254  0.77601478  0.90713779  1  0  0.673927  0  3.855769  0  0  0.611932  0  4.169299  0  0  0.646218  0  4.16022  0  0  0.234768  0.588662  0  4.174856  0
C  C44  1  0.12738700  0.22398802  0.40713768  1  0  0.673653  0  3.856141  0  0  0.611846  0  4.169382  0  0  0.646131  0  4.160307  0  0  0.234738  0.588569  0  4.174945  0
C  C45  1  0.12738540  0.22398287  0.09286176  1  0  0.673768  0  3.856014  0  0  0.61189  0  4.169371  0  0  0.646177  0  4.160292  0  0  0.234736  0.588613  0  4.174932  0
C  C46  1  0.70519629  0.65990223  0.42953180  1  0  0.665459  0  3.804679  0  0  0.610458  0  4.110238  0  0  0.643652  0  4.101473  0  0  0.239201  0.587856  0  4.11568  0
C  C47  1  0.70519457  0.65990042  0.07046790  1  0  0.665409  0  3.804753  0  0  0.610412  0  4.110322  0  0  0.643605  0  4.101559  0  0  0.239197  0.587806  0  4.115773  0
C  C48  1  0.29480467  0.34009876  0.57046775  1  0  0.665446  0  3.804677  0  0  0.610418  0  4.110276  0  0  0.643609  0  4.101514  0  0  0.239193  0.587812  0  4.115726  0
C  C49  1  0.29480187  0.34009724  0.92953217  1  0  0.665364  0  3.804762  0  0  0.610337  0  4.110354  0  0  0.643528  0  4.101594  0  0  0.23913  0.587733  0  4.1158  0
O  O50  1  0.90266007  0.75508894  0.65673559  1  0  -0.651909  0  2.013029  0  0  -0.590996  0  2.248497  0  0  -0.615261  0  2.237747  0  0  -0.324725  -0.574162  0  2.255545  0
O  O51  1  0.90265906  0.75509237  0.84326461  1  0  -0.651975  0  2.012946  0  0  -0.591032  0  2.248501  0  0  -0.615298  0  2.237751  0  0  -0.324741  -0.574203  0  2.255548  0
O  O52  1  0.09734164  0.24491372  0.34326448  1  0  -0.65188  0  2.013042  0  0  -0.590996  0  2.248492  0  0  -0.615262  0  2.237743  0  0  -0.324743  -0.574158  0  2.255532  0
O  O53  1  0.09734039  0.24490862  0.15673598  1  0  -0.651911  0  2.013004  0  0  -0.59099  0  2.248484  0  0  -0.615256  0  2.237734  0  0  -0.32471  -0.574153  0  2.255526  0
O  O54  1  0.80794737  0.92061151  0.56995571  1  0  -0.607723  0  2.090905  0  0  -0.541766  0  2.310961  0  0  -0.568303  0  2.299361  0  0  -0.300582  -0.523387  0  2.318652  0
O  O55  1  0.80794532  0.92061166  0.93004492  1  0  -0.60781  0  2.090787  0  0  -0.541812  0  2.310925  0  0  -0.568345  0  2.299321  0  0  -0.300579  -0.523442  0  2.318617  0
O  O56  1  0.19205359  0.07938948  0.43004436  1  0  -0.607713  0  2.090895  0  0  -0.541758  0  2.310915  0  0  -0.568289  0  2.299314  0  0  -0.300563  -0.523383  0  2.318605  0
O  O57  1  0.19205187  0.07938767  0.06995515  1  0  -0.607764  0  2.090885  0  0  -0.54181  0  2.310974  0  0  -0.568347  0  2.299375  0  0  -0.300585  -0.52343  0  2.318667  0
O  O58  1  0.67023280  0.82902306  0.45212831  1  0  -0.581875  0  2.126597  0  0  -0.519031  0  2.342305  0  0  -0.543792  0  2.326636  0  0  -0.316047  -0.501758  0  2.352746  0
O  O59  1  0.67023322  0.82902290  0.04787290  1  0  -0.581808  0  2.12655  0  0  -0.518982  0  2.342289  0  0  -0.543745  0  2.326624  0  0  -0.31602  -0.501708  0  2.35273  0
O  O60  1  0.32976665  0.17097794  0.54787228  1  0  -0.581837  0  2.126627  0  0  -0.518973  0  2.342338  0  0  -0.54373  0  2.326669  0  0  -0.316022  -0.5017  0  2.35278  0
O  O61  1  0.32976548  0.17097643  0.95212769  1  0  -0.581847  0  2.126615  0  0  -0.518995  0  2.342326  0  0  -0.543748  0  2.326655  0  0  -0.316037  -0.501721  0  2.352769  0
O  O62  1  0.61850302  0.56391474  0.37428030  1  0  -0.597698  0  1.980004  0  0  -0.546079  0  2.217362  0  0  -0.569231  0  2.21024  0  0  -0.312415  -0.53008  0  2.221972  0
O  O63  1  0.61850084  0.56391130  0.12571937  1  0  -0.597669  0  1.979968  0  0  -0.546046  0  2.217329  0  0  -0.569197  0  2.210208  0  0  -0.312424  -0.530047  0  2.221944  0
O  O64  1  0.38149794  0.43608625  0.62572029  1  0  -0.597713  0  1.979972  0  0  -0.546079  0  2.217334  0  0  -0.569231  0  2.210215  0  0  -0.312442  -0.530081  0  2.221948  0
O  O65  1  0.38149634  0.43608803  0.87428018  1  0  -0.597622  0  1.980013  0  0  -0.545984  0  2.217359  0  0  -0.569138  0  2.210243  0  0  -0.312351  -0.529986  0  2.221966  0
O  O66  1  0.56300933  0.06773139  0.65188255  1  0  -0.869129  0  1.835121  0  0  -0.807927  0  2.006616  0  0  -0.828529  0  1.974362  0  0  -0.596027  -0.793239  0  2.029261  0
O  O67  1  0.56300533  0.06772814  0.84811759  1  0  -0.869175  0  1.83509  0  0  -0.807974  0  2.006588  0  0  -0.828575  0  1.974334  0  0  -0.596109  -0.793285  0  2.029235  0
O  O68  1  0.43699389  0.93227126  0.34811752  1  0  -0.869196  0  1.835038  0  0  -0.807984  0  2.006564  0  0  -0.828584  0  1.974311  0  0  -0.596093  -0.793297  0  2.029214  0
O  O69  1  0.43699714  0.93227284  0.15188249  1  0  -0.869189  0  1.835093  0  0  -0.807971  0  2.006619  0  0  -0.828571  0  1.974361  0  0  -0.596098  -0.79328  0  2.029269  0
O  O70  1  0.00067193  0.40466527  0.75000169  1  0  -0.915385  0  1.806986  0  0  -0.861929  0  1.98991  0  0  -0.882098  0  1.957871  0  0  -0.666677  -0.847367  0  2.012238  0
O  O71  1  0.99932753  0.59533237  0.24999838  1  0  -0.915395  0  1.806975  0  0  -0.861943  0  1.989914  0  0  -0.882112  0  1.957872  0  0  -0.666696  -0.847379  0  2.012245  0
O  O72  1  0.42339262  0.73873711  0.74999970  1  0  -0.875977  0  1.854671  0  0  -0.818453  0  2.029243  0  0  -0.838781  0  1.99644  0  0  -0.599637  -0.80401  0  2.052283  0
O  O73  1  0.57660834  0.26126388  0.25000038  1  0  -0.875962  0  1.854688  0  0  -0.818447  0  2.029246  0  0  -0.838775  0  1.996443  0  0  -0.599632  -0.804007  0  2.052288  0
O  O74  1  0.14399259  0.07886807  0.74999916  1  0  -0.866821  0  1.834471  0  0  -0.804909  0  1.997339  0  0  -0.826288  0  1.967349  0  0  -0.594555  -0.789752  0  2.018257  0
O  O75  1  0.85600838  0.92113291  0.24999987  1  0  -0.866745  0  1.834582  0  0  -0.804847  0  1.997428  0  0  -0.826227  0  1.967439  0  0  -0.59453  -0.789699  0  2.018344  0
