# generated using pymatgen
data_V2Cd2H8C2N2O7
_symmetry_space_group_name_H-M   'P 1'
_cell_length_a   5.15508644
_cell_length_b   6.34587739
_cell_length_c   14.71162745
_cell_angle_alpha   89.99996390
_cell_angle_beta   90.00000227
_cell_angle_gamma   90.00111968
_symmetry_Int_Tables_number   1
_chemical_formula_structural   V2Cd2H8C2N2O7
_chemical_formula_sum   'V4 Cd4 H16 C4 N4 O14'
_cell_volume   481.26950775
_cell_formula_units_Z   2
loop_
 _symmetry_equiv_pos_site_id
 _symmetry_equiv_pos_as_xyz
  1  'x, y, z'
loop_
 _atom_site_type_symbol
 _atom_site_label
 _atom_site_symmetry_multiplicity
 _atom_site_fract_x
 _atom_site_fract_y
 _atom_site_fract_z
 _atom_site_occupancy
 _atom_site_hle17_bader_spin_density
 _atom_site_hle17_ddec_charge
 _atom_site_hle17_ddec_spin_density
 _atom_site_hle17_ddec_sum_bond_order
 _atom_site_hle17_magmom
 _atom_site_hse06_10hf_bader_spin_density
 _atom_site_hse06_10hf_ddec_charge
 _atom_site_hse06_10hf_ddec_spin_density
 _atom_site_hse06_10hf_ddec_sum_bond_order
 _atom_site_hse06_10hf_magmom
 _atom_site_hse06_bader_spin_density
 _atom_site_hse06_ddec_charge
 _atom_site_hse06_ddec_spin_density
 _atom_site_hse06_ddec_sum_bond_order
 _atom_site_hse06_magmom
 _atom_site_pbe_bader_spin_density
 _atom_site_pbe_cm5_charge
 _atom_site_pbe_ddec_charge
 _atom_site_pbe_ddec_spin_density
 _atom_site_pbe_ddec_sum_bond_order
 _atom_site_pbe_magmom
V  V0  1  0.53791367  0.49999912  0.87871781  1  0  1.995854  0  3.061089  0  0  2.048442  0  3.44597  0  0  2.139993  0  3.430059  0  0  1.420121  1.971841  0  3.48371  0
V  V1  1  0.46208945  0.49999906  0.12128223  1  0  1.995884  0  3.06107  0  0  2.048423  0  3.446008  0  0  2.140018  0  3.430032  0  0  1.420123  1.971844  0  3.483703  0
V  V2  1  0.96208866  0.00000264  0.37871745  1  0  1.995817  0  3.061105  0  0  2.048406  0  3.445963  0  0  2.139986  0  3.430017  0  0  1.420084  1.971805  0  3.483709  0
V  V3  1  0.03790825  0.00000458  0.62128205  1  0  1.995921  0  3.06091  0  0  2.048488  0  3.445812  0  0  2.14008  0  3.42984  0  0  1.420117  1.97195  0  3.483447  0
Cd  Cd4  1  0.10995381  0.50000529  0.72782287  1  0  1.253012  0  1.748524  0  0  1.109423  0  2.213945  0  0  1.16545  0  2.155316  0  0  0.75303  1.070245  0  2.250932  0
Cd  Cd5  1  0.89004737  0.49999920  0.27217648  1  0  1.253056  0  1.748487  0  0  1.109458  0  2.213893  0  0  1.165488  0  2.155261  0  0  0.753037  1.070284  0  2.250879  0
Cd  Cd6  1  0.39004819  0.99999389  0.22782306  1  0  1.253011  0  1.748527  0  0  1.109421  0  2.213932  0  0  1.165454  0  2.1553  0  0  0.753038  1.07025  0  2.250915  0
Cd  Cd7  1  0.60995299  0.00000271  0.77217630  1  0  1.253052  0  1.748485  0  0  1.109466  0  2.213875  0  0  1.165497  0  2.155243  0  0  0.753034  1.070292  0  2.250859  0
H  H8  1  0.26061689  0.36013472  0.51444405  1  0  0.059048  0  0.944602  0  0  0.073128  0  1.014022  0  0  0.073562  0  1.014026  0  0  0.105821  0.072959  0  1.013628  0
H  H9  1  0.73939450  0.36015588  0.48555534  1  0  0.059014  0  0.944592  0  0  0.073096  0  1.014023  0  0  0.073529  0  1.014034  0  0  0.105826  0.072929  0  1.013626  0
H  H10  1  0.23938273  0.13986592  0.01444366  1  0  0.059043  0  0.944603  0  0  0.073126  0  1.014022  0  0  0.073561  0  1.014027  0  0  0.105824  0.072958  0  1.01363  0
H  H11  1  0.76060202  0.13983942  0.98555580  1  0  0.059032  0  0.944515  0  0  0.073122  0  1.013937  0  0  0.073554  0  1.01395  0  0  0.105854  0.072953  0  1.013545  0
H  H12  1  0.73938429  0.63986661  0.48555598  1  0  0.059058  0  0.944575  0  0  0.073139  0  1.013995  0  0  0.073573  0  1.014001  0  0  0.105826  0.072972  0  1.013597  0
H  H13  1  0.26060086  0.63984545  0.51444537  1  0  0.059026  0  0.94462  0  0  0.07313  0  1.014014  0  0  0.073561  0  1.014024  0  0  0.10583  0.072963  0  1.013619  0
H  H14  1  0.76061651  0.86012911  0.98555570  1  0  0.059029  0  0.944576  0  0  0.073134  0  1.013976  0  0  0.073569  0  1.013983  0  0  0.105813  0.072965  0  1.013577  0
H  H15  1  0.23939916  0.86015560  0.01444560  1  0  0.059021  0  0.944619  0  0  0.073118  0  1.014023  0  0  0.073551  0  1.014032  0  0  0.105826  0.072951  0  1.013625  0
H  H16  1  0.55952375  0.37068874  0.64080397  1  0  0.303677  0  0.926721  0  0  0.296805  0  0.978512  0  0  0.303755  0  0.973731  0  0  0.283997  0.291754  0  0.982154  0
H  H17  1  0.44047626  0.37069115  0.35919814  1  0  0.30371  0  0.926706  0  0  0.296835  0  0.978504  0  0  0.303786  0  0.973722  0  0  0.283984  0.291785  0  0.98215  0
H  H18  1  0.94047853  0.12931336  0.14080426  1  0  0.303699  0  0.926676  0  0  0.296825  0  0.978467  0  0  0.303776  0  0.973686  0  0  0.284006  0.291774  0  0.982113  0
H  H19  1  0.05952343  0.12930901  0.85919860  1  0  0.303738  0  0.926705  0  0  0.296883  0  0.978468  0  0  0.303835  0  0.973684  0  0  0.284009  0.291833  0  0.982116  0
H  H20  1  0.44047549  0.62931575  0.35919471  1  0  0.303688  0  0.926688  0  0  0.296795  0  0.978502  0  0  0.303744  0  0.973726  0  0  0.283991  0.291744  0  0.982144  0
H  H21  1  0.55952686  0.62931176  0.64080257  1  0  0.303735  0  0.926595  0  0  0.29686  0  0.978397  0  0  0.303811  0  0.973616  0  0  0.284  0.291809  0  0.982041  0
H  H22  1  0.05952653  0.87068482  0.85919510  1  0  0.30373  0  0.926631  0  0  0.29682  0  0.978466  0  0  0.30377  0  0.973688  0  0  0.284006  0.29177  0  0.982106  0
H  H23  1  0.94047386  0.87068760  0.14080279  1  0  0.303722  0  0.926627  0  0  0.296844  0  0.978432  0  0  0.303795  0  0.973653  0  0  0.283997  0.291794  0  0.982076  0
C  C24  1  0.37869419  0.49999968  0.52976185  1  0  0.062099  0  3.631774  0  0  0.01052  0  3.889064  0  0  0.014847  0  3.902574  0  0  -0.071155  0.007666  0  3.879824  0
C  C25  1  0.62130311  0.50000638  0.47023819  1  0  0.062108  0  3.631758  0  0  0.010545  0  3.889024  0  0  0.014863  0  3.902544  0  0  -0.071184  0.007691  0  3.879782  0
C  C26  1  0.12130583  0.99999978  0.02976203  1  0  0.06211  0  3.631737  0  0  0.010535  0  3.889027  0  0  0.014857  0  3.902547  0  0  -0.071147  0.007683  0  3.879786  0
C  C27  1  0.87869574  0.99999251  0.97023786  1  0  0.062149  0  3.631653  0  0  0.01056  0  3.888937  0  0  0.014876  0  3.902462  0  0  -0.071186  0.007705  0  3.879696  0
N  N28  1  0.44484052  0.49999383  0.62715556  1  0  -0.664227  0  3.10336  0  0  -0.607184  0  3.34622  0  0  -0.632509  0  3.345937  0  0  -0.634097  -0.589468  0  3.345971  0
N  N29  1  0.55516066  0.50000119  0.37284379  1  0  -0.664263  0  3.103441  0  0  -0.607187  0  3.346285  0  0  -0.632513  0  3.34601  0  0  -0.634075  -0.589472  0  3.346038  0
N  N30  1  0.05516107  0.00000507  0.12715588  1  0  -0.664241  0  3.103331  0  0  -0.607192  0  3.346187  0  0  -0.632518  0  3.34591  0  0  -0.634103  -0.589478  0  3.345941  0
N  N31  1  0.94484011  0.99999941  0.87284347  1  0  -0.664332  0  3.103377  0  0  -0.607259  0  3.34624  0  0  -0.632583  0  3.345961  0  0  -0.634117  -0.589543  0  3.345994  0
O  O32  1  0.39246828  0.28214948  0.83111739  1  0  -0.985124  0  1.565914  0  0  -0.949986  0  1.867994  0  0  -0.990724  0  1.852899  0  0  -0.632067  -0.91852  0  1.879641  0
O  O33  1  0.60752960  0.28215166  0.16888271  1  0  -0.985113  0  1.565921  0  0  -0.949954  0  1.867989  0  0  -0.990718  0  1.852915  0  0  -0.632073  -0.918492  0  1.879628  0
O  O34  1  0.10753334  0.21785229  0.33111765  1  0  -0.985119  0  1.565971  0  0  -0.949963  0  1.868021  0  0  -0.990727  0  1.852957  0  0  -0.632071  -0.918496  0  1.879663  0
O  O35  1  0.89246687  0.21785197  0.66888042  1  0  -0.985112  0  1.565921  0  0  -0.949962  0  1.867976  0  0  -0.990736  0  1.852929  0  0  -0.632058  -0.91851  0  1.879607  0
O  O36  1  0.60753484  0.71784555  0.16888196  1  0  -0.985141  0  1.565967  0  0  -0.949992  0  1.86807  0  0  -0.990733  0  1.852945  0  0  -0.632072  -0.918526  0  1.879703  0
O  O37  1  0.39246964  0.71784652  0.83111733  1  0  -0.98511  0  1.56591  0  0  -0.949986  0  1.868009  0  0  -0.990719  0  1.852906  0  0  -0.632072  -0.918513  0  1.879649  0
O  O38  1  0.89246590  0.78215377  0.66888170  1  0  -0.98516  0  1.565941  0  0  -0.950013  0  1.868024  0  0  -0.990759  0  1.852919  0  0  -0.632069  -0.918559  0  1.879654  0
O  O39  1  0.10753043  0.78215724  0.33111825  1  0  -0.985113  0  1.565941  0  0  -0.949999  0  1.868074  0  0  -0.990723  0  1.852925  0  0  -0.63207  -0.918528  0  1.87971  0
O  O40  1  0.85378616  0.50000165  0.85172419  1  0  -0.894752  0  1.461301  0  0  -0.880927  0  1.751627  0  0  -0.918892  0  1.740206  0  0  -0.628687  -0.851408  0  1.761648  0
O  O41  1  0.14621502  0.49999496  0.14827584  1  0  -0.894769  0  1.461328  0  0  -0.880923  0  1.751665  0  0  -0.918904  0  1.740237  0  0  -0.628672  -0.851409  0  1.761678  0
O  O42  1  0.64621461  0.99999899  0.35172302  1  0  -0.89472  0  1.461293  0  0  -0.880899  0  1.751622  0  0  -0.918874  0  1.740197  0  0  -0.628671  -0.85138  0  1.761639  0
O  O43  1  0.35378269  0.00000550  0.64827634  1  0  -0.894799  0  1.461267  0  0  -0.880968  0  1.751611  0  0  -0.918942  0  1.74018  0  0  -0.628691  -0.851466  0  1.761617  0
O  O44  1  0.50000161  0.49999716  0.00000010  1  0  -1.01449  0  1.589993  0  0  -1.040493  0  1.902015  0  0  -1.084296  0  1.893396  0  0  -0.709456  -1.002711  0  1.912043  0
O  O45  1  0.99999880  0.00000128  0.49999975  1  0  -1.01446  0  1.589869  0  0  -1.04046  0  1.901866  0  0  -1.084271  0  1.893245  0  0  -0.709402  -1.00269  0  1.911886  0
