# generated using pymatgen
data_TbH27C28(SO4)2
_symmetry_space_group_name_H-M   'P 1'
_cell_length_a   16.60370983
_cell_length_b   16.60406859
_cell_length_c   27.81336130
_cell_angle_alpha   80.51352365
_cell_angle_beta   80.51353869
_cell_angle_gamma   62.33307962
_symmetry_Int_Tables_number   1
_chemical_formula_structural   TbH27C28(SO4)2
_chemical_formula_sum   'Tb4 H108 C112 S8 O32'
_cell_volume   6663.94642810
_cell_formula_units_Z   4
loop_
 _symmetry_equiv_pos_site_id
 _symmetry_equiv_pos_as_xyz
  1  'x, y, z'
loop_
 _atom_site_type_symbol
 _atom_site_label
 _atom_site_symmetry_multiplicity
 _atom_site_fract_x
 _atom_site_fract_y
 _atom_site_fract_z
 _atom_site_occupancy
 _atom_site_pbe_bader_charge
 _atom_site_pbe_bader_spin_density
 _atom_site_pbe_cm5_charge
 _atom_site_pbe_ddec_charge
 _atom_site_pbe_ddec_spin_density
 _atom_site_pbe_ddec_sum_bond_order
 _atom_site_pbe_magmom
Tb  Tb0  1  0.43729147  0.97109379  0.95432614  1  2.180506  0  1.492391  2.071364  0  2.162248  0
Tb  Tb1  1  0.02890851  0.56269878  0.54567133  1  2.180376  0  1.492367  2.071347  0  2.162171  0
Tb  Tb2  1  0.56271373  0.02890288  0.04566934  1  2.180513  0  1.492302  2.071072  0  2.162639  0
Tb  Tb3  1  0.97109472  0.43728716  0.45433187  1  2.180482  0  1.492308  2.071152  0  2.162481  0
H  H4  1  0.46097718  0.88053725  0.79206265  1  0.073485  0  0.101559  0.105992  0  1.005258  0
H  H5  1  0.43137112  0.80628600  0.73022651  1  0.054782  0  0.097234  0.095395  0  1.004592  0
H  H6  1  0.32713877  0.66386962  0.84746622  1  0.056447  0  0.099385  0.098826  0  1.00811  0
H  H7  1  0.35745433  0.73873845  0.90802202  1  0.079489  0  0.102992  0.108248  0  0.998882  0
H  H8  1  0.37093795  0.71839005  0.70875201  1  0.041098  0  0.098199  0.093951  0  1.010991  0
H  H9  1  0.75951062  0.83996685  0.02081760  1  0.114411  0  0.104223  0.112581  0  1.064421  0
H  H10  1  0.91561787  0.71186167  0.02991671  1  0.019877  0  0.088271  0.079243  0  1.024303  0
H  H11  1  0.84632085  0.54164280  0.96039476  1  0.03193  0  0.096366  0.094979  0  1.013254  0
H  H12  1  0.69218355  0.67108719  0.95032839  1  0.102243  0  0.109609  0.116943  0  0.989836  0
H  H13  1  0.02620636  0.56404849  0.02071402  1  0.047305  0  0.095246  0.091456  0  1.014657  0
H  H14  1  0.65233735  0.18641436  0.92073314  1  0.102515  0  0.09991  0.096697  0  1.034219  0
H  H15  1  0.71407774  0.25717995  0.84789308  1  0.046189  0  0.096769  0.095591  0  1.011075  0
H  H16  1  0.64133267  0.12368116  0.75399765  1  0.031446  0  0.094283  0.091033  0  1.009677  0
H  H17  1  0.57952157  0.05362143  0.82824972  1  0.081559  0  0.108232  0.115377  0  0.999495  0
H  H18  1  0.70725244  0.21774487  0.71683201  1  0.038365  0  0.096609  0.091892  0  1.014139  0
H  H19  1  0.20962377  0.90506262  0.93165179  1  0.10194  0  0.111602  0.177116  0  0.986407  0
H  H20  1  0.11562410  0.01151897  0.94896951  1  0.059566  0  0.100533  0.154403  0  0.989258  0
H  H21  1  0.12920009  0.90413121  0.98345639  1  0.040854  0  0.10206  0.155399  0  0.986506  0
H  H22  1  0.09694066  0.07667910  0.02747923  1  0.054893  0  0.102235  0.157477  0  0.987534  0
H  H23  1  0.18434090  0.03667710  0.06843401  1  0.104679  0  0.118321  0.184938  0  0.958757  0
H  H24  1  0.12210192  0.97267178  0.06847135  1  0.083658  0  0.103927  0.157215  0  0.986498  0
H  H25  1  0.42545655  0.05045485  0.80444059  1  0.121256  0  0.114503  0.182333  0  0.983228  0
H  H26  1  0.37210408  0.17357488  0.80330665  1  0.088453  0  0.109957  0.169354  0  0.972445  0
H  H27  1  0.32337582  0.11882563  0.77386304  1  0.067918  0  0.105339  0.158949  0  0.980972  0
H  H28  1  0.15358012  0.21681330  0.89023072  1  0.094287  0  0.10498  0.163665  0  0.99047  0
H  H29  1  0.16404687  0.21790169  0.82474073  1  0.081791  0  0.10451  0.157955  0  0.984611  0
H  H30  1  0.22182994  0.26563673  0.85248002  1  0.104636  0  0.110902  0.172364  0  0.968391  0
H  H31  1  0.11945104  0.53901485  0.70793832  1  0.073108  0  0.101538  0.106016  0  1.005193  0
H  H32  1  0.19370375  0.56861331  0.76978015  1  0.054545  0  0.097222  0.095328  0  1.004476  0
H  H33  1  0.33611407  0.67286482  0.65254674  1  0.056784  0  0.099351  0.098873  0  1.008264  0
H  H34  1  0.26124242  0.64255852  0.59198917  1  0.079555  0  0.103011  0.108316  0  0.99889  0
H  H35  1  0.28160567  0.62903653  0.79125831  1  0.040766  0  0.098125  0.093791  0  1.011308  0
H  H36  1  0.16003087  0.24048536  0.47919166  1  0.114495  0  0.104216  0.112532  0  1.064493  0
H  H37  1  0.28813591  0.08437401  0.47009653  1  0.019518  0  0.088309  0.079278  0  1.024424  0
H  H38  1  0.45837796  0.15367527  0.53960377  1  0.031829  0  0.09643  0.095104  0  1.013278  0
H  H39  1  0.32892398  0.30781327  0.54966890  1  0.10161  0  0.109657  0.117002  0  0.989743  0
H  H40  1  0.43595175  0.97379729  0.47928473  1  0.047154  0  0.095275  0.091459  0  1.014661  0
H  H41  1  0.81358419  0.34766135  0.57926392  1  0.102621  0  0.099959  0.0968  0  1.034369  0
H  H42  1  0.74282223  0.28592211  0.65210134  1  0.045835  0  0.096838  0.095651  0  1.011079  0
H  H43  1  0.87632284  0.35866837  0.74600085  1  0.031528  0  0.094227  0.090918  0  1.009524  0
H  H44  1  0.94637677  0.42048285  0.67174472  1  0.081598  0  0.108262  0.115426  0  0.999506  0
H  H45  1  0.78225922  0.29274959  0.78316312  1  0.038396  0  0.096626  0.091924  0  1.01414  0
H  H46  1  0.09494747  0.79035283  0.56834212  1  0.101565  0  0.111646  0.177126  0  0.986475  0
H  H47  1  0.98848996  0.88436765  0.55103147  1  0.059804  0  0.100558  0.154496  0  0.989286  0
H  H48  1  0.09588298  0.87077476  0.51654008  1  0.041639  0  0.102097  0.155472  0  0.986531  0
H  H49  1  0.92331821  0.90306903  0.47252308  1  0.054784  0  0.102247  0.157459  0  0.987542  0
H  H50  1  0.96329732  0.81568652  0.43155888  1  0.104679  0  0.118267  0.184946  0  0.958517  0
H  H51  1  0.02731796  0.87790966  0.43152694  1  0.083185  0  0.103928  0.157191  0  0.986507  0
H  H52  1  0.94953948  0.57455483  0.69555373  1  0.121411  0  0.114518  0.182355  0  0.98324  0
H  H53  1  0.82641731  0.62791464  0.69669378  1  0.088134  0  0.109932  0.169283  0  0.972568  0
H  H54  1  0.88118049  0.67663170  0.72613246  1  0.068643  0  0.105365  0.158978  0  0.980977  0
H  H55  1  0.78320898  0.84642350  0.60975788  1  0.095307  0  0.105003  0.163633  0  0.99046  0
H  H56  1  0.78212869  0.83596054  0.67524741  1  0.081552  0  0.104433  0.157861  0  0.984577  0
H  H57  1  0.73436409  0.77820213  0.64751222  1  0.105304  0  0.110887  0.172332  0  0.968404  0
H  H58  1  0.53903010  0.11945422  0.20793674  1  0.073446  0  0.10156  0.106022  0  1.005121  0
H  H59  1  0.56861567  0.19371152  0.26977682  1  0.054629  0  0.097236  0.095355  0  1.004443  0
H  H60  1  0.67287810  0.33611578  0.15254648  1  0.056496  0  0.099347  0.098863  0  1.008158  0
H  H61  1  0.64257826  0.26123997  0.09198766  1  0.079635  0  0.103006  0.108269  0  0.999033  0
H  H62  1  0.62904342  0.28160500  0.29125678  1  0.040768  0  0.098097  0.093799  0  1.011218  0
H  H63  1  0.24049931  0.16003443  0.97917120  1  0.113971  0  0.104198  0.112517  0  1.064508  0
H  H64  1  0.08438992  0.28815275  0.97006381  1  0.02016  0  0.088252  0.07923  0  1.024212  0
H  H65  1  0.15367617  0.45835630  0.03961064  1  0.031929  0  0.096415  0.095001  0  1.013261  0
H  H66  1  0.30780669  0.32890575  0.04967901  1  0.10245  0  0.109633  0.116979  0  0.98989  0
H  H67  1  0.97380420  0.43596045  0.97927900  1  0.047166  0  0.095228  0.091499  0  1.014561  0
H  H68  1  0.34764792  0.81360519  0.07926205  1  0.102305  0  0.099888  0.096673  0  1.034257  0
H  H69  1  0.28590067  0.74284692  0.15209739  1  0.045427  0  0.096735  0.095586  0  1.011094  0
H  H70  1  0.35865669  0.87634025  0.24599875  1  0.031351  0  0.094242  0.091051  0  1.009428  0
H  H71  1  0.42046648  0.94639140  0.17174442  1  0.081779  0  0.108256  0.115407  0  0.999542  0
H  H72  1  0.29273696  0.78226980  0.28316325  1  0.0384  0  0.096578  0.091884  0  1.014228  0
H  H73  1  0.79039722  0.09491790  0.06835343  1  0.102147  0  0.111631  0.177176  0  0.98643  0
H  H74  1  0.88439212  0.98845999  0.05103166  1  0.059199  0  0.100391  0.154266  0  0.989285  0
H  H75  1  0.87082565  0.09585147  0.01654635  1  0.040781  0  0.102053  0.15535  0  0.986584  0
H  H76  1  0.90307339  0.92331914  0.97251774  1  0.054508  0  0.10221  0.157418  0  0.9876  0
H  H77  1  0.81566833  0.96332755  0.93156459  1  0.104902  0  0.118342  0.184968  0  0.958685  0
H  H78  1  0.87790938  0.02732951  0.93152630  1  0.08341  0  0.103918  0.157189  0  0.986531  0
H  H79  1  0.57455137  0.94954245  0.19555528  1  0.121338  0  0.114493  0.182334  0  0.983242  0
H  H80  1  0.62790521  0.82642119  0.19668992  1  0.088477  0  0.109951  0.169309  0  0.972441  0
H  H81  1  0.67662734  0.88117011  0.22613776  1  0.06827  0  0.105332  0.158955  0  0.981008  0
H  H82  1  0.84642908  0.78319563  0.10976208  1  0.095385  0  0.105016  0.163716  0  0.990365  0
H  H83  1  0.83595751  0.78211611  0.17525525  1  0.081521  0  0.104427  0.157851  0  0.98464  0
H  H84  1  0.77818407  0.73436641  0.14751539  1  0.105151  0  0.110884  0.172322  0  0.96843  0
H  H85  1  0.88052480  0.46099120  0.29207136  1  0.073641  0  0.101593  0.10603  0  1.005385  0
H  H86  1  0.80626594  0.43139610  0.23023484  1  0.054858  0  0.097345  0.095589  0  1.004495  0
H  H87  1  0.66386795  0.32713545  0.34747117  1  0.056348  0  0.09938  0.098852  0  1.008117  0
H  H88  1  0.73873063  0.35745733  0.40802341  1  0.079506  0  0.10299  0.108309  0  0.998961  0
H  H89  1  0.71839760  0.37094576  0.20875640  1  0.040948  0  0.098216  0.093938  0  1.010975  0
H  H90  1  0.83997041  0.75948865  0.52082550  1  0.114145  0  0.104245  0.112619  0  1.06448  0
H  H91  1  0.71186735  0.91560889  0.52992136  1  0.019946  0  0.088218  0.079186  0  1.024279  0
H  H92  1  0.54164559  0.84632667  0.46038218  1  0.032113  0  0.096474  0.095137  0  1.013242  0
H  H93  1  0.67109145  0.69218129  0.45032218  1  0.102144  0  0.10965  0.116958  0  0.989547  0
H  H94  1  0.56406645  0.02619055  0.52070962  1  0.047259  0  0.095266  0.09146  0  1.014752  0
H  H95  1  0.18639430  0.65235388  0.42072769  1  0.102613  0  0.100005  0.096807  0  1.034225  0
H  H96  1  0.25715210  0.71410414  0.34789678  1  0.045486  0  0.096811  0.09571  0  1.010988  0
H  H97  1  0.12365625  0.64135820  0.25399281  1  0.031039  0  0.094282  0.091124  0  1.009481  0
H  H98  1  0.05361193  0.57953395  0.32824465  1  0.081939  0  0.108216  0.115412  0  0.999508  0
H  H99  1  0.21772462  0.70728037  0.21683369  1  0.038645  0  0.096565  0.091903  0  1.014171  0
H  H100  1  0.90506753  0.20960468  0.43165662  1  0.102263  0  0.111616  0.177142  0  0.986472  0
H  H101  1  0.01152903  0.11560581  0.44897213  1  0.059015  0  0.1004  0.15432  0  0.98926  0
H  H102  1  0.90413474  0.12918399  0.48346295  1  0.040695  0  0.102044  0.155396  0  0.986472  0
H  H103  1  0.07669043  0.09692491  0.52748348  1  0.054568  0  0.102236  0.157465  0  0.987531  0
H  H104  1  0.03669006  0.18432477  0.56843763  1  0.104832  0  0.118325  0.18497  0  0.958617  0
H  H105  1  0.97268384  0.12208670  0.56847718  1  0.083132  0  0.103978  0.157314  0  0.986451  0
H  H106  1  0.05045755  0.42544120  0.30444873  1  0.121559  0  0.114477  0.182309  0  0.983312  0
H  H107  1  0.17357687  0.37210037  0.30330996  1  0.088424  0  0.109947  0.169328  0  0.972494  0
H  H108  1  0.11882941  0.32337448  0.27386377  1  0.068314  0  0.105336  0.158917  0  0.980998  0
H  H109  1  0.21681803  0.15357327  0.39024119  1  0.095293  0  0.105  0.16364  0  0.990409  0
H  H110  1  0.21789829  0.16403990  0.32474841  1  0.081494  0  0.104438  0.157775  0  0.984608  0
H  H111  1  0.26563750  0.22182485  0.35248637  1  0.104566  0  0.110905  0.172275  0  0.968418  0
C  C112  1  0.41982249  0.86597056  0.88985121  1  1.55532  0  0.184263  0.559662  0  4.261791  0
C  C113  1  0.40883521  0.81574588  0.85353274  1  0.017637  0  -0.019274  -0.020612  0  3.961745  0
C  C114  1  0.43131180  0.83316349  0.80342656  1  -0.036453  0  -0.089408  -0.095385  0  4.003767  0
C  C115  1  0.41491719  0.79147497  0.76929923  1  -0.096594  0  -0.095985  -0.144953  0  3.996272  0
C  C116  1  0.37496079  0.73148556  0.78400728  1  -0.013394  0  -0.01142  0.114932  0  4.05138  0
C  C117  1  0.35591689  0.71173599  0.83473985  1  -0.031163  0  -0.093845  -0.136564  0  3.975014  0
C  C118  1  0.37250338  0.75325680  0.86880510  1  -0.068221  0  -0.087096  -0.096774  0  3.998234  0
C  C119  1  0.35115198  0.69731144  0.74635984  1  -0.099325  0  -0.093407  -0.132796  0  4.005415  0
C  C120  1  0.62263571  0.83825383  0.97968220  1  1.572564  0  0.218954  0.627866  0  4.171421  0
C  C121  1  0.71637029  0.76276654  0.98533014  1  0.031679  0  -0.011827  -0.021799  0  3.935352  0
C  C122  1  0.77939059  0.77448823  0.00761974  1  0.001199  0  -0.085377  -0.087855  0  3.969647  0
C  C123  1  0.86614260  0.70273829  0.01268332  1  -0.075698  0  -0.100706  -0.149514  0  4.000607  0
C  C124  1  0.89234001  0.61690860  0.99668635  1  -0.031719  0  -0.015613  0.109651  0  4.066076  0
C  C125  1  0.82819116  0.60663129  0.97383795  1  -0.045433  0  -0.09586  -0.140783  0  3.984628  0
C  C126  1  0.74199691  0.67843366  0.96803845  1  -0.074831  0  -0.082052  -0.089409  0  3.987316  0
C  C127  1  0.98297683  0.54389023  0.00484052  1  0.061285  0  -0.096887  -0.136504  0  4.018399  0
C  C128  1  0.57602151  0.07263868  0.92250502  1  1.586848  0  0.231163  0.646109  0  4.153904  0
C  C129  1  0.61373261  0.11485562  0.87861332  1  -0.071391  0  -0.018295  -0.035617  0  3.947074  0
C  C130  1  0.65175447  0.17244983  0.88386081  1  -0.063751  0  -0.089212  -0.095965  0  4.00616  0
C  C131  1  0.68613706  0.21152981  0.84297396  1  -0.024285  0  -0.096429  -0.137299  0  3.973359  0
C  C132  1  0.68377795  0.19427842  0.79528947  1  -0.008861  0  -0.014464  0.111726  0  4.055701  0
C  C133  1  0.64437033  0.13711515  0.79063904  1  -0.084811  0  -0.098146  -0.14884  0  4.002948  0
C  C134  1  0.60994864  0.09797070  0.83153361  1  0.033698  0  -0.085307  -0.088819  0  3.994754  0
C  C135  1  0.71992476  0.23207336  0.75111650  1  -0.010092  0  -0.095288  -0.134369  0  4.012126  0
C  C136  1  0.16457372  0.94245026  0.96226071  1  -0.188027  0  -0.229477  -0.501828  0  3.837446  0
C  C137  1  0.15024636  0.01618218  0.04573138  1  -0.223028  0  -0.227604  -0.501639  0  3.831559  0
C  C138  1  0.36073523  0.11323200  0.80434840  1  -0.235251  0  -0.225573  -0.496386  0  3.818909  0
C  C139  1  0.19894427  0.21241491  0.85628308  1  -0.268503  0  -0.229586  -0.499175  0  3.844929  0
C  C140  1  0.13401448  0.58018171  0.61015028  1  1.554369  0  0.184018  0.559967  0  4.262628  0
C  C141  1  0.18424056  0.59116361  0.64647207  1  0.015474  0  -0.019342  -0.023587  0  3.966052  0
C  C142  1  0.16681917  0.56868795  0.69657566  1  -0.035966  0  -0.089417  -0.094484  0  4.004832  0
C  C143  1  0.20850897  0.58507406  0.73070337  1  -0.094973  0  -0.095942  -0.14473  0  3.995911  0
C  C144  1  0.26849328  0.62504332  0.71599602  1  -0.012839  0  -0.011453  0.114691  0  4.051564  0
C  C145  1  0.28823833  0.64409876  0.66526707  1  -0.03996  0  -0.09357  -0.136207  0  3.975068  0
C  C146  1  0.24672653  0.62749877  0.63120367  1  -0.05996  0  -0.087199  -0.096018  0  3.998959  0
C  C147  1  0.30267116  0.64884303  0.75365047  1  -0.003835  0  -0.093231  -0.132382  0  4.005482  0
C  C148  1  0.16173857  0.37735490  0.52032125  1  1.572481  0  0.2191  0.628115  0  4.171251  0
C  C149  1  0.23723669  0.28362652  0.51467541  1  0.031402  0  -0.011791  -0.021721  0  3.935394  0
C  C150  1  0.22551341  0.22060660  0.49238875  1  0.001798  0  -0.085329  -0.087755  0  3.96971  0
C  C151  1  0.29725887  0.13385004  0.48732552  1  -0.07565  0  -0.100782  -0.149649  0  4.000687  0
C  C152  1  0.38310145  0.10766120  0.50330947  1  -0.031444  0  -0.015644  0.10979  0  4.0657  0
C  C153  1  0.39338315  0.17181284  0.52615638  1  -0.045418  0  -0.095946  -0.141186  0  3.984716  0
C  C154  1  0.32157609  0.25800543  0.53195633  1  -0.074422  0  -0.082144  -0.089386  0  3.987427  0
C  C155  1  0.45611130  0.01702698  0.49515344  1  -0.189778  0  -0.096911  -0.136501  0  4.018128  0
C  C156  1  0.92736041  0.42397972  0.57749969  1  1.586524  0  0.231191  0.646278  0  4.153904  0
C  C157  1  0.88514300  0.38626754  0.62138686  1  -0.0711  0  -0.018432  -0.035827  0  3.947056  0
C  C158  1  0.82754944  0.34824546  0.61613500  1  -0.064261  0  -0.089202  -0.09602  0  4.005956  0
C  C159  1  0.78847188  0.31385905  0.65702305  1  -0.024179  0  -0.096497  -0.137332  0  3.973175  0
C  C160  1  0.80572420  0.31621171  0.70470883  1  -0.008619  0  -0.014478  0.111664  0  4.055635  0
C  C161  1  0.86288398  0.35562429  0.70935985  1  -0.08452  0  -0.098046  -0.148597  0  4.002551  0
C  C162  1  0.90202600  0.39005415  0.66846471  1  0.033507  0  -0.085318  -0.088889  0  3.994768  0
C  C163  1  0.76792594  0.28006955  0.74888274  1  -0.102549  0  -0.095263  -0.134382  0  4.012184  0
C  C164  1  0.05755296  0.83541081  0.53773661  1  -0.188463  0  -0.22955  -0.502041  0  3.837757  0
C  C165  1  0.98380709  0.84976408  0.45426531  1  -0.222094  0  -0.227562  -0.501568  0  3.831183  0
C  C166  1  0.88676550  0.63927654  0.69564794  1  -0.235891  0  -0.225571  -0.496362  0  3.819028  0
C  C167  1  0.78760220  0.80106502  0.64370732  1  -0.270228  0  -0.229556  -0.499011  0  3.844873  0
C  C168  1  0.58020318  0.13402190  0.11014410  1  1.555488  0  0.184074  0.559538  0  4.262452  0
C  C169  1  0.59117135  0.18425141  0.14646614  1  0.015934  0  -0.019307  -0.02071  0  3.961464  0
C  C170  1  0.56869135  0.16683348  0.19657376  1  -0.035106  0  -0.089316  -0.0953  0  4.003662  0
C  C171  1  0.58507782  0.20851645  0.23070101  1  -0.096109  0  -0.096025  -0.144863  0  3.996407  0
C  C172  1  0.62503286  0.26850708  0.21599550  1  -0.012806  0  -0.011466  0.114621  0  4.051385  0
C  C173  1  0.64408971  0.28825579  0.16526461  1  -0.031632  0  -0.093639  -0.13636  0  3.97519  0
C  C174  1  0.62750799  0.24673532  0.13120208  1  -0.067933  0  -0.087275  -0.096907  0  3.998737  0
C  C175  1  0.64882593  0.30269003  0.25364829  1  -0.003799  0  -0.093221  -0.1324  0  4.005232  0
C  C176  1  0.37736474  0.16173945  0.02031588  1  1.572526  0  0.219039  0.628036  0  4.171225  0
C  C177  1  0.28363830  0.23723290  0.01466688  1  0.030981  0  -0.011949  -0.021823  0  3.935447  0
C  C178  1  0.22062750  0.22551553  0.99237124  1  0.00267  0  -0.085327  -0.087791  0  3.969645  0
C  C179  1  0.13386731  0.29726543  0.98730380  1  -0.076354  0  -0.100696  -0.149632  0  4.000028  0
C  C180  1  0.10767190  0.38310095  0.00329928  1  -0.014112  0  -0.015783  0.109733  0  4.065872  0
C  C181  1  0.17181399  0.39337212  0.02615866  1  -0.045622  0  -0.095833  -0.14081  0  3.984493  0
C  C182  1  0.25800762  0.32156209  0.03195898  1  -0.074806  0  -0.082014  -0.089425  0  3.987502  0
C  C183  1  0.01704123  0.45611720  0.99514471  1  -0.207363  0  -0.096896  -0.136751  0  4.018502  0
C  C184  1  0.42398230  0.92736104  0.07749174  1  1.586712  0  0.231228  0.64637  0  4.153685  0
C  C185  1  0.38625745  0.88516243  0.12138370  1  -0.071117  0  -0.018182  -0.035699  0  3.947535  0
C  C186  1  0.34823625  0.82757097  0.11613372  1  -0.063601  0  -0.089279  -0.096168  0  4.00602  0
C  C187  1  0.31384344  0.78849003  0.15702203  1  -0.023792  0  -0.096299  -0.136933  0  3.972652  0
C  C188  1  0.31619159  0.80574995  0.20470748  1  -0.008542  0  -0.014605  0.111419  0  4.055764  0
C  C189  1  0.35561224  0.86290194  0.20935881  1  -0.084213  0  -0.097997  -0.148677  0  4.002601  0
C  C190  1  0.39004077  0.90204213  0.16846255  1  0.032854  0  -0.085427  -0.088932  0  3.995023  0
C  C191  1  0.28005506  0.76794739  0.24888054  1  -0.009806  0  -0.095213  -0.134262  0  4.01231  0
C  C192  1  0.83544724  0.05753454  0.03774266  1  -0.188026  0  -0.229304  -0.501655  0  3.837593  0
C  C193  1  0.84976699  0.98381820  0.95426760  1  -0.222648  0  -0.227589  -0.501551  0  3.831612  0
C  C194  1  0.63927270  0.88676468  0.19564968  1  -0.235845  0  -0.225554  -0.496357  0  3.818945  0
C  C195  1  0.80106837  0.78759005  0.14371120  1  -0.270002  0  -0.229538  -0.49906  0  3.84482  0
C  C196  1  0.86596962  0.41981212  0.38985835  1  1.555832  0  0.184151  0.559811  0  4.261984  0
C  C197  1  0.81572570  0.40884853  0.35353867  1  0.017172  0  -0.019391  -0.020692  0  3.961418  0
C  C198  1  0.83315184  0.43132819  0.30343314  1  -0.036483  0  -0.089347  -0.095278  0  4.003916  0
C  C199  1  0.79146823  0.41493200  0.26930545  1  -0.096556  0  -0.096026  -0.145163  0  3.99638  0
C  C200  1  0.73148662  0.37496765  0.28401277  1  -0.013098  0  -0.01148  0.114885  0  4.051096  0
C  C201  1  0.71172581  0.35592470  0.33474492  1  -0.0317  0  -0.093665  -0.136317  0  3.975006  0
C  C202  1  0.75324727  0.37250697  0.36881020  1  -0.067417  0  -0.087175  -0.097039  0  3.998676  0
C  C203  1  0.69731016  0.35115998  0.24636221  1  -0.099713  0  -0.093473  -0.132835  0  4.005146  0
C  C204  1  0.83825029  0.62263987  0.47968179  1  1.572029  0  0.218944  0.627947  0  4.171327  0
C  C205  1  0.76276783  0.71637046  0.48532514  1  0.031324  0  -0.011859  -0.021851  0  3.935731  0
C  C206  1  0.77449733  0.77937846  0.50761812  1  0.001725  0  -0.08534  -0.087777  0  3.969628  0
C  C207  1  0.70275256  0.86613227  0.51268334  1  -0.075765  0  -0.100705  -0.149558  0  4.000262  0
C  C208  1  0.61691198  0.89232755  0.49669281  1  -0.031782  0  -0.015728  0.109644  0  4.06582  0
C  C209  1  0.60663019  0.82818815  0.47383643  1  -0.045697  0  -0.095902  -0.141023  0  3.984473  0
C  C210  1  0.67843453  0.74199616  0.46803705  1  -0.07479  0  -0.082066  -0.089296  0  3.987092  0
C  C211  1  0.54388918  0.98296263  0.50484968  1  0.061558  0  -0.096907  -0.136661  0  4.018437  0
C  C212  1  0.07264276  0.57601542  0.42249938  1  1.586616  0  0.231306  0.646427  0  4.153566  0
C  C213  1  0.11484645  0.61373855  0.37860708  1  -0.071472  0  -0.01819  -0.035512  0  3.947198  0
C  C214  1  0.17243523  0.65176276  0.38385993  1  -0.063542  0  -0.089296  -0.09618  0  4.006086  0
C  C215  1  0.21150659  0.68616109  0.34297419  1  -0.023971  0  -0.096506  -0.137295  0  3.973141  0
C  C216  1  0.19425362  0.68380138  0.29529061  1  -0.0092  0  -0.014479  0.111635  0  4.055835  0
C  C217  1  0.13710274  0.64438363  0.29063383  1  -0.083727  0  -0.098126  -0.148827  0  4.002885  0
C  C218  1  0.09795449  0.60996875  0.33152954  1  0.03324  0  -0.085355  -0.089001  0  3.995065  0
C  C219  1  0.23205594  0.71994908  0.25111898  1  -0.103191  0  -0.095237  -0.134456  0  4.012278  0
C  C220  1  0.94245722  0.16455496  0.46226575  1  -0.187718  0  -0.229326  -0.501792  0  3.837299  0
C  C221  1  0.01619335  0.15023043  0.54573517  1  -0.222251  0  -0.227681  -0.501777  0  3.831417  0
C  C222  1  0.11323831  0.36072441  0.30435264  1  -0.2359  0  -0.225558  -0.496322  0  3.818982  0
C  C223  1  0.21241936  0.19893172  0.35629157  1  -0.269181  0  -0.229489  -0.498767  0  3.844821  0
S  S224  1  0.23808060  0.95023090  0.00062046  1  1.26067  0  0.317062  0.714953  0  4.055848  0
S  S225  1  0.29635392  0.10111201  0.86169418  1  1.23303  0  0.293521  0.661445  0  4.079351  0
S  S226  1  0.04975804  0.76191971  0.49937235  1  1.260326  0  0.317099  0.714989  0  4.055916  0
S  S227  1  0.89889820  0.70364736  0.63830225  1  1.233217  0  0.293474  0.661311  0  4.079328  0
S  S228  1  0.76193418  0.04976153  0.99938276  1  1.26088  0  0.316941  0.714794  0  4.056171  0
S  S229  1  0.70364784  0.89888924  0.13830191  1  1.233443  0  0.293527  0.661416  0  4.079333  0
S  S230  1  0.95024247  0.23806377  0.50062382  1  1.260647  0  0.317048  0.714986  0  4.05574  0
S  S231  1  0.10111726  0.29634415  0.36170100  1  1.233404  0  0.293407  0.661212  0  4.079283  0
O  O232  1  0.45015103  0.92494624  0.87406068  1  -1.183508  0  -0.390207  -0.655684  0  2.248573  0
O  O233  1  0.39622549  0.85201073  0.93519781  1  -1.171401  0  -0.368969  -0.634339  0  2.221327  0
O  O234  1  0.57235405  0.82976300  0.95315932  1  -1.166992  0  -0.37739  -0.610944  0  2.203472  0
O  O235  1  0.59474104  0.91016883  0.00151577  1  -1.211613  0  -0.42329  -0.733099  0  2.434154  0
O  O236  1  0.53783301  0.02628186  0.91407835  1  -1.177687  0  -0.396931  -0.650542  0  2.315333  0
O  O237  1  0.58562990  0.08618893  0.96459292  1  -1.185321  0  -0.395521  -0.67732  0  2.327983  0
O  O238  1  0.26950681  0.01808590  0.97125700  1  -1.250499  0  -0.386918  -0.639746  0  2.283455  0
O  O239  1  0.34600626  0.10720335  0.90094626  1  -1.237329  0  -0.387762  -0.602435  0  2.254613  0
O  O240  1  0.07505224  0.54983650  0.62593786  1  -1.18273  0  -0.390015  -0.655322  0  2.248425  0
O  O241  1  0.14796966  0.60379008  0.56480445  1  -1.171205  0  -0.368884  -0.634047  0  2.221131  0
O  O242  1  0.17024139  0.42764138  0.54683846  1  -1.166833  0  -0.37754  -0.611223  0  2.203257  0
O  O243  1  0.08982289  0.40524070  0.49849630  1  -1.211746  0  -0.423325  -0.733135  0  2.434247  0
O  O244  1  0.97370805  0.46217180  0.58592907  1  -1.177509  0  -0.396926  -0.650564  0  2.315439  0
O  O245  1  0.91382474  0.41436209  0.53540946  1  -1.185096  0  -0.395567  -0.677454  0  2.32794  0
O  O246  1  0.98189937  0.73049052  0.52872689  1  -1.250776  0  -0.386989  -0.639817  0  2.283646  0
O  O247  1  0.89280773  0.65399604  0.59905039  1  -1.237113  0  -0.387704  -0.602265  0  2.254393  0
O  O248  1  0.54987192  0.07504375  0.12592759  1  -1.183821  0  -0.390165  -0.655616  0  2.2487  0
O  O249  1  0.60378921  0.14799149  0.06480086  1  -1.171604  0  -0.368717  -0.634154  0  2.222105  0
O  O250  1  0.42764844  0.17023059  0.04683745  1  -1.166795  0  -0.377446  -0.611054  0  2.203262  0
O  O251  1  0.40525326  0.08982718  0.99848696  1  -1.211738  0  -0.423262  -0.7331  0  2.434273  0
O  O252  1  0.46217217  0.97371664  0.08591802  1  -1.177655  0  -0.39697  -0.650568  0  2.315343  0
O  O253  1  0.41436363  0.91382024  0.03540356  1  -1.185337  0  -0.395594  -0.677465  0  2.327943  0
O  O254  1  0.73051071  0.98190286  0.02874380  1  -1.250532  0  -0.38683  -0.639665  0  2.283587  0
O  O255  1  0.65399620  0.89279454  0.09905009  1  -1.237449  0  -0.387776  -0.602406  0  2.25454  0
O  O256  1  0.92495932  0.45012683  0.37407035  1  -1.183684  0  -0.390189  -0.655721  0  2.248499  0
O  O257  1  0.85200616  0.39621780  0.43520110  1  -1.171857  0  -0.368818  -0.634344  0  2.221974  0
O  O258  1  0.82975494  0.57235678  0.45315990  1  -1.166556  0  -0.377391  -0.611036  0  2.203268  0
O  O259  1  0.91017218  0.59474277  0.50151011  1  -1.211495  0  -0.423246  -0.733122  0  2.43404  0
O  O260  1  0.02629515  0.53781782  0.41407269  1  -1.177687  0  -0.396972  -0.650595  0  2.315267  0
O  O261  1  0.08618048  0.58563091  0.46458926  1  -1.185005  0  -0.395598  -0.677583  0  2.327983  0
O  O262  1  0.01809843  0.26948926  0.47126057  1  -1.250536  0  -0.386846  -0.639672  0  2.283498  0
O  O263  1  0.10721598  0.34598509  0.40095630  1  -1.23767  0  -0.387728  -0.602312  0  2.254416  0
