# generated using pymatgen
data_CuH20C28N10(O3F4)2
_symmetry_space_group_name_H-M   'P 1'
_cell_length_a   8.67591068
_cell_length_b   9.90427347
_cell_length_c   20.01025409
_cell_angle_alpha   96.89644741
_cell_angle_beta   89.99627197
_cell_angle_gamma   115.97388524
_symmetry_Int_Tables_number   1
_chemical_formula_structural   CuH20C28N10(O3F4)2
_chemical_formula_sum   'Cu2 H40 C56 N20 O12 F16'
_cell_volume   1531.93372031
_cell_formula_units_Z   2
loop_
 _symmetry_equiv_pos_site_id
 _symmetry_equiv_pos_as_xyz
  1  'x, y, z'
loop_
 _atom_site_type_symbol
 _atom_site_label
 _atom_site_symmetry_multiplicity
 _atom_site_fract_x
 _atom_site_fract_y
 _atom_site_fract_z
 _atom_site_occupancy
 _atom_site_hle17_ddec_charge
 _atom_site_hle17_ddec_spin_density
 _atom_site_hle17_ddec_sum_bond_order
 _atom_site_hle17_magmom
 _atom_site_hse06_10hf_bader_charge
 _atom_site_hse06_10hf_bader_spin_density
 _atom_site_hse06_10hf_ddec_charge
 _atom_site_hse06_10hf_ddec_spin_density
 _atom_site_hse06_10hf_ddec_sum_bond_order
 _atom_site_hse06_10hf_magmom
 _atom_site_hse06_ddec_charge
 _atom_site_hse06_ddec_spin_density
 _atom_site_hse06_ddec_sum_bond_order
 _atom_site_hse06_magmom
 _atom_site_pbe_cm5_charge
 _atom_site_pbe_ddec_charge
 _atom_site_pbe_ddec_spin_density
 _atom_site_pbe_ddec_sum_bond_order
 _atom_site_pbe_magmom
Cu  Cu0  1  0.00000172  0.00000113  0.00000007  1  0.802252  -0.706884  1.917993  -0.535  1.107937  -0.630774  0.761448  -0.776191  2.300409  -0.627  0.833221  -0.832183  2.2494  -0.698  0.793221  0.718416  -0.737842  2.334928  -0.581
Cu  Cu1  1  0.00000120  0.00000075  0.49999976  1  0.799605  -0.706737  1.922271  -0.535  1.11406  -0.630446  0.759539  -0.775829  2.303684  -0.627  0.831082  -0.831844  2.253091  -0.698  0.79375  0.717466  -0.737665  2.3369  -0.581
H  H2  1  0.44533188  0.54811481  0.34465233  1  0.114698  6.7e-05  0.949238  0.0  0.173368  -1e-06  0.119853  6e-06  1.019415  0.0  0.122819  1.2e-05  1.016031  0.0  0.118332  0.117485  -7e-06  1.022135  0.0
H  H3  1  0.89765899  0.45203363  0.15530403  1  0.114539  6.5e-05  0.95019  0.0  0.175262  -1.3e-05  0.120255  -3e-06  1.019818  0.0  0.123113  5e-06  1.016525  0.0  0.118421  0.118252  -7e-06  1.021989  0.0
H  H4  1  0.55467012  0.45188657  0.65534882  1  0.114702  7e-05  0.949251  0.0  0.17335  -1e-06  0.119853  6e-06  1.01944  0.0  0.122818  1.2e-05  1.016058  0.0  0.118335  0.117485  -7e-06  1.022162  0.0
H  H5  1  0.10234014  0.54796662  0.84469506  1  0.114499  6e-05  0.950299  0.0  0.175293  -1.3e-05  0.120203  -3e-06  1.019912  0.0  0.12306  6e-06  1.016621  0.0  0.118403  0.118211  -7e-06  1.022071  0.0
H  H6  1  0.56838456  0.47512471  0.29545391  1  0.079465  7.1e-05  0.954952  0.0  0.100508  1.9e-05  0.08749  2.4e-05  1.027146  0.0  0.08762  3.1e-05  1.028331  0.0  0.104502  0.08733  2.4e-05  1.026437  0.0
H  H7  1  0.09352390  0.52482775  0.20459590  1  0.079377  8.3e-05  0.955633  0.0  0.102913  2.6e-05  0.087451  3.1e-05  1.027867  0.0  0.087623  3.7e-05  1.028929  0.0  0.104098  0.087222  2.3e-05  1.027314  0.0
H  H8  1  0.43161514  0.52487666  0.70454675  1  0.079461  7.4e-05  0.95493  0.0  0.100491  1.9e-05  0.08746  2.4e-05  1.027169  0.0  0.087589  3.1e-05  1.028355  0.0  0.104475  0.0873  2.4e-05  1.026459  0.0
H  H9  1  0.90647521  0.47517476  0.79540382  1  0.079415  8e-05  0.955639  0.0  0.102923  2.6e-05  0.087461  3.1e-05  1.02788  0.0  0.087633  3.6e-05  1.028942  0.0  0.104097  0.087232  2.3e-05  1.027327  0.0
H  H10  1  0.24536984  0.59259285  0.02009190  1  0.112803  -0.000104  0.948908  0.0  0.154523  -0.000152  0.11914  -8e-05  1.019529  0.0  0.121373  -4.8e-05  1.016634  0.0  0.113999  0.117198  -0.000111  1.022215  0.0
H  H11  1  0.65323935  0.40758423  0.47988549  1  0.114194  -0.000104  0.947496  0.0  0.166077  -0.000155  0.119583  -8.2e-05  1.019574  0.0  0.122145  -5.1e-05  1.01607  0.0  0.114475  0.117968  -0.000111  1.021526  0.0
H  H12  1  0.75463101  0.40740853  0.97990826  1  0.1128  -0.000107  0.94888  0.0  0.154511  -0.000152  0.119133  -8e-05  1.019522  0.0  0.121368  -4.8e-05  1.016624  0.0  0.113995  0.117194  -0.000111  1.022201  0.0
H  H13  1  0.34676152  0.59241489  0.52011353  1  0.114058  -0.000106  0.947657  0.0  0.166124  -0.000155  0.119545  -8.2e-05  1.019584  0.0  0.122107  -5.1e-05  1.016082  0.0  0.114467  0.117932  -0.000111  1.021536  0.0
H  H14  1  0.24746187  0.76211060  0.06152709  1  0.103637  2e-05  0.95684  0.0  0.134901  1.8e-05  0.108592  -2e-05  1.030433  0.0  0.110441  -1.5e-05  1.028791  0.0  0.111261  0.107163  -2.7e-05  1.031696  0.0
H  H15  1  0.48562100  0.23812840  0.43853131  1  0.103412  1.7e-05  0.956174  0.0  0.143759  1.8e-05  0.108914  -2.1e-05  1.029684  0.0  0.110761  -1.5e-05  1.028116  0.0  0.111028  0.10754  -2.7e-05  1.030799  0.0
H  H16  1  0.75254012  0.23789078  0.93847357  1  0.103646  1.4e-05  0.956788  0.0  0.13491  1.8e-05  0.108604  -2.1e-05  1.030396  0.0  0.110453  -1.5e-05  1.028755  0.0  0.11125  0.107174  -2.7e-05  1.031658  0.0
H  H17  1  0.51437986  0.76187071  0.56146772  1  0.103413  1.4e-05  0.956135  0.0  0.143757  1.8e-05  0.108862  -2.1e-05  1.029711  0.0  0.110725  -1.5e-05  1.028125  0.0  0.111017  0.107486  -2.7e-05  1.030826  0.0
H  H18  1  0.35218839  0.79708360  0.92675172  1  0.11387  -0.000569  0.959802  -0.001  0.10574  -0.001065  0.121133  -0.000478  1.027377  -0.001  0.123502  -0.000344  1.025891  0.0  0.119137  0.119354  -0.000589  1.028567  -0.001
H  H19  1  0.55529436  0.20302013  0.57312264  1  0.114579  -0.00057  0.960084  -0.001  0.111971  -0.001061  0.121728  -0.000477  1.027434  -0.001  0.124061  -0.000343  1.02609  0.0  0.119246  0.119934  -0.000589  1.028678  -0.001
H  H20  1  0.64781246  0.20291778  0.07324944  1  0.113842  -0.00057  0.959816  -0.001  0.105681  -0.001065  0.121112  -0.000478  1.027383  -0.001  0.12348  -0.000344  1.025898  0.0  0.119115  0.119331  -0.000589  1.028572  -0.001
H  H21  1  0.44470764  0.79698125  0.42687702  1  0.114555  -0.000568  0.960096  -0.001  0.11189  -0.001062  0.121709  -0.000477  1.027448  -0.001  0.124041  -0.000343  1.026106  0.0  0.119233  0.119912  -0.000589  1.028687  -0.001
H  H22  1  0.69031002  0.95842798  0.89489443  1  0.108361  -0.000105  0.964338  0.0  0.128559  -0.00074  0.113087  -0.00027  1.031706  -0.001  0.11535  -0.000179  1.029867  0.0  0.114811  0.11142  -0.00035  1.033107  -0.001
H  H23  1  0.73171388  0.04133527  0.60494731  1  0.10876  -0.000103  0.963606  0.0  0.132633  -0.00074  0.113816  -0.000272  1.030505  -0.001  0.115995  -0.000181  1.028832  0.0  0.114901  0.112219  -0.00035  1.03173  -0.001
H  H24  1  0.30968968  0.04157340  0.10510623  1  0.108348  -0.000104  0.964375  0.0  0.128569  -0.000739  0.113081  -0.00027  1.031731  -0.001  0.115344  -0.000179  1.029892  0.0  0.114807  0.111406  -0.00035  1.03314  -0.001
H  H25  1  0.26828640  0.95866497  0.39505228  1  0.108804  -0.000104  0.963648  0.0  0.132621  -0.000741  0.113877  -0.000272  1.030491  -0.001  0.116058  -0.000181  1.028815  0.0  0.114924  0.112278  -0.00035  1.031718  -0.001
H  H26  1  0.68763028  0.82301412  0.08717227  1  0.098902  -0.0  0.969955  0.0  0.174189  -0.00046  0.103026  -5.2e-05  1.043233  0.0  0.105102  -6e-06  1.040592  0.0  0.129271  0.101336  -9.2e-05  1.04516  0.0
H  H27  1  0.86480778  0.17690497  0.41271047  1  0.099255  3e-06  0.969554  0.0  0.201629  -0.000452  0.103461  -4.8e-05  1.042549  0.0  0.105543  -4e-06  1.039905  0.0  0.129397  0.101703  -9.2e-05  1.044698  0.0
H  H28  1  0.31237056  0.17698726  0.91282839  1  0.098899  0.0  0.969936  0.0  0.174227  -0.000461  0.103022  -5.2e-05  1.043213  0.0  0.105098  -6e-06  1.040573  0.0  0.129276  0.101334  -9.2e-05  1.045144  0.0
H  H29  1  0.13519022  0.82309301  0.58728899  1  0.099193  5e-06  0.969632  0.0  0.201638  -0.000451  0.103444  -4.8e-05  1.042597  0.0  0.105498  -4e-06  1.039987  0.0  0.129377  0.101686  -9.2e-05  1.044751  0.0
H  H30  1  0.06143998  0.01046094  0.34055135  1  0.11455  -0.000239  0.960897  -0.001  0.15051  -0.000949  0.119227  -0.000404  1.024599  -0.001  0.122193  -0.000282  1.021987  -0.001  0.117854  0.116896  -0.000509  1.026771  -0.001
H  H31  1  0.05105489  0.98947003  0.15948350  1  0.114621  -0.000239  0.962098  -0.001  0.14726  -0.000947  0.119116  -0.000403  1.025919  -0.001  0.122044  -0.000282  1.023353  -0.001  0.117813  0.117068  -0.000508  1.027564  -0.001
H  H32  1  0.93856378  0.98953704  0.65944810  1  0.114586  -0.000239  0.960867  -0.001  0.150523  -0.000949  0.119255  -0.000404  1.024586  -0.001  0.122217  -0.000282  1.021978  -0.001  0.117846  0.116923  -0.000509  1.026759  -0.001
H  H33  1  0.94894883  0.01053248  0.84051723  1  0.114571  -0.000239  0.962121  -0.001  0.147303  -0.000947  0.119124  -0.000403  1.025878  -0.001  0.122053  -0.000282  1.02331  -0.001  0.117799  0.117076  -0.000509  1.027523  -0.001
H  H34  1  0.82608344  0.78398966  0.24490556  1  0.130537  -0.000583  0.980462  -0.001  0.135329  -0.000984  0.138296  -0.000467  1.044365  -0.001  0.140982  -0.000348  1.04293  0.0  0.11904  0.136241  -0.000566  1.045588  -0.001
H  H35  1  0.04242491  0.21604399  0.25512017  1  0.1305  -0.000581  0.980251  -0.001  0.193047  -0.000944  0.137981  -0.000465  1.044544  -0.001  0.140708  -0.000347  1.043089  0.0  0.118863  0.135907  -0.000566  1.045783  -0.001
H  H36  1  0.17391858  0.21600945  0.75509447  1  0.130555  -0.000582  0.980458  -0.001  0.135341  -0.000984  0.138311  -0.000466  1.044366  -0.001  0.140996  -0.000348  1.042933  0.0  0.11906  0.136257  -0.000566  1.045589  -0.001
H  H37  1  0.95757764  0.78396079  0.74488019  1  0.130557  -0.00058  0.98019  -0.001  0.193054  -0.000944  0.138025  -0.000465  1.044485  -0.001  0.14075  -0.000347  1.043037  0.0  0.118897  0.135953  -0.000566  1.045725  -0.001
H  H38  1  0.66123386  0.69974389  0.44219117  1  0.117557  -0.000115  0.934911  -0.001  0.21064  -0.000536  0.122388  -0.000141  1.004188  0.0  0.125118  -8.5e-05  1.000033  0.0  0.140284  0.120253  -0.000187  1.007278  0.0
H  H39  1  0.96138099  0.30011702  0.05787251  1  0.117594  -0.000115  0.933632  -0.001  0.181407  -0.000535  0.122746  -0.000139  1.00243  0.0  0.125425  -8.3e-05  0.998335  0.0  0.140222  0.120512  -0.000187  1.005777  0.0
H  H40  1  0.33876408  0.30026089  0.55780869  1  0.117513  -0.000118  0.934923  -0.001  0.210611  -0.000536  0.122347  -0.000141  1.004206  0.0  0.125083  -8.5e-05  1.000032  0.0  0.140268  0.120245  -0.000187  1.007249  0.0
H  H41  1  0.03861929  0.69988322  0.94212708  1  0.11758  -0.000115  0.933652  -0.001  0.181411  -0.000535  0.12273  -0.000139  1.002454  0.0  0.12541  -8.4e-05  0.998359  0.0  0.140209  0.120496  -0.000187  1.005798  0.0
C  C42  1  0.54147656  0.57358796  0.30620336  1  -0.01599  -0.000956  3.625363  -0.001  0.288184  -0.000997  -0.078772  -0.000705  3.872594  -0.001  -0.074478  -0.000535  3.882491  -0.001  -0.0486  -0.081531  -0.000874  3.866072  -0.001
C  C43  1  0.96810131  0.42645306  0.19379821  1  -0.015739  -0.00098  3.626223  -0.001  0.284681  -0.001011  -0.07917  -0.000717  3.873172  -0.001  -0.074769  -0.00054  3.882986  -0.001  -0.048567  -0.082308  -0.000871  3.866793  -0.001
C  C44  1  0.45852313  0.42641342  0.69379680  1  -0.015951  -0.000965  3.625293  -0.001  0.288208  -0.000997  -0.078771  -0.000706  3.872628  -0.001  -0.074478  -0.000535  3.882528  -0.001  -0.048577  -0.081529  -0.000874  3.866111  -0.001
C  C45  1  0.03189838  0.57354832  0.80620145  1  -0.015777  -0.00097  3.626297  -0.001  0.284693  -0.001011  -0.079147  -0.000716  3.873201  -0.001  -0.074744  -0.000541  3.883014  -0.001  -0.048534  -0.082291  -0.000872  3.866819  -0.001
C  C46  1  0.43822554  0.72464566  0.24023194  1  0.170394  -0.000284  3.795405  0.0  0.53987  -0.000288  0.130621  -0.000174  4.106806  0.0  0.139556  -0.00013  4.114976  0.0  0.08914  0.124207  -0.000234  4.101535  0.0
C  C47  1  0.71342908  0.27566733  0.25967049  1  0.17215  -0.000274  3.795054  0.0  0.490341  -0.00029  0.131909  -0.000174  4.10638  0.0  0.140744  -0.000127  4.114968  0.0  0.088424  0.125421  -0.000232  4.101264  0.0
C  C48  1  0.56176958  0.27535119  0.75976794  1  0.170429  -0.000281  3.795394  0.0  0.539885  -0.000289  0.130683  -0.000175  4.106791  0.0  0.139617  -0.000127  4.114962  0.0  0.089151  0.124269  -0.000234  4.101527  0.0
C  C49  1  0.28656833  0.72433178  0.74032853  1  0.172147  -0.000273  3.795021  0.0  0.490335  -0.00029  0.131854  -0.000175  4.106489  0.0  0.140689  -0.000128  4.115078  0.0  0.088399  0.125366  -0.000232  4.101379  0.0
C  C50  1  0.38628921  0.75441552  0.18017307  1  0.170344  0.000146  3.785171  0.0  0.511239  -1.3e-05  0.13498  -1e-06  4.092052  0.0  0.143738  5.1e-05  4.100168  0.0  0.090051  0.128743  -3.8e-05  4.086841  0.0
C  C51  1  0.63174525  0.24586368  0.31973525  1  0.168409  0.000163  3.789984  0.0  0.585877  1e-06  0.133502  1.6e-05  4.096138  0.0  0.141868  6.3e-05  4.104795  0.0  0.090389  0.127461  -3.9e-05  4.090809  0.0
C  C52  1  0.61370935  0.24558359  0.81982645  1  0.170385  0.000141  3.785194  0.0  0.511179  -1.2e-05  0.13501  0.0  4.092074  0.0  0.143769  4.8e-05  4.100189  0.0  0.09007  0.128776  -3.8e-05  4.086866  0.0
C  C53  1  0.36825444  0.75413770  0.68026441  1  0.168539  0.000166  3.789796  0.0  0.585884  1e-06  0.133504  1.6e-05  4.096168  0.0  0.141871  6.3e-05  4.104824  0.0  0.090385  0.127463  -3.9e-05  4.090842  0.0
C  C54  1  0.37162085  0.66362774  0.11903210  1  -0.086458  -0.000305  3.783319  0.0  0.088725  -0.000298  -0.094047  -0.000189  4.060422  0.0  -0.096911  -0.000129  4.081617  0.0  -0.021297  -0.092606  -0.000284  4.047507  0.0
C  C55  1  0.70807267  0.33646669  0.38089831  1  -0.088414  -0.000292  3.786008  0.0  0.08119  -0.000302  -0.095924  -0.000191  4.064665  0.0  -0.098405  -0.000129  4.084941  0.0  -0.021966  -0.094083  -0.000282  4.050359  0.0
C  C56  1  0.62837713  0.33637251  0.88096800  1  -0.086523  -0.000308  3.783353  0.0  0.088807  -0.000301  -0.094123  -0.000191  4.060487  0.0  -0.096987  -0.000127  4.08168  0.0  -0.021291  -0.092673  -0.000284  4.047553  0.0
C  C57  1  0.29192820  0.66353242  0.61910022  1  -0.088379  -0.000294  3.786266  0.0  0.08115  -0.000301  -0.095957  -0.000191  4.064665  0.0  -0.098436  -0.000129  4.084941  0.0  -0.02199  -0.094113  -0.000282  4.050359  0.0
C  C58  1  0.40868632  0.54053548  0.12133350  1  0.185267  0.000143  3.773392  0.0  0.529011  -1.3e-05  0.145193  2e-05  4.084572  0.0  0.154111  7e-05  4.093432  0.0  0.09504  0.137192  -1.8e-05  4.080622  0.0
C  C59  1  0.86835072  0.45940791  0.37862406  1  0.186035  0.000109  3.774718  0.0  0.523862  -2.6e-05  0.143265  8e-06  4.088738  0.0  0.154004  5.8e-05  4.0959  0.0  0.094802  0.137087  -1.9e-05  4.083069  0.0
C  C60  1  0.59130650  0.45946137  0.87866638  1  0.185425  0.000141  3.773401  0.0  0.528704  -1.1e-05  0.145297  2.1e-05  4.084531  0.0  0.154218  6.6e-05  4.093389  0.0  0.095087  0.137324  -1.8e-05  4.08056  0.0
C  C61  1  0.13165188  0.54059006  0.62137539  1  0.184927  0.000102  3.77641  0.0  0.523926  -2.6e-05  0.143324  8e-06  4.088741  0.0  0.154068  5.9e-05  4.095899  0.0  0.09488  0.137147  -1.9e-05  4.083073  0.0
C  C62  1  0.45932897  0.51006392  0.18154644  1  0.186751  -0.000336  3.781397  0.0  0.542721  -0.000334  0.15371  -0.000217  4.084731  0.0  0.162633  -0.000161  4.092757  0.0  0.095091  0.146837  -0.000288  4.081129  0.0
C  C63  1  0.94944350  0.48993821  0.31842325  1  0.18671  -0.00033  3.783305  0.0  0.549748  -0.000343  0.152941  -0.000223  4.088424  0.0  0.16231  -0.000161  4.095191  0.0  0.094465  0.146468  -0.000286  4.083419  0.0
C  C64  1  0.54066100  0.48992952  0.81845374  1  0.186523  -0.000334  3.781696  0.0  0.542933  -0.000335  0.153582  -0.000218  4.084902  0.0  0.162504  -0.000158  4.092928  0.0  0.095026  0.146719  -0.000288  4.081279  0.0
C  C65  1  0.05055679  0.51005977  0.68157621  1  0.186632  -0.000326  3.783669  0.0  0.549744  -0.000342  0.152799  -0.000223  4.088544  0.0  0.162167  -0.000162  4.095309  0.0  0.094412  0.146326  -0.000286  4.083543  0.0
C  C66  1  0.47703960  0.60223817  0.24229731  1  -0.082953  -0.000108  3.766333  0.0  0.131522  -0.000145  -0.08716  -8.4e-05  4.036293  0.0  -0.089375  2.3e-05  4.055811  0.0  -0.020219  -0.085775  -0.000206  4.023475  0.0
C  C67  1  0.87483510  0.39789536  0.25766753  1  -0.084335  -0.000116  3.765003  0.0  0.118066  -0.000149  -0.087664  -8.8e-05  4.034378  0.0  -0.08993  1.4e-05  4.053951  0.0  -0.019501  -0.086142  -0.000205  4.021697  0.0
C  C68  1  0.52295494  0.39775981  0.75770314  1  -0.08294  -0.000107  3.766392  0.0  0.131589  -0.000144  -0.087201  -8.3e-05  4.036324  0.0  -0.089416  1.9e-05  4.055842  0.0  -0.020225  -0.085816  -0.000206  4.023506  0.0
C  C69  1  0.12516575  0.60210602  0.74233213  1  -0.084092  -0.000121  3.764818  0.0  0.118063  -0.00015  -0.087591  -8.9e-05  4.034414  0.0  -0.089856  1.7e-05  4.053986  0.0  -0.019487  -0.086071  -0.000205  4.021743  0.0
C  C70  1  0.32348205  0.69805512  0.05340747  1  -0.028417  -0.00109  3.622583  -0.001  0.29563  -0.001129  -0.092835  -0.000798  3.872088  -0.001  -0.088403  -0.000591  3.881366  -0.001  -0.05294  -0.095996  -0.000987  3.866785  -0.001
C  C71  1  0.62571245  0.30208362  0.44656641  1  -0.02983  -0.001087  3.621349  -0.001  0.280755  -0.00114  -0.095093  -0.000801  3.872502  -0.001  -0.090456  -0.000592  3.881087  -0.001  -0.053358  -0.097878  -0.000989  3.866383  -0.001
C  C72  1  0.67651823  0.30194512  0.94659262  1  -0.028408  -0.001076  3.622569  -0.001  0.295758  -0.001128  -0.092865  -0.000798  3.872125  -0.001  -0.088435  -0.000591  3.881409  -0.001  -0.052941  -0.096022  -0.000987  3.866813  -0.001
C  C73  1  0.37428783  0.69791663  0.55343268  1  -0.02981  -0.001076  3.621512  -0.001  0.280604  -0.001141  -0.094989  -0.000802  3.872538  -0.001  -0.090367  -0.000592  3.88113  -0.001  -0.053319  -0.09778  -0.000989  3.866421  -0.001
C  C74  1  0.47189329  0.82821614  0.95493749  1  -0.044654  -0.004675  3.650846  -0.005  0.4086  -0.003697  -0.092927  -0.00232  3.922397  -0.003  -0.090739  -0.002001  3.939659  -0.002  0.000531  -0.094442  -0.002616  3.911109  -0.003
C  C75  1  0.64383829  0.17181344  0.54494548  1  -0.045404  -0.004629  3.652251  -0.005  0.347238  -0.003746  -0.093556  -0.002311  3.923864  -0.003  -0.091236  -0.001993  3.940773  -0.002  0.001146  -0.094794  -0.002612  3.912071  -0.003
C  C76  1  0.52810812  0.17178637  0.04506324  1  -0.044671  -0.00467  3.650821  -0.005  0.408674  -0.003697  -0.09295  -0.00232  3.922369  -0.003  -0.090763  -0.002001  3.93963  -0.002  0.000519  -0.094464  -0.002616  3.911078  -0.003
C  C77  1  0.35616142  0.82818568  0.45505405  1  -0.04533  -0.00465  3.652026  -0.005  0.347366  -0.003746  -0.09357  -0.002311  3.923879  -0.003  -0.091249  -0.001992  3.940789  -0.002  0.001118  -0.094803  -0.002612  3.912075  -0.003
C  C78  1  0.63965706  0.90761866  0.93980943  1  0.012205  0.001266  3.722915  0.0  0.394019  -0.00088  -0.024085  -0.000455  4.009075  -0.001  -0.01933  0.000624  4.027033  0.0  -0.003951  -0.027357  -0.001252  3.997547  -0.002
C  C79  1  0.73199809  0.09226337  0.56005960  1  0.009676  0.001218  3.724467  0.0  0.438701  -0.000841  -0.026834  -0.000455  4.011149  -0.001  -0.021979  0.000625  4.028899  0.0  -0.004427  -0.029701  -0.001247  3.99882  -0.002
C  C80  1  0.36034437  0.09238158  0.06019066  1  0.012181  0.001257  3.722951  0.0  0.393963  -0.00088  -0.024108  -0.000455  4.009106  -0.001  -0.019352  0.000624  4.027064  0.0  -0.003942  -0.027368  -0.001252  3.997562  -0.002
C  C81  1  0.26799990  0.90773461  0.43993936  1  0.009654  0.001244  3.724361  0.0  0.438691  -0.00084  -0.026907  -0.000453  4.011183  -0.001  -0.02205  0.000624  4.028924  0.0  -0.004456  -0.029772  -0.001247  3.998853  -0.002
C  C82  1  0.64363482  0.84112201  0.03979282  1  0.153223  0.010667  3.640564  0.006  0.998584  0.00255  0.092863  0.003172  3.913923  0.001  0.107833  0.004555  3.92795  0.002  0.132117  0.08318  0.002172  3.904796  0.0
C  C83  1  0.80268338  0.15886705  0.46008910  1  0.151988  0.01067  3.64116  0.006  0.968013  0.002511  0.092062  0.003169  3.91435  0.001  0.107312  0.004552  3.927704  0.002  0.132602  0.082306  0.00217  3.90523  0.0
C  C84  1  0.35636717  0.15887937  0.96020733  1  0.153187  0.010652  3.64057  0.006  0.998573  0.00255  0.092832  0.003174  3.913924  0.001  0.107801  0.004555  3.927953  0.002  0.132112  0.083141  0.002171  3.904814  0.0
C  C85  1  0.19731462  0.84113092  0.53991036  1  0.152159  0.010662  3.640817  0.006  0.968168  0.002511  0.092054  0.00317  3.914321  0.001  0.107324  0.004551  3.927692  0.002  0.132576  0.082295  0.00217  3.905211  0.0
C  C86  1  0.94435006  0.91096516  0.34700267  1  0.003266  0.002065  3.72941  0.001  0.437199  -0.000453  -0.027574  -0.000165  4.001485  -0.001  -0.024224  0.000944  4.020604  0.0  -0.003248  -0.029642  -0.00099  3.989034  -0.002
C  C87  1  0.03335982  0.08891005  0.15303155  1  0.002269  0.002064  3.731926  0.001  0.413566  -0.000524  -0.028455  -0.000184  4.004248  -0.001  -0.025081  0.000921  4.023224  0.0  -0.003654  -0.030436  -0.000999  3.991075  -0.002
C  C88  1  0.05565311  0.08903396  0.65299685  1  0.00325  0.002076  3.729312  0.001  0.43717  -0.000454  -0.027602  -0.000165  4.001441  -0.001  -0.024249  0.000945  4.020563  0.0  -0.003209  -0.029666  -0.00099  3.988991  -0.002
C  C89  1  0.96664447  0.91109360  0.84696925  1  0.002304  0.002061  3.73191  0.0  0.413483  -0.000524  -0.028468  -0.000184  4.004202  -0.001  -0.025094  0.000922  4.023177  0.0  -0.003645  -0.030444  -0.000999  3.991029  -0.002
C  C90  1  0.82802582  0.80174681  0.29957072  1  -0.076879  -0.004983  3.665868  -0.005  0.311098  -0.004051  -0.116084  -0.00252  3.918536  -0.003  -0.115815  -0.002206  3.938555  -0.003  -0.007505  -0.116125  -0.002819  3.90501  -0.003
C  C91  1  0.02641558  0.19821457  0.20045840  1  -0.075546  -0.004983  3.665445  -0.005  0.273874  -0.004027  -0.114694  -0.002506  3.918454  -0.003  -0.114398  -0.002195  3.938233  -0.003  -0.00653  -0.114645  -0.002815  3.904739  -0.003
C  C92  1  0.17197561  0.19825344  0.70042887  1  -0.076853  -0.004994  3.66578  -0.005  0.311072  -0.004051  -0.116077  -0.00252  3.918521  -0.003  -0.115808  -0.002207  3.938538  -0.003  -0.007494  -0.116119  -0.002819  3.904999  -0.003
C  C93  1  0.97358468  0.80178794  0.79954183  1  -0.075671  -0.004983  3.665378  -0.005  0.274113  -0.004026  -0.114806  -0.002506  3.918415  -0.003  -0.114511  -0.002195  3.938193  -0.003  -0.006578  -0.114757  -0.002815  3.904706  -0.003
C  C94  1  0.73804941  0.75564503  0.40206920  1  0.154053  0.011299  3.616252  0.006  0.951105  0.00272  0.091389  0.003352  3.897131  0.001  0.107008  0.004854  3.908611  0.002  0.138214  0.081546  0.002266  3.889179  0.0
C  C95  1  0.98230950  0.24419255  0.09797720  1  0.154516  0.011346  3.616446  0.006  0.984171  0.002743  0.091791  0.003367  3.897214  0.001  0.107265  0.004869  3.908968  0.002  0.138517  0.081668  0.002273  3.889741  0.0
C  C96  1  0.26194970  0.24435749  0.59793002  1  0.154016  0.011339  3.616308  0.006  0.951088  0.002721  0.091471  0.003353  3.897036  0.001  0.107094  0.004854  3.908518  0.002  0.138224  0.08161  0.002266  3.889074  0.0
C  C97  1  0.01769134  0.75580883  0.90202246  1  0.154433  0.011338  3.616421  0.006  0.984189  0.002743  0.091704  0.003367  3.8972  0.001  0.107177  0.00487  3.908955  0.002  0.138467  0.081588  0.002273  3.889721  0.0
N  N98  1  0.74484398  0.91480817  0.99309868  1  -0.344434  -0.079916  3.355558  -0.106  -1.243973  -0.085115  -0.306469  -0.054652  3.676138  -0.076  -0.336712  -0.044669  3.698267  -0.066  -0.37823  -0.287764  -0.060961  3.662452  -0.081
N  N99  1  0.83006085  0.08510293  0.50678319  1  -0.342738  -0.079916  3.356131  -0.106  -1.240137  -0.085107  -0.305477  -0.054706  3.677223  -0.076  -0.335455  -0.04473  3.698758  -0.066  -0.378773  -0.28684  -0.060977  3.663174  -0.081
N  N100  1  0.25515743  0.08519435  0.00690205  1  -0.344347  -0.07991  3.355536  -0.106  -1.243967  -0.085115  -0.306377  -0.054653  3.676098  -0.076  -0.33662  -0.04467  3.698228  -0.066  -0.378198  -0.287672  -0.060961  3.662419  -0.081
N  N101  1  0.16993714  0.91489505  0.49321627  1  -0.342559  -0.079919  3.355778  -0.106  -1.240249  -0.085107  -0.305452  -0.054707  3.677227  -0.076  -0.335429  -0.044731  3.698759  -0.066  -0.378733  -0.286815  -0.060977  3.663179  -0.081
N  N102  1  0.47668995  0.78661238  0.01801784  1  -0.051888  -0.001014  3.546857  -0.002  -1.266054  -0.002097  0.043422  -0.000907  3.764277  -0.002  0.028365  -0.000465  3.79056  -0.001  -0.236715  0.053153  -0.00128  3.746789  -0.002
N  N103  1  0.69032459  0.21346346  0.48188422  1  -0.049008  -0.001019  3.546432  -0.002  -1.264035  -0.002083  0.045914  -0.00091  3.764321  -0.002  0.031143  -0.00047  3.789988  -0.001  -0.236815  0.055866  -0.00128  3.746238  -0.002
N  N104  1  0.52331089  0.21338900  0.98198232  1  -0.051844  -0.001014  3.546875  -0.002  -1.26615  -0.002096  0.043477  -0.000906  3.764291  -0.002  0.028421  -0.000464  3.790574  -0.001  -0.236708  0.053207  -0.00128  3.746808  -0.002
N  N105  1  0.30967284  0.78653339  0.51811466  1  -0.048819  -0.001017  3.546078  -0.002  -1.264051  -0.002083  0.045979  -0.00091  3.764202  -0.002  0.031213  -0.000469  3.789866  -0.001  -0.236753  0.055932  -0.00128  3.74612  -0.002
N  N106  1  0.88688282  0.88039685  0.41033577  1  -0.327803  -0.078485  3.334474  -0.104  -1.243113  -0.085676  -0.2895  -0.055124  3.650624  -0.077  -0.317903  -0.045091  3.671505  -0.067  -0.367228  -0.271925  -0.061524  3.637268  -0.082
N  N107  1  0.00631694  0.11939946  0.08969694  1  -0.328446  -0.078466  3.335266  -0.104  -1.241561  -0.085632  -0.290126  -0.055104  3.651676  -0.077  -0.318561  -0.045059  3.672614  -0.067  -0.367563  -0.272476  -0.061459  3.638552  -0.082
N  N108  1  0.11311918  0.11960453  0.58966389  1  -0.327906  -0.078498  3.334576  -0.104  -1.243023  -0.085674  -0.289581  -0.055124  3.650632  -0.077  -0.317983  -0.045091  3.67151  -0.067  -0.367261  -0.272008  -0.061521  3.637287  -0.082
N  N109  1  0.99368506  0.88060192  0.91030322  1  -0.328402  -0.078461  3.335207  -0.104  -1.241586  -0.08563  -0.290065  -0.055102  3.65162  -0.077  -0.318501  -0.045059  3.67256  -0.067  -0.367548  -0.272414  -0.061455  3.638492  -0.082
N  N110  1  0.69808700  0.70522256  0.33521993  1  -0.063144  -0.00086  3.571896  -0.002  -1.26061  -0.002026  0.031066  -0.000875  3.791459  -0.002  0.015786  -0.000422  3.818655  -0.001  -0.243952  0.041275  -0.001263  3.772659  -0.002
N  N111  1  0.99294879  0.29471304  0.16481674  1  -0.063493  -0.000878  3.570708  -0.002  -1.260586  -0.00205  0.031025  -0.000893  3.790025  -0.002  0.015727  -0.000434  3.817139  -0.001  -0.243855  0.04126  -0.001259  3.771315  -0.002
N  N112  1  0.30191269  0.29477882  0.66478023  1  -0.063051  -0.000865  3.571695  -0.002  -1.260606  -0.002026  0.031106  -0.000875  3.79134  -0.002  0.015826  -0.000422  3.818537  -0.001  -0.24396  0.041314  -0.001264  3.772551  -0.002
N  N113  1  0.00705147  0.70528947  0.83518248  1  -0.063325  -0.000878  3.570595  -0.002  -1.260832  -0.002051  0.03116  -0.000893  3.789884  -0.002  0.015863  -0.000434  3.816996  -0.001  -0.243791  0.041395  -0.001259  3.771181  -0.002
N  N114  1  0.91053278  0.67989229  0.08942874  1  0.697133  0.0005  4.15378  0.0  0.8314  0.000541  0.734469  0.000532  4.440739  0.0  0.762884  0.00044  4.444978  0.0  0.095893  0.715553  0.000629  4.437079  0.001
N  N115  1  0.23151639  0.32003433  0.41054874  1  0.697135  0.000491  4.153081  0.0  0.837064  0.000545  0.734165  0.000534  4.440575  0.0  0.762637  0.000433  4.444748  0.0  0.09544  0.715206  0.000628  4.437122  0.001
N  N116  1  0.08947096  0.32010796  0.91057185  1  0.696873  0.000492  4.154184  0.0  0.831441  0.000541  0.734409  0.000531  4.440913  0.0  0.762824  0.000442  4.445152  0.0  0.095819  0.715493  0.000629  4.437255  0.001
N  N117  1  0.76848907  0.67996705  0.58945292  1  0.697162  0.000493  4.153115  0.0  0.837318  0.000545  0.734144  0.000534  4.440652  0.0  0.762621  0.000431  4.444817  0.0  0.095418  0.71518  0.000628  4.437205  0.001
O  O118  1  0.01126271  0.79591518  0.06306454  1  -0.509036  0.001459  1.803312  0.0  -0.598888  0.001125  -0.505008  0.001491  2.045173  0.0  -0.520405  0.001628  2.034548  0.0  -0.208196  -0.494646  0.00133  2.052398  0.0
O  O119  1  0.21607887  0.20402497  0.43697872  1  -0.50689  0.001475  1.802107  0.0  -0.600914  0.001149  -0.503974  0.001503  2.045671  0.0  -0.519266  0.001644  2.034848  0.0  -0.207313  -0.49376  0.001323  2.052941  0.0
O  O120  1  0.98874390  0.20408619  0.93693761  1  -0.508953  0.001464  1.803424  0.0  -0.598889  0.001125  -0.504978  0.001491  2.045193  0.0  -0.520377  0.001632  2.034569  0.0  -0.208139  -0.494614  0.00133  2.052419  0.0
O  O121  1  0.78392428  0.79597640  0.56302444  1  -0.506826  0.001476  1.802164  0.0  -0.600946  0.001149  -0.503939  0.001503  2.045764  0.0  -0.519235  0.00164  2.03495  0.0  -0.207297  -0.493723  0.001323  2.053032  0.0
O  O122  1  0.90265619  0.55137590  0.06758596  1  -0.476736  0.000239  1.756922  0.0  -0.562594  0.000281  -0.464956  0.000303  1.969456  0.0  -0.477894  0.000288  1.961442  0.0  -0.201855  -0.455887  0.000293  1.974697  0.0
O  O123  1  0.35168872  0.44864247  0.43259029  1  -0.478167  0.000197  1.757771  0.0  -0.56239  0.000246  -0.465161  0.00027  1.969659  0.0  -0.478162  0.000301  1.961543  0.0  -0.202055  -0.455965  0.000294  1.974771  0.0
O  O124  1  0.09734753  0.44862661  0.93241476  1  -0.476634  0.000238  1.756977  0.0  -0.562616  0.000281  -0.464936  0.000303  1.969453  0.0  -0.477873  0.000288  1.961439  0.0  -0.201849  -0.455869  0.000293  1.974699  0.0
O  O125  1  0.64831560  0.55135664  0.56741123  1  -0.478124  0.000195  1.757686  0.0  -0.562327  0.000246  -0.465115  0.000271  1.969643  0.0  -0.478117  0.000304  1.961525  0.0  -0.202003  -0.455906  0.000294  1.974744  0.0
O  O126  1  0.82075839  0.69376017  0.13731208  1  -0.492362  0.000154  1.741502  0.0  -0.567702  0.000225  -0.487332  0.000241  1.956178  0.0  -0.499959  0.000195  1.948891  0.0  -0.212185  -0.478326  0.000182  1.96071  0.0
O  O127  1  0.12849635  0.30602412  0.36240528  1  -0.492915  6e-05  1.739974  0.0  -0.571962  0.000144  -0.487902  0.000146  1.954466  0.0  -0.500483  0.0001  1.947046  0.0  -0.21264  -0.478672  0.00018  1.959182  0.0
O  O128  1  0.17923958  0.30624007  0.86268751  1  -0.492266  0.000154  1.741679  0.0  -0.567729  0.000225  -0.487309  0.000241  1.95631  0.0  -0.499935  0.000192  1.949021  0.0  -0.212167  -0.478307  0.000182  1.960849  0.0
O  O129  1  0.87151202  0.69397386  0.63759567  1  -0.492986  6e-05  1.739952  0.0  -0.572231  0.000144  -0.487954  0.000146  1.954436  0.0  -0.500534  0.000103  1.947008  0.0  -0.212693  -0.478727  0.00018  1.959158  0.0
F  F130  1  0.34871876  0.87391873  0.18164405  1  -0.159219  5e-06  1.235194  0.0  -0.633187  -0.0  -0.108693  -5e-06  1.396571  0.0  -0.117675  -1e-06  1.387272  0.0  -0.082539  -0.102514  -8e-06  1.403397  0.0
F  F131  1  0.47455756  0.12656468  0.31828122  1  -0.157633  5e-06  1.237532  0.0  -0.638592  -3e-06  -0.106779  -6e-06  1.398305  0.0  -0.114656  -3e-06  1.387991  0.0  -0.081864  -0.101082  -8e-06  1.405356  0.0
F  F132  1  0.65128037  0.12608152  0.81835554  1  -0.159259  5e-06  1.235199  0.0  -0.633185  -0.0  -0.108746  -5e-06  1.396595  0.0  -0.117728  -2e-06  1.387292  0.0  -0.082584  -0.102573  -8e-06  1.403426  0.0
F  F133  1  0.52544215  0.87343443  0.68171781  1  -0.157615  4e-06  1.237539  0.0  -0.638593  -2e-06  -0.106774  -6e-06  1.398349  0.0  -0.114651  -3e-06  1.388036  0.0  -0.081871  -0.101077  -8e-06  1.405401  0.0
F  F134  1  0.45345186  0.81792974  0.29779022  1  -0.159361  -2.6e-05  1.252105  0.0  -0.635067  -5.4e-05  -0.104434  -2.5e-05  1.414544  0.0  -0.113046  -1.8e-05  1.405411  0.0  -0.079572  -0.098063  -3.4e-05  1.420629  0.0
F  F135  1  0.63535161  0.18260433  0.20207932  1  -0.159569  -2.6e-05  1.252535  0.0  -0.633283  -5.3e-05  -0.104439  -2.4e-05  1.414989  0.0  -0.113059  -1.7e-05  1.405895  0.0  -0.079156  -0.098109  -3.4e-05  1.421147  0.0
F  F136  1  0.54654153  0.18206824  0.70220924  1  -0.159302  -2.6e-05  1.252147  0.0  -0.635076  -5.3e-05  -0.104418  -2.5e-05  1.414605  0.0  -0.11303  -1.8e-05  1.405473  0.0  -0.079548  -0.098045  -3.4e-05  1.42069  0.0
F  F137  1  0.36464810  0.81739478  0.79792020  1  -0.159591  -2.6e-05  1.252527  0.0  -0.633251  -5.3e-05  -0.104428  -2.4e-05  1.414975  0.0  -0.113048  -1.7e-05  1.40588  0.0  -0.079145  -0.098095  -3.4e-05  1.421134  0.0
F  F138  1  0.49575454  0.39038488  0.18024190  1  -0.157707  -4e-05  1.261026  0.0  -0.638337  -5.6e-05  -0.113851  -2.9e-05  1.436652  0.0  -0.122916  -2.8e-05  1.428122  0.0  -0.079555  -0.107616  -3.3e-05  1.443054  0.0
F  F139  1  0.10564645  0.60953590  0.31975940  1  -0.157166  -4e-05  1.262116  0.0  -0.643159  -5.6e-05  -0.113495  -2.9e-05  1.438154  0.0  -0.122341  -2.7e-05  1.429186  0.0  -0.079245  -0.106919  -3.3e-05  1.444069  0.0
F  F140  1  0.50423140  0.60960743  0.81975922  1  -0.157593  -4e-05  1.26111  0.0  -0.638361  -5.6e-05  -0.113775  -2.9e-05  1.436705  0.0  -0.12284  -2.8e-05  1.428176  0.0  -0.079488  -0.107537  -3.3e-05  1.4431  0.0
F  F141  1  0.89435559  0.39046095  0.68023948  1  -0.157154  -4e-05  1.262297  0.0  -0.643171  -5.6e-05  -0.113462  -2.9e-05  1.438208  0.0  -0.122307  -2.7e-05  1.42924  0.0  -0.079238  -0.106884  -3.3e-05  1.444124  0.0
F  F142  1  0.39956467  0.45065943  0.06361261  1  -0.150844  0.00014  1.251092  0.0  -0.632533  9.3e-05  -0.097573  0.000104  1.415367  0.0  -0.107725  0.000106  1.40882  0.0  -0.073847  -0.085891  0.0001  1.415803  0.0
F  F143  1  0.94913376  0.54916587  0.43636638  1  -0.150655  0.000144  1.251607  0.0  -0.632632  9.5e-05  -0.092055  0.000106  1.411477  0.0  -0.107287  0.000108  1.40955  0.0  -0.07341  -0.085495  0.0001  1.416586  0.0
F  F144  1  0.60042586  0.54933515  0.93638814  1  -0.150924  0.00014  1.251074  0.0  -0.632534  9.3e-05  -0.097535  0.000105  1.41524  0.0  -0.107688  0.000106  1.408693  0.0  -0.073878  -0.08593  0.0001  1.415738  0.0
F  F145  1  0.05087002  0.45082984  0.56363394  1  -0.150101  0.000145  1.251756  0.0  -0.632591  9.4e-05  -0.092031  0.000106  1.411473  0.0  -0.107273  0.000108  1.409554  0.0  -0.073435  -0.085471  0.0001  1.416582  0.0
