# generated using pymatgen
data_Zn2H29C43N8O
_symmetry_space_group_name_H-M   'P 1'
_cell_length_a   15.00134998
_cell_length_b   14.94951220
_cell_length_c   15.09446234
_cell_angle_alpha   108.74215519
_cell_angle_beta   110.38845514
_cell_angle_gamma   108.30951910
_symmetry_Int_Tables_number   1
_chemical_formula_structural   Zn2H29C43N8O
_chemical_formula_sum   'Zn4 H58 C86 N16 O2'
_cell_volume   2635.98532708
_cell_formula_units_Z   2
loop_
 _symmetry_equiv_pos_site_id
 _symmetry_equiv_pos_as_xyz
  1  'x, y, z'
loop_
 _atom_site_type_symbol
 _atom_site_label
 _atom_site_symmetry_multiplicity
 _atom_site_fract_x
 _atom_site_fract_y
 _atom_site_fract_z
 _atom_site_occupancy
 _atom_site_pbe_bader_charge
 _atom_site_pbe_bader_spin_density
 _atom_site_pbe_cm5_charge
 _atom_site_pbe_ddec_charge
 _atom_site_pbe_ddec_spin_density
 _atom_site_pbe_ddec_sum_bond_order
 _atom_site_pbe_magmom
Zn  Zn0  1  0.13476780  0.62536069  0.99933062  1  1.192724  0  0.737938  0.622363  0  2.393118  0
Zn  Zn1  1  0.87939212  0.37104148  0.00194003  1  1.186095  0  0.743797  0.600592  0  2.50151  0
Zn  Zn2  1  0.86817511  0.49899582  0.86461474  1  1.195315  0  0.751149  0.645645  0  2.399817  0
Zn  Zn3  1  0.15002688  0.50331089  0.14459935  1  1.19884  0  0.751623  0.650386  0  2.380414  0
H  H4  1  0.17589200  0.84823612  0.97320647  1  0.093108  0  0.106136  0.090948  0  1.061231  0
H  H5  1  0.47657396  0.17817600  0.96781390  1  0.054047  0  0.095088  0.092264  0  1.035913  0
H  H6  1  0.48043888  0.91831035  0.32924332  1  0.074651  0  0.106632  0.111074  0  0.981013  0
H  H7  1  0.43127484  0.17938795  0.79358521  1  0.053722  0  0.102559  0.104724  0  0.994577  0
H  H8  1  0.28384246  0.07149044  0.26813107  1  0.065494  0  0.099924  0.100106  0  1.003825  0
H  H9  1  0.40555704  0.86586740  0.65264225  1  0.041194  0  0.094966  0.091137  0  1.015432  0
H  H10  1  0.29904310  0.05657659  0.10572030  1  0.080167  0  0.095689  0.088758  0  1.055359  0
H  H11  1  0.44926867  0.86362822  0.82587408  1  0.057903  0  0.098589  0.094773  0  0.997375  0
H  H12  1  0.52519499  0.15384912  0.50356815  1  0.055194  0  0.097637  0.095626  0  1.043747  0
H  H13  1  0.24877785  0.87783912  0.51289809  1  0.049453  0  0.102583  0.10374  0  1.014052  0
H  H14  1  0.75720538  0.74204029  0.61045122  1  0.053282  0  0.103888  0.108029  0  0.990631  0
H  H15  1  0.84982592  0.16038043  0.83743292  1  0.075316  0  0.113769  0.098702  0  1.016477  0
H  H16  1  0.22417575  0.18630446  0.13169700  1  0.052354  0  0.100932  0.101737  0  1.000506  0
H  H17  1  0.80242054  0.79490002  0.29837838  1  0.034441  0  0.093366  0.079664  0  1.003087  0
H  H18  1  0.46852321  0.49316568  0.97142036  1  0.041666  0  0.090097  0.074855  0  1.011275  0
H  H19  1  0.82946529  0.27563616  0.16162790  1  0.082308  0  0.113777  0.101348  0  1.006713  0
H  H20  1  0.16734398  0.50665414  0.80141739  1  0.10442  0  0.112765  0.097961  0  1.010268  0
H  H21  1  0.82423968  0.88484037  0.93848364  1  0.077101  0  0.104132  0.107476  0  0.987717  0
H  H22  1  0.25898725  0.19036379  0.86200767  1  0.091427  0  0.104352  0.107164  0  0.989858  0
H  H23  1  0.43535538  0.44709908  0.42628312  1  0.004536  0  0.093362  0.082585  0  1.041223  0
H  H24  1  0.53144374  0.35759576  0.44089020  1  0.022999  0  0.088518  0.078217  0  1.042989  0
H  H25  1  0.29657874  0.25578827  0.34129416  1  0.033309  0  0.096001  0.089574  0  1.020197  0
H  H26  1  0.58557700  0.59033134  0.55872142  1  0.052391  0  0.097983  0.09148  0  1.025463  0
H  H27  1  0.71238114  0.51680625  0.58152906  1  0.044274  0  0.091437  0.084798  0  1.047426  0
H  H28  1  0.13533484  0.21229085  0.36592214  1  0.073604  0  0.104648  0.108324  0  0.986831  0
H  H29  1  0.88010549  0.50760853  0.60287221  1  0.060475  0  0.10203  0.108272  0  0.997738  0
H  H30  1  0.26343999  0.54800423  0.57861832  1  0.064125  0  0.10225  0.104428  0  0.990912  0
H  H31  1  0.68840088  0.17910722  0.34598738  1  0.079053  0  0.095789  0.095876  0  1.010663  0
H  H32  1  0.42069771  0.59306658  0.54839996  1  0.07762  0  0.099548  0.096432  0  1.018138  0
H  H33  1  0.52026157  0.18891225  0.32215246  1  0.098327  0  0.088501  0.084843  0  1.073306  0
H  H34  1  0.14658860  0.37886571  0.63465715  1  0.056374  0  0.097197  0.101659  0  1.010472  0
H  H35  1  0.83510740  0.31890437  0.32134294  1  0.046792  0  0.096064  0.097215  0  1.023755  0
H  H36  1  0.84977112  0.01261907  0.79257066  1  0.068564  0  0.097779  0.101476  0  1.019409  0
H  H37  1  0.41458541  0.33413159  0.25874135  1  0.071818  0  0.093805  0.086744  0  1.035532  0
H  H38  1  0.17845544  0.97724444  0.93304863  1  0.060051  0  0.09611  0.099044  0  1.032041  0
H  H39  1  0.63565584  0.65357512  0.97578525  1  0.016935  0  0.086839  0.069881  0  1.038887  0
H  H40  1  0.63733594  0.63366928  0.29444047  1  0.046  0  0.089229  0.073308  0  1.005312  0
H  H41  1  0.64361866  0.81388027  0.14766374  1  0.039791  0  0.086874  0.069362  0  1.012761  0
H  H42  1  0.63116221  0.47445367  0.12305176  1  0.020016  0  0.090169  0.072782  0  1.021754  0
H  H43  1  0.82632912  0.67913347  0.99603986  1  0.092205  0  0.112407  0.100493  0  1.018234  0
H  H44  1  0.41572790  0.55538566  0.22991431  1  0.079158  0  0.110135  0.098693  0  1.019498  0
H  H45  1  0.82760255  0.50222688  0.17422801  1  0.068395  0  0.11426  0.102367  0  1.005275  0
H  H46  1  0.37854129  0.70045909  0.02263262  1  0.050791  0  0.111249  0.098164  0  1.006355  0
H  H47  1  0.16877114  0.84471405  0.16400604  1  0.090047  0  0.112534  0.102599  0  1.029313  0
H  H48  1  0.65172286  0.73381951  0.88706721  1  0.059011  0  0.096829  0.090763  0  1.027094  0
H  H49  1  0.64130157  0.14207836  0.82278499  1  0.084139  0  0.115594  0.107516  0  1.00639  0
H  H50  1  0.18016843  0.45147278  0.34435460  1  0.110222  0  0.1076  0.097116  0  1.069426  0
H  H51  1  0.81905779  0.31484553  0.64868683  1  0.095697  0  0.116331  0.109508  0  1.007248  0
H  H52  1  0.82604268  0.66522383  0.77469210  1  0.096946  0  0.108832  0.097188  0  1.066851  0
H  H53  1  0.20121117  0.33927513  0.01076265  1  0.09205  0  0.11006  0.100311  0  1.050082  0
H  H54  1  0.53550642  0.58222593  0.69791747  1  0.076736  0  0.09858  0.098119  0  1.016122  0
H  H55  1  0.52626561  0.41205785  0.18709070  1  0.074374  0  0.099014  0.094968  0  1.024398  0
H  H56  1  0.27337343  0.75872965  0.45250590  1  0.610916  0  0.316718  0.345103  0  0.940748  0
H  H57  1  0.53652898  0.29558516  0.59115459  1  0.608217  0  0.326413  0.359645  0  0.909287  0
H  H58  1  0.44769678  0.34079507  0.98864760  1  0.063249  0  0.100186  0.092173  0  1.024667  0
H  H59  1  0.40173354  0.96923893  0.05255097  1  0.049174  0  0.095635  0.089779  0  1.034833  0
H  H60  1  0.49154398  0.02375794  0.98641369  1  0.034963  0  0.096088  0.090298  0  1.024183  0
H  H61  1  0.49527295  0.90202814  0.16684224  1  0.070483  0  0.098905  0.08987  0  1.015803  0
C  C62  1  0.09034614  0.78969556  0.92620805  1  0.407537  0  5.4e-05  -0.058645  0  3.995936  0
C  C63  1  0.10499343  0.98423678  0.90225668  1  -0.045667  0  -0.097233  -0.18496  0  3.982996  0
C  C64  1  0.63733323  0.65503685  0.64209816  1  -0.088246  0  -0.097181  -0.089004  0  4.046731  0
C  C65  1  0.38039495  0.30345836  0.17192486  1  -0.115756  0  -0.097252  -0.085604  0  4.044072  0
C  C66  1  0.73330802  0.74054019  0.67067437  1  -0.063751  0  -0.092623  -0.145116  0  3.988407  0
C  C67  1  0.27435882  0.21981699  0.10086381  1  -0.028866  0  -0.091661  -0.140446  0  3.989723  0
C  C68  1  0.44866539  0.93923950  0.18830463  1  -0.052459  0  -0.091601  -0.079676  0  4.042039  0
C  C69  1  0.46071643  0.10952520  0.89853442  1  -0.056788  0  -0.095509  -0.081333  0  4.031562  0
C  C70  1  0.44085134  0.94864626  0.27995892  1  -0.026957  0  -0.083509  -0.121178  0  3.947321  0
C  C71  1  0.43442579  0.10989002  0.80049978  1  -0.016416  0  -0.088497  -0.127351  0  3.976835  0
C  C72  1  0.38139836  0.99610607  0.30936277  1  -0.031761  0  -0.003167  0.080936  0  4.001359  0
C  C73  1  0.93548473  0.21876947  0.88621525  1  0.440253  0  0.006385  -0.04778  0  3.960295  0
C  C74  1  0.41524677  0.02269262  0.71084508  1  -0.048021  0  -0.009171  0.072574  0  3.996111  0
C  C75  1  0.33029386  0.03456708  0.24564679  1  -0.089843  0  -0.092456  -0.142762  0  3.988105  0
C  C76  1  0.41884882  0.93355377  0.72122543  1  -0.050885  0  -0.096929  -0.140955  0  3.994761  0
C  C77  1  0.91589655  0.32231616  0.19353092  1  0.41347  0  0.000637  -0.065615  0  4.014634  0
C  C78  1  0.08312288  0.46632595  0.78052235  1  0.410173  0  0.004992  -0.052061  0  3.967651  0
C  C79  1  0.33800345  0.02517267  0.15388103  1  -0.040724  0  -0.094426  -0.082639  0  4.036563  0
C  C80  1  0.44477565  0.93282577  0.81914914  1  -0.056861  0  -0.099208  -0.089015  0  4.060671  0
C  C81  1  0.39677047  0.97708563  0.12477668  1  -0.087057  0  -0.099413  -0.101683  0  4.02935  0
C  C82  1  0.46752399  0.02182254  0.90857438  1  -0.017983  0  -0.100093  -0.097959  0  4.040006  0
C  C83  1  0.46184582  0.09615692  0.50693342  1  -0.071014  0  -0.100625  -0.20532  0  3.998856  0
C  C84  1  0.00395950  0.35268553  0.29213122  1  -0.043843  0  -0.041075  -0.043337  0  4.071053  0
C  C85  1  0.31140656  0.93689853  0.50994545  1  -0.083575  0  -0.102313  -0.217454  0  3.99508  0
C  C86  1  0.47755458  0.10767485  0.60843532  1  -0.045292  0  -0.012858  0.063566  0  4.021467  0
C  C87  1  0.29903137  0.92276117  0.40850420  1  0.02895  0  -0.009862  0.070754  0  4.027632  0
C  C88  1  0.39948373  0.02454500  0.60886882  1  -0.010043  0  -0.009567  0.030013  0  3.968372  0
C  C89  1  0.37713070  0.00651323  0.40899117  1  0.013239  0  -0.010483  0.02658  0  3.975307  0
C  C90  1  0.80237952  0.82235038  0.77815855  1  0.039736  0  -0.004504  0.08461  0  4.008269  0
C  C91  1  0.22966365  0.17761953  0.98860864  1  -0.028045  0  -0.003106  0.083092  0  3.998286  0
C  C92  1  0.67461762  0.73511779  0.82620394  1  -0.096225  0  -0.097585  -0.09055  0  4.058993  0
C  C93  1  0.39894795  0.30665814  0.02025975  1  -0.094732  0  -0.093074  -0.084718  0  4.036945  0
C  C94  1  0.28960092  0.32002437  0.39369736  1  -0.066229  0  -0.096882  -0.087591  0  4.046416  0
C  C95  1  0.99011876  0.39104638  0.67824756  1  -0.046859  0  -0.039493  -0.044206  0  4.074404  0
C  C96  1  0.70676747  0.44279092  0.52929847  1  -0.020887  0  -0.100741  -0.080462  0  4.03826  0
C  C97  1  0.19986207  0.29535146  0.40853448  1  -0.060551  0  -0.088309  -0.132059  0  3.97603  0
C  C98  1  0.80114853  0.43753107  0.54184020  1  -0.008287  0  -0.092437  -0.135647  0  3.975852  0
C  C99  1  0.18911239  0.37746672  0.47416115  1  0.014558  0  -0.003707  0.082002  0  3.997966  0
C  C100  1  0.79572999  0.34247140  0.47607339  1  -0.0465  0  -0.006724  0.079138  0  3.998662  0
C  C101  1  0.83651711  0.62954234  0.03387392  1  0.370898  0  0.002973  -0.051128  0  3.983626  0
C  C102  1  0.38989311  0.58867212  0.17768001  1  0.395662  0  -0.002341  -0.064833  0  4.02251  0
C  C103  1  0.27243726  0.48407142  0.52858858  1  -0.060824  0  -0.089853  -0.134032  0  3.972997  0
C  C104  1  0.69358551  0.25329671  0.39756751  1  -0.052633  0  -0.098485  -0.141627  0  3.982045  0
C  C105  1  0.36020074  0.50924169  0.51091954  1  -0.053453  0  -0.096106  -0.087095  0  4.045582  0
C  C106  1  0.80275024  0.61206251  0.10557172  1  0.017444  0  -0.042458  -0.05465  0  4.073813  0
C  C107  1  0.59880519  0.25869585  0.38430489  1  -0.079542  0  -0.105824  -0.092075  0  4.051958  0
C  C108  1  0.36829003  0.42726273  0.44245362  1  -0.050374  0  -0.100668  -0.105649  0  4.045148  0
C  C109  1  0.60531653  0.35343331  0.45028700  1  -0.111521  0  -0.108296  -0.107925  0  4.052708  0
C  C110  1  0.07735798  0.36572120  0.56547707  1  -0.042162  0  -0.096436  -0.185014  0  3.986083  0
C  C111  1  0.90316608  0.32818112  0.38848225  1  -0.041515  0  -0.09616  -0.180881  0  3.988048  0
C  C112  1  0.98560871  0.36150881  0.57368462  1  -0.017666  0  -0.008889  0.046584  0  4.016263  0
C  C113  1  0.99771410  0.34156247  0.38327440  1  -0.043906  0  -0.011369  0.042742  0  4.022506  0
C  C114  1  0.89559992  0.34010946  0.48076822  1  0.012286  0  -0.009731  0.02212  0  3.974846  0
C  C115  1  0.08568305  0.35762702  0.47414176  1  0.012311  0  -0.01429  0.014298  0  3.994606  0
C  C116  1  0.60882743  0.65075596  0.72006001  1  -0.079523  0  -0.097619  -0.096759  0  4.032426  0
C  C117  1  0.44537494  0.63937060  0.13487186  1  0.018436  0  -0.044557  -0.055013  0  4.097294  0
C  C118  1  0.44319177  0.34706984  0.13169399  1  -0.010385  0  -0.097078  -0.097932  0  4.026167  0
C  C119  1  0.11745408  0.08558971  0.91734836  1  -0.018532  0  -0.013197  0.014819  0  3.987572  0
C  C120  1  0.91164479  0.90747357  0.81587683  1  0.013033  0  -0.014789  0.014366  0  4.005132  0
C  C121  1  0.77072189  0.82033713  0.85500114  1  -0.056281  0  -0.090059  -0.136631  0  3.982576  0
C  C122  1  0.29296378  0.22227954  0.94899022  1  -0.075668  0  -0.088053  -0.132938  0  3.97022  0
C  C123  1  0.02482224  0.09904213  0.87787754  1  0.025826  0  -0.009442  0.046205  0  4.022545  0
C  C124  1  0.00421598  0.89405887  0.85686220  1  -0.011357  0  -0.013166  0.041635  0  4.025466  0
C  C125  1  0.19833321  0.71755695  0.30389458  1  1.017655  0  0.181737  0.358727  0  4.09039  0
C  C126  1  0.63304844  0.30296260  0.71932395  1  1.021476  0  0.177429  0.348511  0  4.118715  0
C  C127  1  0.63976632  0.73749354  0.14150001  1  -0.037275  0  -0.085412  -0.089226  0  3.662325  0
C  C128  1  0.22098025  0.81938211  0.30992570  1  0.011387  0  -0.0579  -0.190038  0  4.085486  0
C  C129  1  0.63159312  0.54930460  0.12807215  1  -0.023403  0  -0.08624  -0.093479  0  3.67513  0
C  C130  1  0.63507411  0.64931841  0.04662326  1  -0.02232  0  -0.087668  -0.087969  0  3.67053  0
C  C131  1  0.63649461  0.63753371  0.22289029  1  -0.050636  0  -0.086699  -0.091185  0  3.667906  0
C  C132  1  0.72337187  0.63722157  0.12875723  1  0.035158  0  -0.002629  0.085685  0  3.682449  0
C  C133  1  0.54711486  0.64721391  0.13899689  1  0.034265  0  -0.002918  0.082554  0  3.696112  0
C  C134  1  0.72814456  0.72724055  0.22535889  1  -0.021642  0  -0.080058  -0.084151  0  3.633225  0
C  C135  1  0.54437980  0.55930925  0.04372695  1  -0.037692  0  -0.085169  -0.088244  0  3.660647  0
C  C136  1  0.83679648  0.53896394  0.12424027  1  0.384728  0  0.003229  -0.053081  0  3.980021  0
C  C137  1  0.37086052  0.66187465  0.07151959  1  0.382092  0  -0.004062  -0.067114  0  4.024505  0
C  C138  1  0.17293438  0.79284688  0.19989732  1  0.455448  0  0.008661  -0.022717  0  3.991238  0
C  C139  1  0.57805603  0.19873217  0.70473529  1  0.041558  0  -0.057541  -0.185757  0  4.10522  0
C  C140  1  0.65005463  0.20391956  0.79856204  1  0.469424  0  0.005682  -0.037422  0  4.032633  0
C  C141  1  0.09448951  0.41019563  0.28626048  1  0.444823  0  0.004652  -0.044583  0  3.982501  0
C  C142  1  0.90540006  0.36883144  0.70194412  1  0.449165  0  0.007978  -0.044256  0  3.96871  0
C  C143  1  0.91216430  0.69729879  0.82559375  1  0.385383  0  0.00282  -0.055787  0  3.984716  0
C  C144  1  0.11449167  0.30945583  0.97449144  1  0.435788  0  0.002982  -0.053037  0  3.95235  0
C  C145  1  0.00055803  0.79783468  0.86484478  1  0.015793  0  -0.042381  -0.04591  0  4.067904  0
C  C146  1  0.02733941  0.20352331  0.90571737  1  -0.071342  0  -0.038676  -0.038052  0  4.052045  0
C  C147  1  0.92352992  0.00615764  0.82329858  1  -0.074054  0  -0.096163  -0.182201  0  3.987747  0
N  N148  1  0.05806968  0.69398889  0.92388569  1  -0.798058  0  -0.269024  -0.172631  0  3.542922  0
N  N149  1  0.27909075  0.62770602  0.07680805  1  -0.792713  0  -0.270306  -0.17773  0  3.547639  0
N  N150  1  0.12777151  0.68628500  0.13617140  1  -0.808685  0  -0.285665  -0.187909  0  3.598046  0
N  N151  1  0.73877213  0.30107369  0.86139061  1  -0.813657  0  -0.279605  -0.177935  0  3.569732  0
N  N152  1  0.06258034  0.41400213  0.19333866  1  -0.801223  0  -0.268068  -0.171385  0  3.524778  0
N  N153  1  0.94513295  0.42869786  0.80858349  1  -0.780144  0  -0.284606  -0.190285  0  3.607187  0
N  N154  1  0.94710017  0.63639475  0.86100502  1  -0.794797  0  -0.270592  -0.173957  0  3.534164  0
N  N155  1  0.07612809  0.37954954  0.99597472  1  -0.802689  0  -0.287207  -0.193017  0  3.618293  0
N  N156  1  0.96617005  0.32344028  0.94172307  1  -0.75675  0  -0.281783  -0.173005  0  3.643734  0
N  N157  1  0.95119924  0.35900698  0.13524559  1  -0.787253  0  -0.275665  -0.172759  0  3.57455  0
N  N158  1  0.05473302  0.48858190  0.85703229  1  -0.789724  0  -0.277054  -0.171957  0  3.607244  0
N  N159  1  0.88453676  0.56974799  0.01064740  1  -0.804299  0  -0.287233  -0.193612  0  3.631027  0
N  N160  1  0.29084102  0.58181895  0.14273609  1  -0.773002  0  -0.266487  -0.180002  0  3.520033  0
N  N161  1  0.14334166  0.63945223  0.20100560  1  -0.811215  0  -0.295829  -0.284243  0  3.548156  0
N  N162  1  0.72867519  0.36325342  0.81138408  1  -0.833663  0  -0.281038  -0.278798  0  3.447005  0
N  N163  1  0.88477947  0.51391547  0.06622655  1  -0.746228  0  -0.28306  -0.17774  0  3.608802  0
O  O164  1  0.22953709  0.69159349  0.38382387  1  -1.145728  0  -0.353821  -0.453811  0  2.277943  0
O  O165  1  0.60301302  0.34994614  0.65926356  1  -1.148345  0  -0.350401  -0.457263  0  2.311863  0
