# generated using pymatgen
data_NiH28C22S2(N3O2)2
_symmetry_space_group_name_H-M   'P 1'
_cell_length_a   9.73066623
_cell_length_b   11.25480335
_cell_length_c   14.47314497
_cell_angle_alpha   112.86256358
_cell_angle_beta   93.94149878
_cell_angle_gamma   89.97357538
_symmetry_Int_Tables_number   1
_chemical_formula_structural   NiH28C22S2(N3O2)2
_chemical_formula_sum   'Ni2 H56 C44 S4 N12 O8'
_cell_volume   1456.48060016
_cell_formula_units_Z   2
loop_
 _symmetry_equiv_pos_site_id
 _symmetry_equiv_pos_as_xyz
  1  'x, y, z'
loop_
 _atom_site_type_symbol
 _atom_site_label
 _atom_site_symmetry_multiplicity
 _atom_site_fract_x
 _atom_site_fract_y
 _atom_site_fract_z
 _atom_site_occupancy
 _atom_site_pbe_bader_charge
 _atom_site_pbe_bader_spin_density
 _atom_site_pbe_cm5_charge
 _atom_site_pbe_ddec_charge
 _atom_site_pbe_ddec_spin_density
 _atom_site_pbe_ddec_sum_bond_order
 _atom_site_pbe_magmom
Ni  Ni0  1  0.74994715  0.61842720  0.99998932  1  1.02526  1.432326  0.607452  0.595286  1.690787  2.895688  1.419
Ni  Ni1  1  0.25005277  0.38157485  0.00000838  1  1.025186  1.432338  0.607498  0.595357  1.690869  2.895478  1.419
H  H2  1  0.87038077  0.79046648  0.91333172  1  0.109046  0.00259  0.120429  0.094534  0.001113  0.985311  0.001
H  H3  1  0.62953910  0.87697607  0.08672788  1  0.132225  0.002591  0.120723  0.094816  0.001112  0.985736  0.001
H  H4  1  0.12961930  0.20953360  0.08666883  1  0.109027  0.002589  0.120399  0.094515  0.001112  0.985329  0.001
H  H5  1  0.37045772  0.12302652  0.91327036  1  0.132305  0.00259  0.120682  0.094773  0.001112  0.985782  0.001
H  H6  1  0.81792536  0.86904706  0.77681172  1  0.10616  0.000969  0.107284  0.127464  0.000453  1.042067  0.001
H  H7  1  0.68183437  0.09193600  0.22324091  1  0.080829  0.000986  0.107172  0.126828  0.000454  1.041516  0.001
H  H8  1  0.18207677  0.13095244  0.22318824  1  0.106179  0.000969  0.107287  0.127476  0.000453  1.042082  0.001
H  H9  1  0.31815964  0.90806247  0.77676190  1  0.08036  0.000985  0.107176  0.12684  0.000454  1.041521  0.001
H  H10  1  0.41541988  0.68262213  0.72950838  1  0.091548  0.00123  0.112346  0.134268  0.000624  1.009187  0.001
H  H11  1  0.08451256  0.95271726  0.27055923  1  0.103302  0.001228  0.112398  0.134491  0.000624  1.007799  0.001
H  H12  1  0.58458228  0.31737391  0.27048813  1  0.091628  0.00123  0.112318  0.134231  0.000624  1.00918  0.001
H  H13  1  0.91548149  0.04727916  0.72944249  1  0.103258  0.001228  0.112375  0.134459  0.000624  1.007838  0.001
H  H14  1  0.48417171  0.61626484  0.87134008  1  0.118118  0.002266  0.116024  0.092701  0.000758  1.01236  0.001
H  H15  1  0.01597258  0.74472340  0.12860199  1  0.133105  0.00226  0.115868  0.092022  0.000757  1.012177  0.001
H  H16  1  0.51583040  0.38373394  0.12865821  1  0.118095  0.002265  0.116047  0.092686  0.000758  1.012375  0.001
H  H17  1  0.98402029  0.25527494  0.87139683  1  0.133189  0.002259  0.115864  0.092052  0.000757  1.012121  0.001
H  H18  1  0.47344351  0.79091759  0.62861060  1  0.539366  1e-06  0.318594  0.303139  -1e-05  0.984528  0.0
H  H19  1  0.02648031  0.16188737  0.37134409  1  0.541292  1e-06  0.318457  0.303597  -9e-06  0.984047  0.0
H  H20  1  0.52655966  0.20908058  0.37138804  1  0.539397  1e-06  0.318553  0.303133  -1e-05  0.98449  0.0
H  H21  1  0.97351884  0.83810927  0.62865592  1  0.541276  1e-06  0.318447  0.303588  -9e-06  0.984114  0.0
H  H22  1  0.49355993  0.75558678  0.32629358  1  0.063554  0.000838  0.088893  0.133835  0.000567  1.024465  0.0
H  H23  1  0.00641095  0.42929229  0.67339983  1  0.058409  0.000819  0.088956  0.134244  0.000561  1.024737  0.0
H  H24  1  0.50644310  0.24441476  0.67370457  1  0.063491  0.000838  0.088903  0.133864  0.000567  1.024508  0.0
H  H25  1  0.99358925  0.57070511  0.32660190  1  0.058452  0.000819  0.088972  0.134304  0.000561  1.024712  0.0
H  H26  1  0.59860367  0.85417740  0.28799445  1  0.039895  -1.1e-05  0.091874  0.139518  -1.8e-05  1.006706  0.0
H  H27  1  0.90115108  0.56604966  0.71163994  1  0.043798  -1e-05  0.091698  0.139629  -1.8e-05  1.005838  0.0
H  H28  1  0.40140144  0.14582565  0.71200616  1  0.039954  -1.1e-05  0.091882  0.139544  -1.8e-05  1.006664  0.0
H  H29  1  0.09885007  0.43394982  0.28836195  1  0.04386  -1e-05  0.091707  0.139632  -1.8e-05  1.005871  0.0
H  H30  1  0.48514590  0.92731504  0.38448186  1  0.036794  5.2e-05  0.087136  0.1273  4.1e-05  1.0274  0.0
H  H31  1  0.01462475  0.54284966  0.61518097  1  0.029041  5e-05  0.087304  0.127329  4.1e-05  1.028976  0.0
H  H32  1  0.51485716  0.07268652  0.61551727  1  0.036784  5.2e-05  0.087149  0.127314  4.1e-05  1.027379  0.0
H  H33  1  0.98537748  0.45714783  0.38481988  1  0.029023  5e-05  0.087302  0.127305  4e-05  1.028995  0.0
H  H34  1  0.84750344  0.73636720  0.44112948  1  0.050675  2e-06  0.08734  0.128753  -1.5e-05  1.045448  0.0
H  H35  1  0.65264953  0.29505399  0.55855365  1  0.069778  -2e-06  0.087175  0.128664  -1.7e-05  1.045558  0.0
H  H36  1  0.15250163  0.26363443  0.55886778  1  0.051244  2e-06  0.087341  0.128766  -1.5e-05  1.045425  0.0
H  H37  1  0.34734953  0.70494607  0.44144784  1  0.069785  -2e-06  0.087204  0.128705  -1.7e-05  1.045533  0.0
H  H38  1  0.80496977  0.73757115  0.32002185  1  0.049683  -8.1e-05  0.087563  0.137172  -0.000183  1.021888  0.0
H  H39  1  0.69517585  0.41720610  0.67966820  1  0.043966  -7.8e-05  0.087396  0.136762  -0.000184  1.021764  0.0
H  H40  1  0.19503518  0.26243525  0.67997729  1  0.049318  -8.1e-05  0.087579  0.137179  -0.000183  1.021845  0.0
H  H41  1  0.30482215  0.58279457  0.32033294  1  0.044  -7.9e-05  0.087419  0.136803  -0.000184  1.021755  0.0
H  H42  1  0.70228527  0.64424432  0.36419329  1  0.055651  0.000208  0.090879  0.138249  0.000105  0.989163  0.0
H  H43  1  0.79806687  0.27981164  0.63537123  1  0.027279  0.000204  0.090501  0.137582  0.000101  0.988886  0.0
H  H44  1  0.29772184  0.35575670  0.63580240  1  0.055404  0.000208  0.090909  0.138314  0.000105  0.989089  0.0
H  H45  1  0.20193013  0.72018900  0.36463084  1  0.027176  0.000204  0.090488  0.1376  0.000101  0.988829  0.0
H  H46  1  0.68056072  0.05929842  0.50171733  1  0.049113  8e-06  0.090977  0.13415  -1.8e-05  1.028214  0.0
H  H47  1  0.81907235  0.55779967  0.49812972  1  0.052382  8e-06  0.0913  0.135089  -1.8e-05  1.028638  0.0
H  H48  1  0.31943632  0.94070365  0.49828810  1  0.049128  8e-06  0.090993  0.134164  -1.8e-05  1.028252  0.0
H  H49  1  0.18092261  0.44220227  0.50187463  1  0.052329  8e-06  0.091307  0.135123  -1.8e-05  1.028582  0.0
H  H50  1  0.79417084  0.98887501  0.40548137  1  0.039365  -2.2e-05  0.088001  0.130583  -5.2e-05  1.0398  0.0
H  H51  1  0.70561604  0.58334268  0.59440225  1  0.036693  -2.2e-05  0.087834  0.130516  -5.2e-05  1.039656  0.0
H  H52  1  0.20582918  0.01113061  0.59452471  1  0.039317  -2.2e-05  0.08801  0.130593  -5.2e-05  1.039851  0.0
H  H53  1  0.29438208  0.41665739  0.40560214  1  0.036687  -2.2e-05  0.087841  0.130533  -5.2e-05  1.039595  0.0
H  H54  1  0.83311633  0.98364958  0.52555425  1  0.042655  5.7e-05  0.08839  0.134569  2.5e-05  1.019257  0.0
H  H55  1  0.66658722  0.45834606  0.47425655  1  0.057266  5.4e-05  0.088333  0.134509  2.3e-05  1.018575  0.0
H  H56  1  0.16688175  0.01635116  0.47444984  1  0.042701  5.7e-05  0.0884  0.134612  2.5e-05  1.019246  0.0
H  H57  1  0.33340979  0.54165668  0.52574858  1  0.057273  5.4e-05  0.088328  0.134558  2.4e-05  1.018639  0.0
C  C58  1  0.46347618  0.62847556  0.08872867  1  0.569882  0.002977  0.15047  0.270177  -0.005223  4.269893  -0.002
C  C59  1  0.03655574  0.53994238  0.91140446  1  0.577397  0.002871  0.150293  0.270561  -0.005286  4.270904  -0.003
C  C60  1  0.53653528  0.37151333  0.91125973  1  0.569497  0.002973  0.150446  0.270055  -0.005227  4.26968  -0.002
C  C61  1  0.96344601  0.46006795  0.08859572  1  0.577588  0.002873  0.150318  0.270632  -0.005285  4.271072  -0.002
C  C62  1  0.77015980  0.76952867  0.87092692  1  0.416414  -0.002781  0.046486  0.103277  -0.003194  3.971538  -0.002
C  C63  1  0.72977110  0.89839274  0.12911428  1  0.419278  -0.002874  0.045527  0.101948  -0.00322  3.972522  -0.002
C  C64  1  0.22984028  0.23047003  0.12907225  1  0.416437  -0.002782  0.046507  0.103248  -0.003194  3.971475  -0.002
C  C65  1  0.27022176  0.10160628  0.87088523  1  0.419244  -0.002876  0.045561  0.10196  -0.003221  3.972743  -0.002
C  C66  1  0.74119573  0.81257263  0.79410973  1  0.053321  0.005372  -0.09747  -0.238976  0.003174  3.945562  0.004
C  C67  1  0.75865807  0.01817963  0.20593811  1  0.043767  0.005422  -0.097151  -0.237585  0.00317  3.943803  0.004
C  C68  1  0.25880541  0.18742545  0.20588979  1  0.053326  0.005372  -0.097531  -0.239012  0.003173  3.94557  0.004
C  C69  1  0.24133587  0.98182018  0.79406411  1  0.044138  0.005421  -0.097147  -0.237635  0.003169  3.943845  0.004
C  C70  1  0.61257551  0.77913644  0.73884905  1  0.374935  -0.004604  0.115345  0.295037  -0.004783  4.031752  -0.003
C  C71  1  0.88729623  0.03995518  0.26117852  1  0.370402  -0.004637  0.115525  0.295141  -0.004816  4.031416  -0.003
C  C72  1  0.38742767  0.22086104  0.26114890  1  0.374932  -0.004604  0.11539  0.295022  -0.004782  4.031802  -0.003
C  C73  1  0.11269881  0.96004197  0.73882296  1  0.370481  -0.004637  0.115556  0.295262  -0.004817  4.031322  -0.003
C  C74  1  0.51720069  0.70951442  0.76894144  1  -0.075334  0.00647  -0.095448  -0.243098  0.003748  3.932399  0.005
C  C75  1  0.98272639  0.94023815  0.23110261  1  -0.011973  0.006394  -0.095371  -0.243109  0.003751  3.93262  0.005
C  C76  1  0.48279943  0.29048154  0.23105595  1  -0.075434  0.006469  -0.095415  -0.243065  0.003747  3.932438  0.005
C  C77  1  0.01727062  0.05976180  0.76889877  1  -0.012262  0.006392  -0.095373  -0.243131  0.00375  3.932829  0.005
C  C78  1  0.55534220  0.67171200  0.84740808  1  0.55589  -0.002642  0.046457  0.100853  -0.00281  3.968586  -0.002
C  C79  1  0.94470913  0.82407107  0.15258363  1  0.476381  -0.00256  0.04737  0.10215  -0.002822  3.967986  -0.002
C  C80  1  0.44465788  0.32828670  0.15259110  1  0.55593  -0.002643  0.046412  0.10087  -0.002812  3.968612  -0.002
C  C81  1  0.05528577  0.17592805  0.84741500  1  0.476562  -0.00256  0.047333  0.102071  -0.002822  3.968167  -0.002
C  C82  1  0.66397085  0.83468083  0.59569974  1  1.997781  -0.000341  0.337106  0.693434  -0.000453  4.151955  0.0
C  C83  1  0.83597570  0.23882584  0.40412022  1  2.005768  -0.000381  0.336983  0.693018  -0.0005  4.153545  0.0
C  C84  1  0.33603336  0.16531600  0.40429756  1  1.997219  -0.000342  0.33712  0.693567  -0.000454  4.151836  0.0
C  C85  1  0.16402131  0.76117342  0.59588048  1  2.006098  -0.000381  0.337026  0.69308  -0.0005  4.153418  0.0
C  C86  1  0.66966864  0.85007341  0.43049142  1  0.36948  0.000185  0.079613  0.451103  6.8e-05  3.728348  0.0
C  C87  1  0.83025835  0.41952780  0.56915871  1  0.373568  0.000188  0.079442  0.450467  7e-05  3.730651  0.0
C  C88  1  0.33033449  0.14992681  0.56950830  1  0.369474  0.000185  0.079618  0.45126  6.8e-05  3.728065  0.0
C  C89  1  0.16974177  0.58047163  0.43084313  1  0.373419  0.000188  0.079415  0.450463  7e-05  3.730804  0.0
C  C90  1  0.55389957  0.84648325  0.35305986  1  -0.070771  0.000794  -0.24937  -0.454665  0.000728  3.858168  0.0
C  C91  1  0.94596149  0.49337306  0.64659008  1  -0.057206  0.000786  -0.249324  -0.455339  0.000723  3.860247  0.0
C  C92  1  0.44610448  0.15351973  0.64693972  1  -0.070739  0.000794  -0.249409  -0.454767  0.000727  3.858175  0.0
C  C93  1  0.05403864  0.50662569  0.35341107  1  -0.057298  0.000786  -0.249363  -0.455385  0.000724  3.860344  0.0
C  C94  1  0.76203412  0.73526904  0.38753237  1  -0.084864  4.1e-05  -0.253621  -0.477389  7e-06  3.891345  0.0
C  C95  1  0.73813123  0.34752975  0.61211098  1  -0.076335  5.3e-05  -0.253001  -0.475767  2.2e-05  3.890993  0.0
C  C96  1  0.23797197  0.26473333  0.61246563  1  -0.08475  4.1e-05  -0.253641  -0.477472  6e-06  3.891221  0.0
C  C97  1  0.26186683  0.65246959  0.38789075  1  -0.076223  5.3e-05  -0.253028  -0.475878  2.2e-05  3.89104  0.0
C  C98  1  0.74938942  0.97873739  0.46955982  1  -0.066424  2.5e-05  -0.254478  -0.472127  -8e-06  3.876171  0.0
C  C99  1  0.75035251  0.50925477  0.53022970  1  -0.082982  3.2e-05  -0.254583  -0.472716  -2e-06  3.877074  0.0
C  C100  1  0.25061176  0.02126212  0.53044305  1  -0.066462  2.5e-05  -0.254515  -0.472202  -8e-06  3.876235  0.0
C  C101  1  0.24964653  0.49074805  0.46977455  1  -0.082902  3.1e-05  -0.254588  -0.472815  -2e-06  3.876996  0.0
S  S102  1  0.31621101  0.60383213  0.12649294  1  0.0955  0.095146  -0.128463  -0.284568  0.054999  2.559664  0.069
S  S103  1  0.18397708  0.47779919  0.87374292  1  0.095265  0.094997  -0.128713  -0.284894  0.054861  2.559962  0.069
S  S104  1  0.68379537  0.39615932  0.87350091  1  0.095547  0.095122  -0.128436  -0.284533  0.054986  2.559962  0.069
S  S105  1  0.81602162  0.52221310  0.12626114  1  0.095002  0.09502  -0.128722  -0.28495  0.054876  2.559881  0.069
N  N106  1  0.56972005  0.64311583  0.05889761  1  -1.282422  0.094246  -0.393415  -0.452266  0.056806  3.382288  0.077
N  N107  1  0.93011145  0.58414219  0.94109519  1  -1.290868  0.094436  -0.393085  -0.451837  0.056865  3.382791  0.077
N  N108  1  0.43027911  0.35687595  0.94109658  1  -1.282133  0.094279  -0.393398  -0.45218  0.056825  3.381684  0.077
N  N109  1  0.06988209  0.41586705  0.05890488  1  -1.290875  0.094422  -0.393068  -0.45182  0.056859  3.382961  0.077
N  N110  1  0.68108990  0.69864270  0.89684658  1  -1.21664  0.082148  -0.327589  -0.225597  0.04954  3.607367  0.073
N  N111  1  0.81895101  0.80161737  0.10314175  1  -1.208864  0.082153  -0.327617  -0.225741  0.049563  3.606959  0.073
N  N112  1  0.31891221  0.30135677  0.10315240  1  -1.216632  0.082148  -0.327564  -0.225563  0.04954  3.607292  0.073
N  N113  1  0.18104585  0.19838385  0.89685609  1  -1.208957  0.082145  -0.327573  -0.225663  0.049557  3.607078  0.073
N  N114  1  0.57490135  0.80860766  0.65574144  1  -1.28989  -0.001029  -0.402125  -0.442592  -0.000959  3.536431  -0.001
N  N115  1  0.92499289  0.15248605  0.34425275  1  -1.296894  -0.000993  -0.402035  -0.443406  -0.000918  3.535546  0.0
N  N116  1  0.42509977  0.19138971  0.34425641  1  -1.289581  -0.001029  -0.402123  -0.442603  -0.000958  3.536446  -0.001
N  N117  1  0.07500418  0.84751187  0.65574854  1  -1.29714  -0.000993  -0.402089  -0.443488  -0.000918  3.53563  0.0
O  O118  1  0.78949808  0.85250192  0.61554402  1  -1.20799  0.000109  -0.289403  -0.545727  2.3e-05  2.252734  0.0
O  O119  1  0.71042077  0.23680749  0.38432576  1  -1.211473  8.7e-05  -0.289315  -0.545248  7e-06  2.25465  0.0
O  O120  1  0.21050090  0.14749807  0.38445452  1  -1.207962  0.000109  -0.289425  -0.545824  2.3e-05  2.252644  0.0
O  O121  1  0.28958028  0.76319470  0.61567593  1  -1.211413  8.7e-05  -0.289345  -0.545292  7e-06  2.254579  0.0
O  O122  1  0.59347400  0.83690771  0.51318858  1  -1.042595  -0.000312  -0.163936  -0.331489  -0.000372  2.390524  0.0
O  O123  1  0.90650067  0.32383089  0.48643406  1  -1.047634  -0.000301  -0.16341  -0.33062  -0.000354  2.390926  0.0
O  O124  1  0.40652937  0.16308295  0.48680739  1  -1.042499  -0.000312  -0.163938  -0.331636  -0.000372  2.390504  0.0
O  O125  1  0.09349840  0.67616916  0.51356743  1  -1.047582  -0.000301  -0.163382  -0.330614  -0.000354  2.390944  0.0
