# generated using pymatgen
data_Zn2H26C45I8N2O11
_symmetry_space_group_name_H-M   'P 1'
_cell_length_a   12.50655908
_cell_length_b   13.28832836
_cell_length_c   15.97407066
_cell_angle_alpha   89.30518512
_cell_angle_beta   75.28549189
_cell_angle_gamma   80.17009781
_symmetry_Int_Tables_number   1
_chemical_formula_structural   Zn2H26C45I8N2O11
_chemical_formula_sum   'Zn2 H26 C45 I8 N2 O11'
_cell_volume   2528.62852180
_cell_formula_units_Z   1
loop_
 _symmetry_equiv_pos_site_id
 _symmetry_equiv_pos_as_xyz
  1  'x, y, z'
loop_
 _atom_site_type_symbol
 _atom_site_label
 _atom_site_symmetry_multiplicity
 _atom_site_fract_x
 _atom_site_fract_y
 _atom_site_fract_z
 _atom_site_occupancy
 _atom_site_pbe_bader_charge
 _atom_site_pbe_bader_spin_density
 _atom_site_pbe_cm5_charge
 _atom_site_pbe_ddec_charge
 _atom_site_pbe_ddec_spin_density
 _atom_site_pbe_ddec_sum_bond_order
 _atom_site_pbe_magmom
Zn  Zn0  1  0.61571949  0.51812877  0.48566919  1  1.324096  0  0.679743  0.885734  0  2.304543  0
Zn  Zn1  1  0.38196765  0.48179445  0.52340047  1  1.307159  0  0.685578  0.854533  0  2.35861  0
H  H2  1  0.66526613  0.54294027  0.03226701  1  0.038497  0  0.105098  0.049395  0  0.967601  0
H  H3  1  0.53001648  0.65136460  0.92050670  1  0.05746  0  0.10612  0.125964  0  0.962935  0
H  H4  1  0.18334010  0.00761869  0.49423200  1  0.090498  0  0.080403  0.092648  0  1.076958  0
H  H5  1  0.54758614  0.81352936  0.51255351  1  0.153617  0  0.078131  0.087979  0  1.148467  0
H  H6  1  0.76440759  0.20506067  0.51321530  1  0.104292  0  0.110607  0.121052  0  0.979962  0
H  H7  1  0.80475334  0.02148931  0.54699994  1  0.078014  0  0.098133  0.106756  0  1.012797  0
H  H8  1  0.65264702  0.55634069  0.88935537  1  0.055001  0  0.089315  0.103071  0  1.00466  0
H  H9  1  0.14585631  0.64096015  0.32210955  1  0.11104  0  0.0942  0.098094  0  1.042116  0
H  H10  1  0.95244404  0.69533395  0.31180244  1  0.103322  0  0.109918  0.13337  0  0.99123  0
H  H11  1  0.27083939  0.32794302  0.61953532  1  0.165704  0  0.127897  0.116295  0  0.972097  0
H  H12  1  0.93448427  0.36061680  0.58528068  1  0.154705  0  0.114826  0.13212  0  1.01574  0
H  H13  1  0.27828097  0.55197733  0.40105400  1  0.160601  0  0.116061  0.140702  0  1.0297  0
H  H14  1  0.48884133  0.33651299  0.94426374  1  0.094823  0  0.103743  0.103912  0  0.960683  0
H  H15  1  0.64279990  0.38251923  0.04696305  1  0.072477  0  0.097959  0.117453  0  0.985891  0
H  H16  1  0.51284080  0.34017436  0.08379820  1  0.06982  0  0.090149  0.110545  0  1.010935  0
H  H17  1  0.34216975  0.60481122  0.96409390  1  0.078326  0  0.10132  0.128876  0  0.977863  0
H  H18  1  0.32225713  0.47666438  0.97211038  1  0.086966  0  0.098284  0.123366  0  0.984649  0
H  H19  1  0.68205537  0.73976134  0.98200806  1  0.03661  0  0.091757  0.088663  0  0.987342  0
H  H20  1  0.71557594  0.68411136  0.07756041  1  0.050881  0  0.090481  0.0816  0  1.00759  0
H  H21  1  0.61903768  0.80232331  0.08577687  1  0.072199  0  0.106196  0.115137  0  0.969956  0
H  H22  1  0.50537908  0.30674580  0.26961783  1  0.070994  0  0.099574  0.114393  0  1.018589  0
H  H23  1  0.48488601  0.17641350  0.26643717  1  0.030319  0  0.085884  0.081774  0  1.012136  0
H  H24  1  0.60363173  0.20651417  0.29976240  1  0.030254  0  0.095521  0.098105  0  0.988247  0
H  H25  1  0.73709730  0.46822196  0.69474942  1  0.096818  0  0.10039  0.116095  0  1.02346  0
H  H26  1  0.71654762  0.59149506  0.64966189  1  0.074116  0  0.098064  0.110224  0  0.995471  0
H  H27  1  0.85521398  0.53358612  0.65829377  1  0.033468  0  0.092  0.089338  0  1.008434  0
C  C28  1  0.57417190  0.30810813  0.49068074  1  1.623097  0  0.214155  0.595583  0  4.180919  0
C  C29  1  0.57931396  0.57719987  0.02951131  1  0.499488  0  0.010722  0.149784  0  3.78493  0
C  C30  1  0.50290300  0.50618138  0.08581171  1  0.145687  0  -0.006914  0.083741  0  3.873032  0
C  C31  1  0.37943745  0.53193558  0.07903876  1  -0.271826  0  -0.023746  0.102766  0  3.411539  0
C  C32  1  0.37640739  0.52907404  0.98326153  1  -0.030682  0  -0.162538  -0.256634  0  3.835627  0
C  C33  1  0.51287903  0.50763162  0.17405024  1  0.051036  0  -0.044256  -0.05398  0  4.093187  0
C  C34  1  0.48627986  0.49450683  0.83407769  1  -0.425342  0  -0.044267  -0.065284  0  4.049757  0
C  C35  1  0.47309671  0.49551510  0.76126211  1  0.126195  0  -0.04766  -0.181108  0  3.951533  0
C  C36  1  0.26355503  0.96505206  0.49998963  1  0.080492  0  -0.114525  -0.187642  0  4.00767  0
C  C37  1  0.37993958  0.80592056  0.51862004  1  -0.019056  0  -0.025256  -0.061006  0  3.930753  0
C  C38  1  0.70731858  0.15385915  0.50677627  1  0.039559  0  -0.08157  -0.077414  0  3.981463  0
C  C39  1  0.47006263  0.49659748  0.67094625  1  1.68685  0  0.220078  0.672673  0  4.233016  0
C  C40  1  0.72865070  0.05111959  0.52698820  1  -0.019156  0  -0.100703  -0.122651  0  4.039496  0
C  C41  1  0.64969924  0.98826718  0.52860444  1  -0.268624  0  -0.040734  0.019675  0  3.828089  0
C  C42  1  0.54983891  0.02274497  0.50098577  1  0.039327  0  -0.002469  0.011905  0  3.910135  0
C  C43  1  0.53479279  0.12717134  0.47449001  1  -0.029683  0  -6.3e-05  -0.016315  0  3.918287  0
C  C44  1  0.45969111  0.96575363  0.50080474  1  0.010408  0  -0.011453  0.03169  0  3.940935  0
C  C45  1  0.35597336  0.01672964  0.48515803  1  -0.010691  0  -0.011032  0.081756  0  4.006828  0
C  C46  1  0.35315155  0.11507821  0.44716285  1  -0.257568  0  -0.059719  -0.109001  0  3.899832  0
C  C47  1  0.44292853  0.16478121  0.43599264  1  0.576021  0  0.079837  0.180479  0  4.049135  0
C  C48  1  0.46785448  0.86014399  0.51183143  1  -0.064998  0  -0.094448  -0.132709  0  3.980541  0
C  C49  1  0.27305086  0.86248344  0.51925001  1  -0.241983  0  -0.039468  0.071523  0  3.869222  0
C  C50  1  0.41169707  0.69170227  0.51803417  1  1.598431  0  0.213166  0.605927  0  4.147951  0
C  C51  1  0.60852611  0.19374662  0.48488996  1  -0.017759  0  -0.011032  -0.051536  0  3.929654  0
C  C52  1  0.92364615  0.64350184  0.36254432  1  0.05418  0  -0.094404  -0.22353  0  3.969938  0
C  C53  1  0.20529969  0.36201968  0.58883623  1  0.552736  0  0.058335  0.077903  0  3.904556  0
C  C54  1  0.09962706  0.33193049  0.60730468  1  -0.22044  0  -0.049475  0.007512  0  3.965948  0
C  C55  1  0.01702814  0.38224607  0.57067699  1  -0.05357  0  -0.077332  -0.135343  0  3.963198  0
C  C56  1  0.04149674  0.46056613  0.51195186  1  0.051158  0  0.005185  0.031262  0  3.948242  0
C  C57  1  0.15408895  0.47936611  0.48921727  1  0.437351  0  0.12172  0.200097  0  3.953107  0
C  C58  1  0.96166851  0.52049151  0.47090580  1  0.029713  0  -0.006588  -0.110766  0  3.929976  0
C  C59  1  0.00095350  0.58544596  0.40233127  1  0.010272  0  0.008295  0.137456  0  4.017942  0
C  C60  1  0.11688559  0.59361344  0.37657591  1  -0.068233  0  -0.081596  -0.11075  0  3.969305  0
C  C61  1  0.52827293  0.50206117  0.33705193  1  1.679257  0  0.223568  0.67158  0  4.228248  0
C  C62  1  0.19015902  0.54482633  0.42002740  1  0.03802  0  -0.071006  -0.119526  0  3.920139  0
C  C63  1  0.84450780  0.52180940  0.49505419  1  1.073032  0  0.226156  0.378048  0  4.000874  0
C  C64  1  0.81135533  0.63584137  0.38937643  1  0.260222  0  0.079536  0.204577  0  3.942497  0
C  C65  1  0.56961231  0.57518552  0.93508099  1  -0.04611  0  -0.165129  -0.276636  0  3.838404  0
C  C66  1  0.54361104  0.39038216  0.95094503  1  -0.156439  0  -0.088148  -0.019062  0  3.63458  0
C  C67  1  0.55480127  0.39712702  0.04425225  1  -0.049153  0  -0.163868  -0.226866  0  3.844865  0
C  C68  1  0.52493075  0.50507680  0.24712746  1  -0.328684  0  -0.045243  -0.178854  0  3.957172  0
C  C69  1  0.49668238  0.49664043  0.92243168  1  0.139303  0  -0.002311  0.176775  0  3.898203  0
C  C70  1  0.64826270  0.72773559  0.05160547  1  0.383252  0  -0.141355  -0.168056  0  3.960849  0
C  C71  1  0.51495632  0.23297308  0.30057322  1  0.409092  0  -0.142728  -0.166824  0  3.879686  0
C  C72  1  0.77572013  0.51958114  0.64691600  1  0.349144  0  -0.138042  -0.160164  0  3.841282  0
I  I73  1  0.28366530  0.41829190  0.15156991  1  0.031504  0  0.03672  -0.083196  0  1.375266  0
I  I74  1  0.12107672  0.80463252  0.54886431  1  0.102782  0  0.045344  -0.046421  0  1.439414  0
I  I75  1  0.22091804  0.17881246  0.39249659  1  0.112988  0  0.084388  -0.002873  0  1.518608  0
I  I76  1  0.69400175  0.84670519  0.58596535  1  0.092902  0  0.080888  -0.027181  0  1.52495  0
I  I77  1  0.70212892  0.73338686  0.33129456  1  0.193192  0  0.127527  0.031599  0  1.521389  0
I  I78  1  0.06935012  0.20958672  0.68882434  1  0.135843  0  0.08832  -0.000147  0  1.330778  0
I  I79  1  0.70412645  0.32220960  0.86311268  1  -0.008256  0  0.013177  -0.117631  0  1.300656  0
I  I80  1  0.29200686  0.68019484  0.14025686  1  0.071944  0  0.050636  -0.053349  0  1.406037  0
N  N81  1  0.77219806  0.57415381  0.45424367  1  -1.214988  0  -0.317627  -0.339012  0  3.453938  0
N  N82  1  0.23071682  0.43333655  0.53143738  1  -1.222949  0  -0.306535  -0.223511  0  3.469545  0
O  O83  1  0.65013640  0.36180529  0.46292903  1  -1.158025  0  -0.317034  -0.539898  0  2.289061  0
O  O84  1  0.47244586  0.34079719  0.53034956  1  -1.169559  0  -0.315631  -0.555528  0  2.399322  0
O  O85  1  0.56535464  0.49380591  0.61777920  1  -1.15164  0  -0.303215  -0.543197  0  2.345498  0
O  O86  1  0.37560532  0.50011401  0.65401871  1  -1.140304  0  -0.315921  -0.534345  0  2.217869  0
O  O87  1  0.51436491  0.65751213  0.51469004  1  -1.18565  0  -0.321621  -0.569398  0  2.424621  0
O  O88  1  0.33748637  0.63716160  0.51796008  1  -1.158956  0  -0.313783  -0.53577  0  2.387398  0
O  O89  1  0.61459624  0.52335072  0.35571929  1  -1.144771  0  -0.31274  -0.542468  0  2.337915  0
O  O90  1  0.44186829  0.47767593  0.38901140  1  -1.155703  0  -0.299606  -0.53677  0  2.339759  0
O  O91  1  0.55355681  0.67728639  0.06704300  1  -1.060801  0  -0.236678  -0.217478  0  2.569538  0
O  O92  1  0.44641227  0.25082341  0.38816360  1  -1.062106  0  -0.197349  -0.170472  0  2.626128  0
O  O93  1  0.79634139  0.46800963  0.56302288  1  -1.072852  0  -0.188288  -0.201206  0  2.553336  0
