# generated using pymatgen
data_V4NiH32C12(NO2)6
_symmetry_space_group_name_H-M   'P 1'
_cell_length_a   9.34839521
_cell_length_b   9.69614614
_cell_length_c   13.66699984
_cell_angle_alpha   103.28866497
_cell_angle_beta   90.00001779
_cell_angle_gamma   90.00012473
_symmetry_Int_Tables_number   1
_chemical_formula_structural   V4NiH32C12(NO2)6
_chemical_formula_sum   'V8 Ni2 H64 C24 N12 O24'
_cell_volume   1205.65313441
_cell_formula_units_Z   2
loop_
 _symmetry_equiv_pos_site_id
 _symmetry_equiv_pos_as_xyz
  1  'x, y, z'
loop_
 _atom_site_type_symbol
 _atom_site_label
 _atom_site_symmetry_multiplicity
 _atom_site_fract_x
 _atom_site_fract_y
 _atom_site_fract_z
 _atom_site_occupancy
 _atom_site_hle17_ddec_charge
 _atom_site_hle17_ddec_spin_density
 _atom_site_hle17_ddec_sum_bond_order
 _atom_site_hle17_magmom
 _atom_site_hse06_10hf_ddec_charge
 _atom_site_hse06_10hf_ddec_spin_density
 _atom_site_hse06_10hf_ddec_sum_bond_order
 _atom_site_hse06_10hf_magmom
 _atom_site_hse06_ddec_charge
 _atom_site_hse06_ddec_spin_density
 _atom_site_hse06_ddec_sum_bond_order
 _atom_site_hse06_magmom
 _atom_site_pbe_cm5_charge
 _atom_site_pbe_ddec_charge
 _atom_site_pbe_ddec_spin_density
 _atom_site_pbe_ddec_sum_bond_order
 _atom_site_pbe_magmom
V  V0  1  0.10750086  0.86462261  0.72315437  1  1.954233  -0.01641  3.08488  -0.019  2.015681  -0.014611  3.485695  -0.017  2.114393  -0.011593  3.454717  -0.014  1.430829  1.931041  -0.016941  3.538354  -0.019
V  V1  1  0.60750301  0.63536967  0.77684338  1  1.954111  -0.016415  3.085236  -0.019  2.015311  -0.014615  3.486461  -0.017  2.114236  -0.0116  3.455132  -0.014  1.430721  1.930738  -0.016944  3.538967  -0.019
V  V2  1  0.89249243  0.13537779  0.27684412  1  1.954183  -0.016351  3.084973  -0.019  2.015505  -0.014605  3.486043  -0.017  2.11435  -0.011602  3.454793  -0.014  1.430765  1.930879  -0.016936  3.538662  -0.019
V  V3  1  0.39249670  0.36463708  0.22316201  1  1.954093  -0.016356  3.085337  -0.019  2.015305  -0.014613  3.48658  -0.017  2.1142  -0.011611  3.455286  -0.014  1.430758  1.930794  -0.016944  3.539018  -0.019
V  V4  1  0.95983826  0.56074222  0.71483309  1  1.949701  -0.001953  3.07471  -0.002  2.001122  -0.00159  3.493242  -0.002  2.101498  -0.000725  3.450674  -0.001  1.413871  1.920322  -0.002898  3.545115  -0.003
V  V5  1  0.45983844  0.93924663  0.78516930  1  1.949483  -0.001982  3.074733  -0.002  2.000655  -0.001594  3.493668  -0.002  2.101235  -0.000719  3.450777  -0.001  1.413651  1.919834  -0.0029  3.545574  -0.003
V  V6  1  0.04015611  0.43926136  0.28517031  1  1.949569  -0.001972  3.074827  -0.002  2.000951  -0.001592  3.493454  -0.002  2.101371  -0.000718  3.450792  -0.001  1.413797  1.920123  -0.002897  3.545419  -0.003
V  V7  1  0.54015914  0.06075165  0.21482885  1  1.949634  -0.001974  3.074627  -0.002  2.000885  -0.001595  3.493439  -0.002  2.101433  -0.000717  3.450597  -0.001  1.413733  1.920074  -0.0029  3.545352  -0.003
Ni  Ni8  1  0.00000027  0.99999925  0.99999893  1  0.714496  -0.032507  2.031706  -0.032  0.730424  -0.003646  2.407349  -0.008  0.826124  -0.005495  2.340114  -0.009  0.620005  0.668634  0.004467  2.453472  -0.001
Ni  Ni9  1  0.50000200  0.50000020  0.50000144  1  0.714606  -0.032541  2.031586  -0.032  0.730389  -0.003659  2.407478  -0.008  0.826252  -0.0055  2.339995  -0.009  0.619992  0.66861  0.00445  2.45362  -0.001
H  H10  1  0.17839447  0.17731117  0.08604857  1  0.303977  0.000313  0.88898  0.001  0.296808  -0.000206  0.943892  0.0  0.303179  -5e-05  0.940429  0.0  0.297981  0.292956  -0.000327  0.945508  0.0
H  H11  1  0.67839390  0.32268309  0.41394973  1  0.303881  0.000311  0.889073  0.001  0.296705  -0.000206  0.944001  0.0  0.303078  -5e-05  0.940537  0.0  0.297928  0.292858  -0.000327  0.945615  0.0
H  H12  1  0.82160845  0.82268818  0.91394974  1  0.303939  0.000314  0.889068  0.001  0.296716  -0.000206  0.944014  0.0  0.303083  -4.9e-05  0.940561  0.0  0.297938  0.292864  -0.000327  0.945634  0.0
H  H13  1  0.32160582  0.67731732  0.58605168  1  0.304102  0.000313  0.888933  0.001  0.296825  -0.000206  0.943959  0.0  0.303196  -5e-05  0.940498  0.0  0.297988  0.292978  -0.000327  0.945588  0.0
H  H14  1  0.26549615  0.08078985  0.98745141  1  0.30797  -0.000194  0.895704  0.0  0.299986  -0.000537  0.951859  0.0  0.307292  -0.000397  0.947367  0.0  0.296053  0.295179  -0.000607  0.95491  0.0
H  H15  1  0.76549668  0.41920489  0.51254406  1  0.307998  -0.000196  0.89566  0.0  0.300016  -0.000537  0.951805  0.0  0.307319  -0.000396  0.947316  0.0  0.296073  0.295211  -0.000607  0.954857  0.0
H  H16  1  0.73450571  0.91920844  0.01254600  1  0.308016  -0.000195  0.895676  0.0  0.300016  -0.000537  0.951835  0.0  0.307319  -0.000397  0.947341  0.0  0.296066  0.29521  -0.000607  0.95488  0.0
H  H17  1  0.23450625  0.58079234  0.48745610  1  0.308063  -0.000195  0.895657  0.0  0.300071  -0.000537  0.951781  0.0  0.307372  -0.000397  0.947293  0.0  0.296089  0.295269  -0.000607  0.954829  0.0
H  H18  1  0.57702799  0.37464766  0.86542294  1  0.321604  0.000131  0.920752  0.0  0.308158  9.2e-05  0.97408  0.0  0.317826  5.8e-05  0.965826  0.0  0.30048  0.301339  0.000122  0.980117  0.0
H  H19  1  0.07702848  0.12534557  0.63457736  1  0.321475  0.000133  0.92088  0.0  0.308049  9.2e-05  0.974189  0.0  0.317712  5.8e-05  0.965943  0.0  0.300501  0.301232  0.000122  0.980221  0.0
H  H20  1  0.42297065  0.62535380  0.13457792  1  0.321603  0.000132  0.920742  0.0  0.308154  9.2e-05  0.974077  0.0  0.317819  5.8e-05  0.965824  0.0  0.300498  0.30134  0.000122  0.98011  0.0
H  H21  1  0.92296910  0.87465378  0.36542095  1  0.321482  0.000131  0.920928  0.0  0.308064  9.2e-05  0.974239  0.0  0.317729  5.8e-05  0.965992  0.0  0.300508  0.301246  0.000122  0.980283  0.0
H  H22  1  0.54844964  0.20433130  0.88138940  1  0.302514  1.2e-05  0.918867  0.0  0.28739  1.6e-05  0.977374  0.0  0.296124  1e-05  0.971146  0.0  0.298465  0.281374  2e-05  0.981693  0.0
H  H23  1  0.04844836  0.29566081  0.61861217  1  0.302458  1.3e-05  0.918888  0.0  0.28735  1.6e-05  0.977382  0.0  0.296082  1e-05  0.971151  0.0  0.298455  0.281338  2e-05  0.981694  0.0
H  H24  1  0.45155008  0.79567017  0.11860926  1  0.302454  1.2e-05  0.91894  0.0  0.287335  1.6e-05  0.977434  0.0  0.296067  1e-05  0.971211  0.0  0.298457  0.281322  2e-05  0.98175  0.0
H  H25  1  0.95155243  0.70434066  0.38138795  1  0.302455  1.2e-05  0.918871  0.0  0.287362  1.6e-05  0.977362  0.0  0.296093  1e-05  0.971134  0.0  0.298441  0.28135  2e-05  0.981675  0.0
H  H26  1  0.77571946  0.03189368  0.84611699  1  0.08388  0.000322  0.930035  0.0  0.094439  0.00025  0.997997  0.0  0.09428  0.000195  0.998644  0.0  0.115625  0.095015  0.000308  0.996975  0.0
H  H27  1  0.27572072  0.46810319  0.65388542  1  0.083947  0.000322  0.930051  0.0  0.09451  0.000249  0.997985  0.0  0.094354  0.000195  0.998631  0.0  0.115644  0.095088  0.000308  0.996964  0.0
H  H28  1  0.22427918  0.96810779  0.15388094  1  0.083891  0.000321  0.930043  0.0  0.094451  0.000249  0.998  0.0  0.094291  0.000195  0.998649  0.0  0.115634  0.095028  0.000308  0.996977  0.0
H  H29  1  0.72428006  0.53189297  0.34611677  1  0.083917  0.000315  0.930027  0.0  0.09447  0.00025  0.997987  0.0  0.094311  0.000195  0.998633  0.0  0.115634  0.095044  0.000308  0.996966  0.0
H  H30  1  0.93196667  0.10267685  0.80583699  1  0.093064  0.000175  0.978609  0.0  0.105091  0.000171  1.041358  0.0  0.105812  0.000143  1.04133  0.0  0.110941  0.105097  0.000173  1.040801  0.0
H  H31  1  0.43196672  0.39731826  0.69416443  1  0.093051  0.000177  0.978677  0.0  0.105047  0.000171  1.041446  0.0  0.105768  0.000143  1.04142  0.0  0.110921  0.105052  0.000173  1.040885  0.0
H  H32  1  0.06803198  0.89732356  0.19416077  1  0.093074  0.000178  0.978605  0.0  0.105077  0.000171  1.04137  0.0  0.105796  0.000143  1.04135  0.0  0.110958  0.105087  0.000173  1.040811  0.0
H  H33  1  0.56803407  0.60267790  0.30583775  1  0.093052  0.000172  0.978672  0.0  0.105056  0.000171  1.041434  0.0  0.105776  0.000143  1.041406  0.0  0.110934  0.105061  0.000173  1.040874  0.0
H  H34  1  0.21932271  0.31868502  0.96720716  1  0.06415  -0.001927  0.909076  -0.002  0.083899  -0.001545  0.964742  -0.001  0.082822  -0.001204  0.96528  -0.001  0.108503  0.084904  -0.001812  0.964758  -0.002
H  H35  1  0.71932271  0.18131067  0.53279212  1  0.064133  -0.00192  0.909042  -0.002  0.083872  -0.001545  0.964729  -0.001  0.082801  -0.001203  0.96526  -0.001  0.108504  0.084884  -0.001813  0.964735  -0.002
H  H36  1  0.78067915  0.68131327  0.03279025  1  0.064146  -0.001926  0.909077  -0.002  0.083886  -0.001545  0.964759  -0.001  0.082811  -0.001204  0.965292  -0.001  0.108507  0.084891  -0.001812  0.964767  -0.002
H  H37  1  0.28068021  0.81868762  0.46720968  1  0.064127  -0.001922  0.909038  -0.002  0.083875  -0.001545  0.964733  -0.001  0.082797  -0.001203  0.965266  -0.001  0.108502  0.084885  -0.001813  0.964747  -0.002
H  H38  1  0.14899709  0.17895482  0.87242082  1  0.062866  -0.000179  0.941175  0.0  0.074493  -0.000166  1.014994  0.0  0.074044  -0.000136  1.015368  0.0  0.110446  0.075439  -0.000191  1.013902  0.0
H  H39  1  0.64900066  0.32104388  0.62757820  1  0.06286  -0.000168  0.941178  0.0  0.074502  -0.000165  1.014972  0.0  0.07405  -0.000135  1.015353  0.0  0.110474  0.075448  -0.000191  1.013878  0.0
H  H40  1  0.85100369  0.82104346  0.12757805  1  0.062877  -0.000175  0.941191  0.0  0.074511  -0.000166  1.014998  0.0  0.07406  -0.000136  1.015377  0.0  0.11046  0.075455  -0.000191  1.013906  0.0
H  H41  1  0.35100012  0.67895441  0.37242287  1  0.062846  -0.000173  0.941217  0.0  0.074492  -0.000166  1.015028  0.0  0.074039  -0.000135  1.015403  0.0  0.110454  0.075442  -0.000191  1.013922  0.0
H  H42  1  0.57733373  0.36086270  0.04220378  1  0.103982  0.000349  0.955376  0.0  0.118207  0.000355  1.013785  0.0  0.11958  0.000273  1.012878  0.0  0.115554  0.117492  0.00037  1.014358  0.0
H  H43  1  0.07733546  0.13912814  0.45779761  1  0.103896  0.000342  0.955575  0.0  0.118235  0.000355  1.013843  0.0  0.119613  0.000273  1.012931  0.0  0.115529  0.117522  0.00037  1.014414  0.0
H  H44  1  0.42266706  0.63913665  0.95779673  1  0.103972  0.000347  0.95541  0.0  0.118184  0.000356  1.013808  0.0  0.11956  0.000273  1.012896  0.0  0.115545  0.117469  0.00037  1.014381  0.0
H  H45  1  0.92266533  0.86087333  0.54220106  1  0.103832  0.000349  0.955666  0.0  0.118218  0.000356  1.013877  0.0  0.119597  0.000273  1.012964  0.0  0.115526  0.117503  0.00037  1.014458  0.0
H  H46  1  0.73578880  0.43043578  0.00105888  1  0.074552  -0.000195  0.916468  0.0  0.092502  -9.7e-05  0.974472  0.0  0.093331  -8.3e-05  0.974134  0.0  0.113865  0.091421  -0.000132  0.975648  0.0
H  H47  1  0.23579146  0.06956072  0.49894347  1  0.074605  -0.000202  0.916458  0.0  0.092587  -9.7e-05  0.974412  0.0  0.093416  -8.3e-05  0.974076  0.0  0.113899  0.091508  -0.000132  0.975591  0.0
H  H48  1  0.26421198  0.56956357  0.99894017  1  0.074576  -0.000195  0.916465  0.0  0.092513  -9.7e-05  0.974456  0.0  0.093342  -8.3e-05  0.974119  0.0  0.113865  0.091432  -0.000132  0.975633  0.0
H  H49  1  0.76420825  0.93044075  0.50105519  1  0.074542  -0.000194  0.916439  0.0  0.092532  -9.8e-05  0.974407  0.0  0.093362  -8.3e-05  0.974067  0.0  0.113863  0.091451  -0.000132  0.975583  0.0
H  H50  1  0.79069752  0.25296987  0.10341270  1  0.092071  0.000183  0.95334  0.0  0.099117  0.000177  1.026309  0.0  0.099503  0.000147  1.026117  0.0  0.118352  0.099608  0.000183  1.025417  0.0
H  H51  1  0.29069411  0.24702783  0.39658839  1  0.092101  0.000188  0.9533  0.0  0.099113  0.000177  1.026314  0.0  0.099499  0.000148  1.026113  0.0  0.118348  0.099611  0.000183  1.025421  0.0
H  H52  1  0.20930434  0.74702948  0.89658561  1  0.092083  0.000187  0.953316  0.0  0.099125  0.000177  1.026296  0.0  0.099515  0.000147  1.026099  0.0  0.118372  0.099618  0.000183  1.0254  0.0
H  H53  1  0.70930775  0.75297364  0.60341174  1  0.092074  0.000181  0.953321  0.0  0.099102  0.000177  1.026336  0.0  0.099482  0.000147  1.026142  0.0  0.118344  0.099598  0.000183  1.025454  0.0
H  H54  1  0.68684530  0.12429462  0.01959095  1  0.078633  0.000326  0.937754  0.0  0.089966  0.000277  1.006014  0.0  0.090092  0.000212  1.006065  0.0  0.114928  0.090287  0.000319  1.005815  0.0
H  H55  1  0.18684329  0.37570071  0.48041192  1  0.078619  0.000326  0.937798  0.0  0.090013  0.000278  1.005978  0.0  0.090137  0.000211  1.006029  0.0  0.114969  0.090337  0.000319  1.005778  0.0
H  H56  1  0.31315548  0.87570473  0.98040736  1  0.078637  0.000329  0.937747  0.0  0.090006  0.000278  1.005969  0.0  0.090135  0.000212  1.006022  0.0  0.114935  0.090325  0.000319  1.005778  0.0
H  H57  1  0.81316070  0.62430076  0.51958820  1  0.078598  0.000322  0.937796  0.0  0.090008  0.000278  1.005994  0.0  0.090132  0.000211  1.006044  0.0  0.11495  0.090329  0.000319  1.005805  0.0
H  H58  1  0.81225655  0.33612344  0.81787821  1  0.06686  -0.000112  0.946052  0.0  0.072793  0.0  1.026302  0.0  0.073741  -9e-06  1.02568  0.0  0.111399  0.072372  1.5e-05  1.0261  0.0
H  H59  1  0.31225714  0.16387245  0.68212405  1  0.06691  -0.000109  0.946107  0.0  0.072854  1e-06  1.026371  0.0  0.073824  -9e-06  1.02573  0.0  0.111428  0.072433  1.5e-05  1.026164  0.0
H  H60  1  0.18774210  0.66387802  0.18212192  1  0.066882  -0.000113  0.946001  0.0  0.072804  1e-06  1.026279  0.0  0.073749  -9e-06  1.02566  0.0  0.1114  0.072379  1.5e-05  1.026077  0.0
H  H61  1  0.68774044  0.83612160  0.31787267  1  0.066848  -0.000112  0.946082  0.0  0.072828  1e-06  1.026293  0.0  0.073768  -9e-06  1.025684  0.0  0.111408  0.07241  1.5e-05  1.026092  0.0
H  H62  1  0.70926864  0.19396568  0.74461323  1  0.100492  0.000195  0.928708  0.0  0.119669  0.000213  0.982135  0.0  0.120447  0.000157  0.982121  0.0  0.119244  0.119255  0.000254  0.982015  0.0
H  H63  1  0.20926852  0.30603104  0.75538914  1  0.100467  0.000194  0.92871  0.0  0.119682  0.000213  0.982141  0.0  0.120459  0.000156  0.982131  0.0  0.119243  0.119272  0.000254  0.982018  0.0
H  H64  1  0.29073214  0.80603685  0.25538634  1  0.100512  0.000194  0.928697  0.0  0.119695  0.000213  0.982117  0.0  0.120473  0.000157  0.982103  0.0  0.119258  0.119283  0.000254  0.981994  0.0
H  H65  1  0.79073227  0.69396089  0.24461089  1  0.100494  0.000193  0.928718  0.0  0.11968  0.000214  0.982166  0.0  0.12046  0.000157  0.982151  0.0  0.119256  0.11927  0.000254  0.98204  0.0
H  H66  1  0.98571825  0.34735613  0.05714021  1  0.094142  6.5e-05  0.957522  0.0  0.108858  6e-05  1.019256  0.0  0.10995  4.7e-05  1.018839  0.0  0.111393  0.108335  1.7e-05  1.019787  0.0
H  H67  1  0.48571465  0.15264096  0.44286082  1  0.094137  6.9e-05  0.957593  0.0  0.10885  6e-05  1.019309  0.0  0.10994  4.8e-05  1.018885  0.0  0.111394  0.108329  1.7e-05  1.019845  0.0
H  H68  1  0.01428361  0.65264323  0.94285738  1  0.094177  6e-05  0.957499  0.0  0.10881  6e-05  1.019329  0.0  0.109901  4.7e-05  1.018907  0.0  0.111366  0.10829  1.7e-05  1.019873  0.0
H  H69  1  0.51428720  0.84735733  0.55713951  1  0.09416  6.2e-05  0.957587  0.0  0.108855  6e-05  1.019291  0.0  0.109943  4.7e-05  1.01887  0.0  0.111393  0.108334  1.7e-05  1.019836  0.0
H  H70  1  0.96622314  0.36840501  0.93205115  1  0.073999  0.002086  0.942466  0.002  0.09079  0.001484  1.0027  0.001  0.090292  0.001138  1.003699  0.001  0.105291  0.091564  0.001616  1.002294  0.002
H  H71  1  0.46622468  0.13159336  0.56795081  1  0.074117  0.002088  0.94238  0.002  0.090888  0.001484  1.00261  0.001  0.090384  0.001138  1.003609  0.001  0.105331  0.091662  0.001616  1.002203  0.002
H  H72  1  0.03377871  0.63159328  0.06794626  1  0.074002  0.002082  0.942492  0.002  0.09078  0.001484  1.002697  0.001  0.090282  0.001137  1.003688  0.001  0.105287  0.091559  0.001616  1.002293  0.002
H  H73  1  0.53377718  0.86840493  0.43204953  1  0.074111  0.002086  0.942439  0.002  0.090861  0.001485  1.002669  0.001  0.09036  0.001138  1.003663  0.001  0.105317  0.09164  0.001616  1.002269  0.002
C  C74  1  0.83874750  0.12946202  0.85498741  1  -0.052465  -0.001047  3.613674  -0.002  -0.101875  0.000206  3.866565  -0.001  -0.097652  -0.000268  3.8804  -0.001  -0.072837  -0.105277  0.00057  3.856174  -0.001
C  C75  1  0.33874747  0.37053394  0.64501413  1  -0.052615  -0.001058  3.613877  -0.002  -0.101949  0.000206  3.866775  -0.001  -0.097738  -0.00027  3.880648  -0.001  -0.072863  -0.10535  0.00057  3.856379  -0.001
C  C76  1  0.16125007  0.87054051  0.14500923  1  -0.052488  -0.001051  3.613792  -0.002  -0.101867  0.000206  3.866681  -0.001  -0.097647  -0.00027  3.880516  -0.001  -0.072847  -0.105271  0.00057  3.856276  -0.001
C  C77  1  0.66125225  0.62946329  0.35498676  1  -0.052541  -0.00102  3.613759  -0.002  -0.101889  0.000206  3.866657  -0.001  -0.097656  -0.00027  3.880498  -0.001  -0.072865  -0.105287  0.00057  3.856251  -0.001
C  C78  1  0.13961160  0.23279300  0.95202407  1  0.070443  0.001866  3.641707  0.003  0.009942  0.00056  3.919731  0.002  0.016912  0.000673  3.931949  0.002  -0.068536  0.005303  0.000467  3.910458  0.002
C  C79  1  0.63961074  0.26720568  0.54797422  1  0.070446  0.001822  3.641706  0.003  0.009935  0.000559  3.919688  0.002  0.016891  0.000669  3.931921  0.002  -0.068608  0.005296  0.000467  3.910415  0.002
C  C80  1  0.86038918  0.76720741  0.04797369  1  0.070465  0.001846  3.641776  0.003  0.009927  0.000558  3.919747  0.002  0.016893  0.00067  3.93196  0.002  -0.068606  0.005295  0.000467  3.910474  0.002
C  C81  1  0.36039005  0.73279260  0.45202685  1  0.070576  0.001833  3.641785  0.003  0.009985  0.000559  3.919781  0.002  0.016955  0.000669  3.931994  0.002  -0.068577  0.005351  0.000467  3.910514  0.002
C  C82  1  0.67194373  0.33359136  0.99422413  1  0.016193  0.004095  3.537242  0.004  -0.04077  0.002665  3.785234  0.002  -0.03732  0.002086  3.795015  0.002  -0.060668  -0.042567  0.003067  3.778686  0.003
C  C83  1  0.17194211  0.16640314  0.50578006  1  0.016117  0.004146  3.537213  0.004  -0.040938  0.002668  3.785231  0.002  -0.037475  0.002091  3.794976  0.002  -0.060688  -0.042751  0.003068  3.77871  0.003
C  C84  1  0.32805812  0.66640905  0.00577509  1  0.016164  0.004105  3.537244  0.004  -0.040731  0.002666  3.785132  0.002  -0.037276  0.002087  3.794913  0.002  -0.06063  -0.042535  0.003067  3.778595  0.003
C  C85  1  0.82805975  0.83359726  0.49421842  1  0.016196  0.004095  3.537191  0.004  -0.040854  0.002667  3.785234  0.002  -0.037394  0.002089  3.794983  0.002  -0.060667  -0.042663  0.003069  3.778714  0.003
C  C86  1  0.75651191  0.21696179  0.02521204  1  -0.044622  -0.000684  3.613118  -0.002  -0.099162  0.00049  3.874687  -0.001  -0.094542  5.4e-05  3.888818  -0.001  -0.067187  -0.102781  0.000844  3.864398  -0.001
C  C87  1  0.25651076  0.28303582  0.47479049  1  -0.044616  -0.000709  3.613024  -0.002  -0.099201  0.000489  3.87469  -0.001  -0.094565  5e-05  3.888814  -0.001  -0.067182  -0.102811  0.000844  3.864404  -0.001
C  C88  1  0.24348994  0.78303756  0.97478627  1  -0.044632  -0.000702  3.613052  -0.002  -0.099234  0.000487  3.874667  -0.001  -0.094627  5.3e-05  3.888817  -0.001  -0.067227  -0.102843  0.000844  3.864363  -0.001
C  C89  1  0.74349110  0.71696671  0.52521054  1  -0.044503  -0.000668  3.612827  -0.002  -0.099188  0.00049  3.874652  -0.001  -0.094548  5.7e-05  3.888779  -0.001  -0.067133  -0.102774  0.000845  3.864312  -0.001
C  C90  1  0.75013134  0.24067941  0.82002107  1  0.009184  0.003905  3.556251  0.004  -0.05352  0.002508  3.817057  0.002  -0.049962  0.001937  3.827418  0.002  -0.06123  -0.055372  0.002875  3.809167  0.003
C  C91  1  0.25013321  0.25931740  0.67998059  1  0.009161  0.003904  3.556261  0.004  -0.053685  0.002509  3.817249  0.002  -0.050144  0.001935  3.827606  0.002  -0.061244  -0.055539  0.002875  3.809357  0.003
C  C92  1  0.24986731  0.75932418  0.17997794  1  0.009125  0.003915  3.556239  0.004  -0.053609  0.002508  3.81706  0.002  -0.050046  0.001939  3.827413  0.002  -0.061274  -0.055463  0.002875  3.809168  0.003
C  C93  1  0.74986757  0.74067770  0.32001849  1  0.009088  0.003905  3.556308  0.004  -0.053694  0.002508  3.817237  0.002  -0.050143  0.001935  3.827611  0.002  -0.061259  -0.055549  0.002875  3.809343  0.003
C  C94  1  0.99143381  0.29148725  0.97753265  1  -0.059518  -0.00186  3.607176  -0.003  -0.110918  -0.000243  3.860956  -0.002  -0.107924  -0.000533  3.875969  -0.002  -0.076758  -0.114038  -9.3e-05  3.851039  -0.002
C  C95  1  0.49143015  0.20851118  0.52246859  1  -0.059742  -0.001867  3.607336  -0.003  -0.111044  -0.000243  3.860965  -0.002  -0.108028  -0.000534  3.875958  -0.002  -0.076775  -0.114161  -9.3e-05  3.851046  -0.002
C  C96  1  0.00856804  0.70851104  0.02246549  1  -0.059563  -0.001833  3.607224  -0.003  -0.110831  -0.000244  3.860822  -0.002  -0.107826  -0.000532  3.875817  -0.002  -0.076652  -0.113979  -9.4e-05  3.850947  -0.002
C  C97  1  0.50857170  0.79148710  0.47753174  1  -0.05981  -0.001837  3.607464  -0.003  -0.111022  -0.000246  3.860999  -0.002  -0.108004  -0.000531  3.875991  -0.002  -0.076757  -0.114168  -9.3e-05  3.851123  -0.002
N  N98  1  0.88535023  0.17291087  0.96169671  1  -0.162433  0.069275  3.174674  0.07  -0.097024  0.04685  3.430598  0.048  -0.131237  0.041676  3.461174  0.044  -0.318396  -0.070267  0.048291  3.407362  0.049
N  N99  1  0.38534898  0.32708520  0.53830413  1  -0.1623  0.069321  3.174699  0.07  -0.096894  0.046862  3.430603  0.048  -0.131138  0.041692  3.461182  0.044  -0.318378  -0.070146  0.048305  3.407381  0.049
N  N100  1  0.11465270  0.82708848  0.03830088  1  -0.162377  0.069276  3.17475  0.07  -0.097006  0.046851  3.430639  0.048  -0.131215  0.041679  3.461216  0.044  -0.318417  -0.070243  0.04829  3.407415  0.049
N  N101  1  0.61465288  0.67291309  0.46169767  1  -0.162283  0.069276  3.174538  0.07  -0.096876  0.046864  3.430442  0.048  -0.131128  0.041686  3.461013  0.044  -0.318393  -0.070117  0.048307  3.407223  0.049
N  N102  1  0.16860555  0.12664325  0.01147652  1  -0.555684  -0.031265  3.126315  -0.03  -0.541574  -0.025812  3.394647  -0.023  -0.576487  -0.021986  3.396517  -0.02  -0.626892  -0.516543  -0.028524  3.392027  -0.025
N  N103  1  0.66860619  0.37335204  0.48852195  1  -0.555552  -0.031249  3.12629  -0.03  -0.541415  -0.025814  3.394646  -0.023  -0.576347  -0.021986  3.396506  -0.02  -0.626827  -0.516396  -0.028529  3.392042  -0.025
N  N104  1  0.83139630  0.87335609  0.98852253  1  -0.555699  -0.03126  3.126448  -0.03  -0.541466  -0.025812  3.39475  -0.023  -0.576384  -0.021985  3.396639  -0.02  -0.626871  -0.516442  -0.028524  3.392133  -0.025
N  N105  1  0.33139673  0.62664836  0.51148019  1  -0.556006  -0.03126  3.126442  -0.03  -0.541718  -0.025816  3.394776  -0.023  -0.576647  -0.021986  3.396618  -0.02  -0.626956  -0.516693  -0.028532  3.392175  -0.025
N  N106  1  0.62541054  0.28660929  0.88763085  1  -0.306526  -0.000188  3.285627  0.0  -0.238946  -1e-06  3.48983  0.0  -0.254184  -4.9e-05  3.497329  0.0  -0.482964  -0.228927  1.7e-05  3.485156  0.0
N  N107  1  0.12541228  0.21338193  0.61237060  1  -0.306273  -0.000208  3.28557  0.0  -0.23868  -1e-06  3.4898  0.0  -0.253921  -5e-05  3.497333  0.0  -0.482985  -0.228656  1.7e-05  3.485124  0.0
N  N108  1  0.37458918  0.71338899  0.11236876  1  -0.306443  -0.000195  3.285631  0.0  -0.238857  -0.0  3.489789  0.0  -0.254094  -5.1e-05  3.497289  0.0  -0.482975  -0.228839  1.7e-05  3.485114  0.0
N  N109  1  0.87458744  0.78662060  0.38762824  1  -0.30622  -0.000187  3.285591  0.0  -0.238726  -0.0  3.489919  0.0  -0.253963  -4.9e-05  3.497442  0.0  -0.482966  -0.228704  1.7e-05  3.485245  0.0
O  O110  1  0.05035850  0.90150675  0.84086865  1  -0.848619  -0.01303  1.543731  -0.013  -0.871532  -0.009938  1.864598  -0.009  -0.912002  -0.009394  1.855114  -0.009  -0.601451  -0.842954  -0.009938  1.875111  -0.009
O  O111  1  0.55037015  0.59847905  0.65912802  1  -0.848537  -0.013039  1.54386  -0.013  -0.871355  -0.009943  1.864792  -0.009  -0.911929  -0.009396  1.855294  -0.009  -0.601421  -0.842821  -0.009942  1.87531  -0.009
O  O112  1  0.94963800  0.09849683  0.15913402  1  -0.848565  -0.013056  1.543707  -0.013  -0.871457  -0.009941  1.864623  -0.009  -0.911953  -0.009389  1.855096  -0.009  -0.601458  -0.842894  -0.009939  1.875151  -0.009
O  O113  1  0.44962315  0.40153089  0.34087862  1  -0.848498  -0.013064  1.543917  -0.013  -0.871332  -0.009944  1.86488  -0.009  -0.91193  -0.00939  1.85545  -0.009  -0.601395  -0.842808  -0.009943  1.875387  -0.009
O  O114  1  0.04033866  0.98516029  0.66574179  1  -0.857598  0.000859  1.416107  0.001  -0.852256  0.000299  1.658128  0.0  -0.881352  0.000202  1.6453  0.0  -0.625115  -0.830032  0.000141  1.671679  0.0
O  O115  1  0.54034377  0.51482231  0.83425290  1  -0.857681  0.000859  1.416125  0.001  -0.85224  0.000299  1.658174  0.0  -0.881388  0.000204  1.645295  0.0  -0.625118  -0.830013  0.000141  1.671679  0.0
O  O116  1  0.95966106  0.01484012  0.33425817  1  -0.857587  0.000842  1.416034  0.001  -0.852193  0.000299  1.658065  0.0  -0.881327  0.000205  1.645208  0.0  -0.625069  -0.829966  0.000141  1.671614  0.0
O  O117  1  0.45965594  0.48518127  0.16575270  1  -0.857643  0.000839  1.416228  0.001  -0.85221  0.000298  1.658287  0.0  -0.881343  0.000207  1.645413  0.0  -0.625103  -0.830011  0.000141  1.671794  0.0
O  O118  1  0.92387148  0.42061346  0.62129701  1  -0.84695  0.000487  1.348693  0.001  -0.844665  0.000183  1.598286  0.0  -0.877352  0.000171  1.586614  0.0  -0.618887  -0.821065  1.9e-05  1.609608  0.0
O  O119  1  0.42387304  0.07937315  0.87871033  1  -0.846923  0.000498  1.348789  0.001  -0.844506  0.000184  1.598329  0.0  -0.877248  0.000168  1.586609  0.0  -0.618774  -0.820885  1.8e-05  1.609643  0.0
O  O120  1  0.07612931  0.57939012  0.37870712  1  -0.846917  0.000495  1.348742  0.001  -0.844612  0.000185  1.598305  0.0  -0.877309  0.000168  1.586625  0.0  -0.618874  -0.821015  1.9e-05  1.60966  0.0
O  O121  1  0.57612133  0.92062833  0.12128467  1  -0.846967  0.000497  1.348771  0.001  -0.844582  0.000185  1.598314  0.0  -0.877312  0.000166  1.586599  0.0  -0.618802  -0.820974  1.8e-05  1.609639  0.0
O  O122  1  0.04712452  0.69161251  0.65891122  1  -0.994657  0.000342  1.558884  0.001  -1.009469  -0.000158  1.857439  0.0  -1.05446  -2.2e-05  1.846978  0.0  -0.697436  -0.971626  -0.000319  1.869207  0.0
O  O123  1  0.54712495  0.80836162  0.84108207  1  -0.99455  0.000345  1.559128  0.001  -1.009238  -0.000157  1.857759  0.0  -1.054335  -2.2e-05  1.84724  0.0  -0.697353  -0.971411  -0.000319  1.869518  0.0
O  O124  1  0.95286450  0.30839213  0.34108869  1  -0.99465  0.000339  1.558917  0.001  -1.009388  -0.000157  1.857426  0.0  -1.054423  -2.1e-05  1.846941  0.0  -0.697403  -0.971547  -0.000319  1.869219  0.0
O  O125  1  0.45287584  0.19164195  0.15892498  1  -0.994583  0.000338  1.559152  0.001  -1.009276  -0.000158  1.857742  0.0  -1.054351  -2.1e-05  1.847223  0.0  -0.697365  -0.971482  -0.000319  1.869514  0.0
O  O126  1  0.30015318  0.86627441  0.71759135  1  -1.036718  0.000304  1.608573  0.001  -1.05472  -2.4e-05  1.920612  0.0  -1.101225  0.000121  1.909432  0.0  -0.703439  -1.015495  -0.00024  1.932571  0.0
O  O127  1  0.80016175  0.63371725  0.78241072  1  -1.036732  0.000302  1.608532  0.001  -1.054738  -2.4e-05  1.920568  0.0  -1.101235  0.000122  1.909375  0.0  -0.703448  -1.015522  -0.000241  1.932489  0.0
O  O128  1  0.69984653  0.13371645  0.28240923  1  -1.036697  0.0003  1.608538  0.001  -1.054734  -2.4e-05  1.920666  0.0  -1.101262  0.000122  1.909464  0.0  -0.703472  -1.015506  -0.00024  1.932614  0.0
O  O129  1  0.19983476  0.36629057  0.21759191  1  -1.036691  0.000299  1.608497  0.001  -1.054686  -2.4e-05  1.920511  0.0  -1.101183  0.000121  1.909308  0.0  -0.703463  -1.015476  -0.00024  1.932445  0.0
O  O130  1  0.06737595  0.50924858  0.79479609  1  -0.815961  8e-06  1.271999  0.0  -0.817698  -0.000104  1.515757  0.0  -0.848542  -0.000104  1.505482  0.0  -0.621409  -0.795689  0.000105  1.52652  0.0
O  O131  1  0.56736817  0.99074360  0.70520748  1  -0.815784  2.1e-05  1.271957  0.0  -0.817487  -0.000102  1.515804  0.0  -0.848375  -0.000107  1.505457  0.0  -0.621328  -0.795482  0.000105  1.526587  0.0
O  O132  1  0.93262270  0.49076136  0.20520615  1  -0.815951  1.8e-05  1.272053  0.0  -0.817698  -0.000103  1.51582  0.0  -0.848548  -0.000108  1.505526  0.0  -0.621393  -0.795677  0.000105  1.526609  0.0
O  O133  1  0.43262620  0.00924833  0.29479035  1  -0.815857  1.7e-05  1.271909  0.0  -0.81758  -0.000102  1.515738  0.0  -0.848469  -0.000108  1.505412  0.0  -0.621364  -0.795573  0.000105  1.526515  0.0
