# generated using pymatgen
data_LaH9(C2O3)3
_symmetry_space_group_name_H-M   'P 1'
_cell_length_a   9.69561128
_cell_length_b   9.69558271
_cell_length_c   16.15726342
_cell_angle_alpha   89.99450317
_cell_angle_beta   89.99686090
_cell_angle_gamma   120.00063323
_symmetry_Int_Tables_number   1
_chemical_formula_structural   LaH9(C2O3)3
_chemical_formula_sum   'La4 H36 C24 O36'
_cell_volume   1315.36042643
_cell_formula_units_Z   4
loop_
 _symmetry_equiv_pos_site_id
 _symmetry_equiv_pos_as_xyz
  1  'x, y, z'
loop_
 _atom_site_type_symbol
 _atom_site_label
 _atom_site_symmetry_multiplicity
 _atom_site_fract_x
 _atom_site_fract_y
 _atom_site_fract_z
 _atom_site_occupancy
 _atom_site_pbe_bader_charge
 _atom_site_pbe_bader_spin_density
 _atom_site_pbe_cm5_charge
 _atom_site_pbe_ddec_charge
 _atom_site_pbe_ddec_spin_density
 _atom_site_pbe_ddec_sum_bond_order
 _atom_site_pbe_magmom
La  La0  1  0.66667027  0.33333646  0.25001663  1  2.287821  0  1.394711  2.0099  0  2.36539  0
La  La1  1  0.33332784  0.66666414  0.75002487  1  2.287833  0  1.394624  2.009973  0  2.365151  0
La  La2  1  0.99996817  0.00000370  0.00001794  1  2.264875  0  1.418056  1.794359  0  2.535809  0
La  La3  1  0.00003647  0.00000458  0.50001784  1  2.264852  0  1.41801  1.794442  0  2.535719  0
H  H4  1  0.44958482  0.94626357  0.24971442  1  0.625542  0  0.328208  0.398842  0  0.896003  0
H  H5  1  0.49669084  0.55044194  0.25011970  1  0.628565  0  0.328477  0.39884  0  0.896076  0
H  H6  1  0.05373955  0.50331779  0.25003161  1  0.590017  0  0.328505  0.398916  0  0.895983  0
H  H7  1  0.94624170  0.44955194  0.74989053  1  0.627056  0  0.328465  0.398858  0  0.896085  0
H  H8  1  0.50331603  0.05373227  0.74999548  1  0.590227  0  0.32876  0.399172  0  0.895583  0
H  H9  1  0.55041593  0.49667098  0.74998037  1  0.628165  0  0.328674  0.399045  0  0.895751  0
H  H10  1  0.28648303  0.94569411  0.24967436  1  0.626938  0  0.34037  0.423227  0  0.854532  0
H  H11  1  0.65922794  0.71354030  0.25010443  1  0.620017  0  0.340001  0.422852  0  0.855044  0
H  H12  1  0.05428987  0.34078882  0.25003557  1  0.622605  0  0.340052  0.42315  0  0.854673  0
H  H13  1  0.94567620  0.28645142  0.74987658  1  0.627658  0  0.340076  0.42291  0  0.855006  0
H  H14  1  0.34078727  0.05428129  0.74997642  1  0.62272  0  0.340023  0.423082  0  0.854777  0
H  H15  1  0.71349774  0.65919575  0.74997130  1  0.61987  0  0.340028  0.423055  0  0.854823  0
H  H16  1  0.49972520  0.18660591  0.01004037  1  0.043569  0  0.108688  0.089235  0  0.977595  0
H  H17  1  0.68686960  0.50024945  0.48992475  1  0.068032  0  0.108573  0.089089  0  0.977902  0
H  H18  1  0.81336318  0.31311158  0.01004846  1  0.059083  0  0.108612  0.089057  0  0.97787  0
H  H19  1  0.49977409  0.18661146  0.48995951  1  0.044864  0  0.108519  0.088881  0  0.978172  0
H  H20  1  0.68687051  0.50026629  0.01003593  1  0.068153  0  0.108561  0.088982  0  0.977894  0
H  H21  1  0.81341080  0.31313492  0.48994037  1  0.059428  0  0.108641  0.089198  0  0.977831  0
H  H22  1  0.18665388  0.49974693  0.51004452  1  0.043121  0  0.108601  0.089105  0  0.97788  0
H  H23  1  0.31307246  0.81336254  0.98992492  1  0.060368  0  0.108568  0.089122  0  0.977825  0
H  H24  1  0.50025547  0.68686777  0.51003047  1  0.068407  0  0.108614  0.089083  0  0.977987  0
H  H25  1  0.18660721  0.49975935  0.98995190  1  0.044665  0  0.108529  0.088935  0  0.977815  0
H  H26  1  0.31314380  0.81339146  0.51003734  1  0.058462  0  0.108576  0.089049  0  0.977942  0
H  H27  1  0.50023679  0.68685221  0.98993662  1  0.068063  0  0.108571  0.0891  0  0.9779  0
H  H28  1  0.43770670  0.03994217  0.08938815  1  0.113504  0  0.112813  0.101291  0  1.0155  0
H  H29  1  0.60233096  0.56235308  0.41056067  1  0.119183  0  0.112768  0.101436  0  1.015773  0
H  H30  1  0.95995357  0.39769236  0.08943773  1  0.116226  0  0.112784  0.101561  0  1.015892  0
H  H31  1  0.43766905  0.04003162  0.41054402  1  0.114083  0  0.11274  0.101667  0  1.015812  0
H  H32  1  0.60226904  0.56227244  0.08942894  1  0.119184  0  0.112886  0.101622  0  1.015614  0
H  H33  1  0.96009035  0.39773115  0.41058184  1  0.115584  0  0.112817  0.10158  0  1.015483  0
H  H34  1  0.04002205  0.43773003  0.58941851  1  0.113282  0  0.112778  0.101372  0  1.015826  0
H  H35  1  0.39765566  0.96002250  0.91055079  1  0.115957  0  0.11277  0.101579  0  1.015662  0
H  H36  1  0.56225723  0.60224508  0.58940545  1  0.119608  0  0.11283  0.101517  0  1.015558  0
H  H37  1  0.03995815  0.43765388  0.91058181  1  0.114451  0  0.112817  0.101593  0  1.015635  0
H  H38  1  0.39773166  0.95999164  0.58941101  1  0.116388  0  0.112787  0.101425  0  1.015787  0
H  H39  1  0.56235428  0.60232154  0.91056813  1  0.119243  0  0.112721  0.101443  0  1.015881  0
C  C40  1  0.35218898  0.20447478  0.10467213  1  1.617232  0  0.22562  0.643954  0  4.173956  0
C  C41  1  0.85237230  0.64783562  0.39533383  1  1.627007  0  0.226041  0.644728  0  4.173538  0
C  C42  1  0.79542073  0.14765571  0.10468207  1  1.610361  0  0.225674  0.643934  0  4.172963  0
C  C43  1  0.35226462  0.20462583  0.39537729  1  1.616175  0  0.225855  0.644202  0  4.17267  0
C  C44  1  0.85229741  0.64776632  0.10466147  1  1.630854  0  0.225806  0.644247  0  4.17319  0
C  C45  1  0.79554323  0.14770833  0.39534515  1  1.608305  0  0.225744  0.644055  0  4.173511  0
C  C46  1  0.20453845  0.35222292  0.60467642  1  1.61603  0  0.225791  0.644128  0  4.173411  0
C  C47  1  0.14762187  0.79547859  0.89533472  1  1.609351  0  0.225902  0.644493  0  4.173781  0
C  C48  1  0.64775992  0.85227387  0.60465579  1  1.631775  0  0.225705  0.644152  0  4.172831  0
C  C49  1  0.20451574  0.35220416  0.89536426  1  1.616483  0  0.225778  0.644063  0  4.172907  0
C  C50  1  0.14769138  0.79543817  0.60467411  1  1.60968  0  0.225675  0.643953  0  4.173768  0
C  C51  1  0.64781412  0.85236179  0.89534177  1  1.628383  0  0.225878  0.644607  0  4.173589  0
C  C52  1  0.39810396  0.10577993  0.04962525  1  0.398944  0  -0.061702  -0.132592  0  3.902508  0
C  C53  1  0.70770614  0.60189654  0.45035358  1  0.363476  0  -0.061515  -0.132523  0  3.902845  0
C  C54  1  0.89415219  0.29230695  0.04965223  1  0.384771  0  -0.061672  -0.132507  0  3.902941  0
C  C55  1  0.39815868  0.10585151  0.45036885  1  0.397137  0  -0.061407  -0.132086  0  3.902223  0
C  C56  1  0.70766594  0.60185376  0.04963535  1  0.361141  0  -0.061714  -0.132361  0  3.902136  0
C  C57  1  0.89424196  0.29232903  0.45037417  1  0.384865  0  -0.061933  -0.133098  0  3.902968  0
C  C58  1  0.10584116  0.39813913  0.54964202  1  0.399817  0  -0.061596  -0.13238  0  3.902906  0
C  C59  1  0.29227582  0.89419538  0.95035502  1  0.382804  0  -0.061645  -0.13287  0  3.902412  0
C  C60  1  0.60185418  0.70765974  0.54962345  1  0.360788  0  -0.061764  -0.132672  0  3.902159  0
C  C61  1  0.10579325  0.39812357  0.95038625  1  0.396466  0  -0.061643  -0.132341  0  3.90208  0
C  C62  1  0.29233307  0.89418098  0.54963121  1  0.3853  0  -0.061593  -0.132331  0  3.90222  0
C  C63  1  0.60188483  0.70768939  0.95036581  1  0.363197  0  -0.061624  -0.132716  0  3.902657  0
O  O64  1  0.46064508  0.30458977  0.15211866  1  -1.212743  0  -0.400117  -0.655983  0  2.305068  0
O  O65  1  0.84408879  0.53941091  0.34789087  1  -1.210156  0  -0.400289  -0.656489  0  2.305226  0
O  O66  1  0.69519389  0.15589818  0.15210732  1  -1.208243  0  -0.400463  -0.656256  0  2.304108  0
O  O67  1  0.46072440  0.30483364  0.34794266  1  -1.21151  0  -0.400331  -0.655996  0  2.304168  0
O  O68  1  0.84400193  0.53927978  0.15207802  1  -1.211686  0  -0.400329  -0.655896  0  2.304328  0
O  O69  1  0.69541211  0.15603205  0.34790842  1  -1.207258  0  -0.399794  -0.655288  0  2.304859  0
O  O70  1  0.30468551  0.46066763  0.65212100  1  -1.212381  0  -0.400247  -0.656092  0  2.304721  0
O  O71  1  0.15592430  0.69534130  0.84789993  1  -1.207619  0  -0.400135  -0.656016  0  2.304974  0
O  O72  1  0.53928806  0.84397872  0.65208227  1  -1.21211  0  -0.400138  -0.655906  0  2.304496  0
O  O73  1  0.30471091  0.46068489  0.84793943  1  -1.211188  0  -0.400095  -0.655726  0  2.304384  0
O  O74  1  0.15596254  0.69524596  0.65208707  1  -1.208169  0  -0.400178  -0.655945  0  2.304875  0
O  O75  1  0.53937871  0.84406481  0.84790874  1  -1.21088  0  -0.400245  -0.656209  0  2.304983  0
O  O76  1  0.21279338  0.18296649  0.09971127  1  -1.186637  0  -0.372403  -0.593525  0  2.184534  0
O  O77  1  0.97024865  0.78722781  0.40033071  1  -1.195357  0  -0.372657  -0.593749  0  2.184314  0
O  O78  1  0.81695927  0.02978884  0.09971948  1  -1.18823  0  -0.372117  -0.593181  0  2.1845  0
O  O79  1  0.21285588  0.18311369  0.40036490  1  -1.186611  0  -0.372551  -0.593655  0  2.184473  0
O  O80  1  0.97016643  0.78717046  0.09970740  1  -1.195615  0  -0.372493  -0.593686  0  2.184946  0
O  O81  1  0.81706428  0.02982135  0.40031927  1  -1.186182  0  -0.372724  -0.593615  0  2.184109  0
O  O82  1  0.18302799  0.21281436  0.59969780  1  -1.185948  0  -0.372478  -0.593596  0  2.184195  0
O  O83  1  0.02977098  0.81701387  0.90032077  1  -1.186656  0  -0.372577  -0.593556  0  2.184638  0
O  O84  1  0.78717834  0.97016148  0.59969518  1  -1.195831  0  -0.372535  -0.593641  0  2.184222  0
O  O85  1  0.18297214  0.21279319  0.90031988  1  -1.186769  0  -0.372678  -0.593612  0  2.184401  0
O  O86  1  0.02982035  0.81697139  0.59970798  1  -1.187684  0  -0.372433  -0.593518  0  2.184769  0
O  O87  1  0.78719460  0.97022910  0.90032715  1  -1.195699  0  -0.372558  -0.593697  0  2.184758  0
O  O88  1  0.26549009  0.99998933  0.00000341  1  -1.087999  0  -0.266737  -0.222518  0  2.713467  0
O  O89  1  0.73449007  0.73447511  0.49999891  1  -1.085144  0  -0.266839  -0.222739  0  2.713423  0
O  O90  1  0.00000154  0.26552642  0.00004264  1  -1.088024  0  -0.266744  -0.222733  0  2.713689  0
O  O91  1  0.26553959  0.00001549  0.50000676  1  -1.088106  0  -0.266998  -0.223008  0  2.713238  0
O  O92  1  0.73446534  0.73449179  0.00001634  1  -1.084806  0  -0.266867  -0.222912  0  2.713556  0
O  O93  1  0.00001599  0.26552208  0.50002768  1  -1.088608  0  -0.266648  -0.222618  0  2.713679  0
O  O94  1  0.40177918  0.01367182  0.25039322  1  -1.230145  0  -0.564968  -0.772837  0  2.027332  0
O  O95  1  0.61190813  0.59823617  0.24979404  1  -1.226024  0  -0.564855  -0.772356  0  2.028303  0
O  O96  1  0.98630126  0.38810299  0.24991401  1  -1.189916  0  -0.564913  -0.772762  0  2.027947  0
O  O97  1  0.01366243  0.40175564  0.75018417  1  -1.232451  0  -0.564933  -0.772494  0  2.028359  0
O  O98  1  0.38809969  0.98628929  0.74999083  1  -1.190192  0  -0.565132  -0.772975  0  2.027803  0
O  O99  1  0.59819415  0.61188809  0.74998997  1  -1.22543  0  -0.56506  -0.772798  0  2.027932  0
