# generated using pymatgen
data_CoH14C15SN3O5
_symmetry_space_group_name_H-M   'P 1'
_cell_length_a   11.31348131
_cell_length_b   11.41759667
_cell_length_c   17.82378816
_cell_angle_alpha   98.40519086
_cell_angle_beta   90.15395220
_cell_angle_gamma   89.94569344
_symmetry_Int_Tables_number   1
_chemical_formula_structural   CoH14C15SN3O5
_chemical_formula_sum   'Co4 H56 C60 S4 N12 O20'
_cell_volume   2277.61014427
_cell_formula_units_Z   4
loop_
 _symmetry_equiv_pos_site_id
 _symmetry_equiv_pos_as_xyz
  1  'x, y, z'
loop_
 _atom_site_type_symbol
 _atom_site_label
 _atom_site_symmetry_multiplicity
 _atom_site_fract_x
 _atom_site_fract_y
 _atom_site_fract_z
 _atom_site_occupancy
 _atom_site_pbe_bader_charge
 _atom_site_pbe_bader_spin_density
 _atom_site_pbe_cm5_charge
 _atom_site_pbe_ddec_charge
 _atom_site_pbe_ddec_spin_density
 _atom_site_pbe_ddec_sum_bond_order
 _atom_site_pbe_magmom
Co  Co0  1  0.49999795  0.99999891  0.99999999  1  1.272807  2.603764  0.652472  0.899301  2.824704  2.440461  2.586
Co  Co1  1  0.50000227  0.49999986  0.49999882  1  1.277742  2.609158  0.655268  0.904674  2.831519  2.447947  2.592
Co  Co2  1  0.24680437  0.75056827  0.75043011  1  1.298193  2.61268  0.697278  0.79993  2.851167  2.580261  2.595
Co  Co3  1  0.75319133  0.24942615  0.24956705  1  1.298503  2.612644  0.697364  0.800029  2.851177  2.58054  2.595
H  H4  1  0.55711296  0.94519605  0.83674305  1  0.094938  0.001225  0.117771  0.094021  6.5e-05  1.023857  0.001
H  H5  1  0.66213967  0.66280772  0.84963437  1  0.083157  0.001167  0.111714  0.119738  0.000518  0.978858  0.0
H  H6  1  0.44199470  0.66095690  0.84329116  1  0.115111  0.001742  0.118674  0.086326  0.000533  1.023467  0.001
H  H7  1  0.57331896  0.04673885  0.72273018  1  0.082574  0.000682  0.106157  0.108909  0.000329  1.02409  0.0
H  H8  1  0.21400203  0.57840316  0.86801592  1  0.165002  0.001496  0.119647  0.104775  0.000376  1.028967  0.001
H  H9  1  0.47639506  0.37181032  0.86587074  1  0.060591  0.000833  0.11116  0.119392  0.000381  0.993498  0.0
H  H10  1  0.19238767  0.36457588  0.87214002  1  0.06264  0.000946  0.110498  0.11687  0.000445  0.996081  0.0
H  H11  1  0.47370816  0.25799115  0.97408386  1  0.119569  0.001504  0.120926  0.09568  0.000418  0.992576  0.001
H  H12  1  0.23756446  0.30740374  0.62857388  1  0.080373  0.000883  0.102122  0.0976  0.000362  1.031137  0.0
H  H13  1  0.82813546  0.83365067  0.86716504  1  0.098676  0.001574  0.105778  0.120861  0.000849  1.021315  0.0
H  H14  1  0.25413091  0.52430400  0.63506450  1  0.143374  0.001473  0.116877  0.087263  0.000274  1.055268  0.001
H  H15  1  0.05026777  0.82855766  0.86259255  1  0.148981  0.001526  0.120761  0.104119  0.000417  1.005612  0.001
H  H16  1  0.72276314  0.99992896  0.97841451  1  0.662687  -0.000106  0.284983  0.385199  -8.8e-05  0.96315  0.0
H  H17  1  0.69772901  0.87074612  0.99840905  1  0.592199  0.000646  0.311301  0.37594  0.000298  0.91229  0.0
H  H18  1  0.55527272  0.55539191  0.66378595  1  0.142059  0.001238  0.118155  0.095176  6.7e-05  1.023156  0.001
H  H19  1  0.66142284  0.83767379  0.65057647  1  0.089587  0.00107  0.111993  0.120488  0.000487  0.978567  0.0
H  H20  1  0.44133290  0.84000510  0.65682785  1  0.104235  0.001629  0.118982  0.087109  0.000334  1.026215  0.001
H  H21  1  0.57148168  0.45399199  0.77796237  1  0.078084  0.00069  0.10612  0.108596  0.000324  1.024976  0.0
H  H22  1  0.21928254  0.91994853  0.63157993  1  0.170717  0.001596  0.118678  0.10675  0.000476  1.031456  0.001
H  H23  1  0.47850258  0.12813417  0.63415237  1  0.10544  0.000822  0.111272  0.119838  0.000383  0.994396  0.0
H  H24  1  0.19438397  0.13324525  0.62753800  1  0.093224  0.00101  0.111373  0.117706  0.000484  0.995986  0.0
H  H25  1  0.47608744  0.24182164  0.52583302  1  0.093287  0.001495  0.120923  0.096706  0.000421  0.993752  0.001
H  H26  1  0.23855923  0.19103467  0.87131389  1  0.052417  0.000944  0.102187  0.097803  0.000388  1.030776  0.0
H  H27  1  0.82759476  0.66661440  0.63339761  1  0.108589  0.001525  0.105684  0.121192  0.000837  1.020593  0.0
H  H28  1  0.25931279  0.97470054  0.86500469  1  0.135467  0.001568  0.116451  0.08455  0.0003  1.059427  0.001
H  H29  1  0.04997236  0.67183619  0.63833761  1  0.155327  0.001419  0.121474  0.105917  0.000274  1.006557  0.001
H  H30  1  0.72191096  0.49817956  0.52302460  1  0.652283  -0.00015  0.284593  0.385009  -0.000134  0.964018  0.0
H  H31  1  0.69882583  0.62662050  0.50097228  1  0.577241  0.00066  0.311835  0.377623  0.000288  0.909116  0.0
H  H32  1  0.44288627  0.05480899  0.16325561  1  0.094933  0.001225  0.117796  0.094032  6.5e-05  1.023844  0.001
H  H33  1  0.33785338  0.33720180  0.15036805  1  0.083354  0.001167  0.111748  0.119834  0.000518  0.978816  0.0
H  H34  1  0.55799923  0.33904811  0.15670469  1  0.115069  0.001742  0.118724  0.086369  0.000533  1.023392  0.001
H  H35  1  0.42668470  0.95326802  0.27727201  1  0.082622  0.000682  0.106162  0.108885  0.000329  1.024051  0.0
H  H36  1  0.78599986  0.42158954  0.13198502  1  0.165024  0.001496  0.119615  0.105046  0.000376  1.029224  0.001
H  H37  1  0.52360241  0.62819568  0.13413306  1  0.060693  0.000833  0.111163  0.119354  0.000381  0.993445  0.0
H  H38  1  0.80761863  0.63541497  0.12785571  1  0.062673  0.000946  0.110433  0.116769  0.000445  0.996025  0.0
H  H39  1  0.52628401  0.74200683  0.02591529  1  0.11984  0.001504  0.120941  0.095717  0.000418  0.99259  0.001
H  H40  1  0.76244361  0.69259069  0.37142441  1  0.082216  0.000883  0.102171  0.0977  0.000362  1.031069  0.0
H  H41  1  0.17186113  0.16635181  0.13283956  1  0.09865  0.001575  0.105798  0.120837  0.000849  1.021457  0.0
H  H42  1  0.74587982  0.47568961  0.36493877  1  0.143394  0.001472  0.116873  0.087222  0.000273  1.055223  0.001
H  H43  1  0.94972973  0.17142631  0.13741716  1  0.148724  0.001527  0.120791  0.104111  0.000417  1.005675  0.001
H  H44  1  0.27723345  0.00006375  0.02158699  1  0.662462  -0.000106  0.284952  0.385114  -8.8e-05  0.963235  0.0
H  H45  1  0.30226139  0.12924834  0.00159147  1  0.591946  0.000647  0.311271  0.375955  0.000298  0.912337  0.0
H  H46  1  0.44473093  0.44460869  0.33621064  1  0.141833  0.001238  0.118146  0.095186  6.7e-05  1.023177  0.001
H  H47  1  0.33857375  0.16233573  0.34942595  1  0.08958  0.00107  0.112016  0.120501  0.000487  0.97856  0.0
H  H48  1  0.55866190  0.15999991  0.34316800  1  0.104363  0.001629  0.118942  0.087122  0.000334  1.026299  0.001
H  H49  1  0.42851489  0.54601572  0.22203709  1  0.078431  0.00069  0.106161  0.108656  0.000324  1.024976  0.0
H  H50  1  0.78072112  0.08004949  0.36842204  1  0.170928  0.001596  0.118681  0.103681  0.000471  1.035285  0.001
H  H51  1  0.52150284  0.87187093  0.36585023  1  0.105361  0.000823  0.11127  0.119813  0.000383  0.994389  0.0
H  H52  1  0.80562322  0.86675184  0.37246109  1  0.09342  0.00101  0.111402  0.11775  0.000484  0.9961  0.0
H  H53  1  0.52392064  0.75817637  0.47416839  1  0.093266  0.001495  0.120892  0.096628  0.000421  0.993751  0.001
H  H54  1  0.76144177  0.80896330  0.12868471  1  0.052476  0.000944  0.102154  0.097742  0.000388  1.030779  0.0
H  H55  1  0.17239653  0.33339160  0.36660617  1  0.108569  0.001525  0.105678  0.121172  0.000838  1.020675  0.0
H  H56  1  0.74068557  0.02529746  0.13499559  1  0.135462  0.001568  0.116422  0.084535  0.0003  1.059436  0.001
H  H57  1  0.95001806  0.32815572  0.36167055  1  0.155226  0.001418  0.121465  0.105943  0.000274  1.00658  0.001
H  H58  1  0.27809797  0.50182801  0.47696531  1  0.652254  -0.00015  0.284566  0.384926  -0.000134  0.964108  0.0
H  H59  1  0.30116809  0.37338717  0.49902436  1  0.577324  0.000662  0.3118  0.377591  0.000289  0.909159  0.0
C  C60  1  0.54065986  0.03970572  0.84015278  1  0.513259  -0.007797  0.050611  0.118147  -0.008528  3.911734  -0.005
C  C61  1  0.61637472  0.70185421  0.80542223  1  0.018809  0.005101  -0.080919  -0.172732  0.002389  3.93902  0.004
C  C62  1  0.52449661  0.21897815  0.78355587  1  0.003074  -0.012121  0.010297  0.101447  -0.012787  3.979211  -0.007
C  C63  1  0.21492880  0.31366081  0.75017354  1  -0.019229  -0.010659  0.007647  0.096636  -0.011278  3.991477  -0.006
C  C64  1  0.49370502  0.70135312  0.80241738  1  0.468752  -0.006841  0.049454  0.108716  -0.007385  3.951123  -0.005
C  C65  1  0.54828006  0.09719028  0.77695949  1  -0.037593  0.002102  -0.081809  -0.17284  0.000625  3.936964  0.002
C  C66  1  0.21749779  0.51514274  0.81600085  1  0.43369  -0.005889  0.046344  0.092058  -0.006529  3.92176  -0.003
C  C67  1  0.49690443  0.27755708  0.85624198  1  0.005689  0.00225  -0.078668  -0.163361  0.000744  3.932823  0.002
C  C68  1  0.20677742  0.39424462  0.81753263  1  -0.017592  0.002118  -0.082167  -0.170797  0.000738  3.943776  0.002
C  C69  1  0.49217031  0.21392375  0.91689999  1  0.466102  -0.007152  0.046211  0.09366  -0.007501  3.972531  -0.004
C  C70  1  0.22989631  0.36319768  0.68330170  1  -0.080024  0.002103  -0.085679  -0.171963  0.000681  3.968798  0.002
C  C71  1  0.87418821  0.79542657  0.81562857  1  0.062244  0.004509  -0.084886  -0.175232  0.002073  3.942063  0.004
C  C72  1  0.24015907  0.48473869  0.68616041  1  0.493143  -0.006019  0.043373  0.095734  -0.006625  3.940176  -0.003
C  C73  1  0.99696978  0.79442455  0.81316370  1  0.382662  -0.006226  0.046541  0.096554  -0.006771  3.930037  -0.004
C  C74  1  0.53966416  0.46075454  0.66029730  1  0.461283  -0.007945  0.050956  0.117186  -0.008689  3.912907  -0.005
C  C75  1  0.61598772  0.79894423  0.69489015  1  0.023534  0.00489  -0.081003  -0.172858  0.002312  3.936926  0.004
C  C76  1  0.52453097  0.28140914  0.71682387  1  0.046368  -0.012262  0.010477  0.101438  -0.013056  3.980118  -0.007
C  C77  1  0.21586042  0.18439371  0.74962041  1  -0.035987  -0.012224  0.008496  0.097737  -0.013012  3.99023  -0.007
C  C78  1  0.49329043  0.79975700  0.69786472  1  0.482666  -0.007564  0.050073  0.108936  -0.008501  3.94567  -0.005
C  C79  1  0.54723304  0.40335929  0.72356342  1  -0.034762  0.002084  -0.082518  -0.172875  0.000601  3.939032  0.002
C  C80  1  0.22150692  0.98299174  0.68374059  1  0.488526  -0.006997  0.046447  0.090327  -0.007517  3.922252  -0.004
C  C81  1  0.49816589  0.22254176  0.64391716  1  -0.038893  0.002361  -0.078958  -0.164681  0.000772  3.935412  0.002
C  C82  1  0.20897746  0.10372097  0.68221952  1  -0.045004  0.002945  -0.081869  -0.169717  0.001145  3.943335  0.003
C  C83  1  0.49345896  0.28606639  0.58318834  1  0.459438  -0.007263  0.046394  0.092241  -0.007678  3.971341  -0.004
C  C84  1  0.23159889  0.13505676  0.81658562  1  -0.025961  0.002508  -0.085262  -0.171251  0.000885  3.967702  0.003
C  C85  1  0.87386550  0.70508622  0.68495726  1  0.044315  0.004484  -0.083814  -0.175464  0.002077  3.943118  0.004
C  C86  1  0.24401885  0.01372108  0.81378371  1  0.477684  -0.006967  0.043726  0.097357  -0.007594  3.939715  -0.004
C  C87  1  0.99666406  0.70607696  0.68756713  1  0.387594  -0.006401  0.04722  0.097911  -0.007045  3.929358  -0.004
C  C88  1  0.45933938  0.96029670  0.15984790  1  0.513318  -0.0078  0.050584  0.118116  -0.00853  3.911658  -0.005
C  C89  1  0.38361567  0.29815884  0.19457937  1  0.018364  0.005101  -0.081007  -0.172889  0.002389  3.939015  0.004
C  C90  1  0.47550616  0.78102696  0.21644729  1  0.003372  -0.012124  0.010269  0.101412  -0.01279  3.979505  -0.007
C  C91  1  0.78507750  0.68634160  0.24982602  1  -0.019345  -0.010661  0.007692  0.09682  -0.01128  3.991406  -0.006
C  C92  1  0.50628537  0.29865191  0.19758015  1  0.468701  -0.006844  0.049457  0.108836  -0.007388  3.950939  -0.005
C  C93  1  0.45172183  0.90281305  0.22304295  1  -0.037788  0.002101  -0.081805  -0.172788  0.000625  3.93697  0.002
C  C94  1  0.78250940  0.48485171  0.18399857  1  0.43353  -0.00589  0.046385  0.091541  -0.00653  3.922404  -0.003
C  C95  1  0.50309127  0.72244804  0.14376173  1  0.005227  0.00225  -0.07859  -0.163168  0.000744  3.932786  0.002
C  C96  1  0.79322712  0.60575339  0.18246878  1  -0.017489  0.002116  -0.082137  -0.170699  0.000737  3.943718  0.002
C  C97  1  0.50782362  0.78607869  0.08310180  1  0.465907  -0.007155  0.046146  0.09346  -0.007504  3.972546  -0.004
C  C98  1  0.77011441  0.63680647  0.31669577  1  -0.081856  0.002102  -0.085812  -0.172248  0.00068  3.968759  0.002
C  C99  1  0.12580485  0.20457239  0.18437684  1  0.062894  0.004508  -0.084837  -0.175158  0.002073  3.942205  0.004
C  C100  1  0.75985165  0.51526105  0.31383835  1  0.493249  -0.006023  0.043577  0.096101  -0.006629  3.939754  -0.003
C  C101  1  0.00302594  0.20556470  0.18684367  1  0.381966  -0.006223  0.046453  0.096509  -0.006771  3.930075  -0.004
C  C102  1  0.46033949  0.53924961  0.33970072  1  0.46165  -0.007947  0.050927  0.117177  -0.008691  3.912918  -0.005
C  C103  1  0.38400885  0.20106612  0.30510898  1  0.02332  0.00489  -0.081063  -0.172934  0.002313  3.936986  0.004
C  C104  1  0.47547445  0.71859677  0.28317319  1  0.046246  -0.012264  0.010448  0.101487  -0.013058  3.980112  -0.007
C  C105  1  0.78414324  0.81559543  0.25037910  1  -0.036354  -0.012225  0.008451  0.09774  -0.013013  3.990337  -0.007
C  C106  1  0.50670792  0.20024717  0.30213443  1  0.482686  -0.007564  0.050199  0.108995  -0.008501  3.945978  -0.005
C  C107  1  0.45277060  0.59664751  0.27643428  1  -0.035037  0.002082  -0.082542  -0.17299  0.0006  3.939086  0.002
C  C108  1  0.77849320  0.01700092  0.31625754  1  0.488237  -0.006999  0.046495  0.092291  -0.007513  3.923115  -0.004
C  C109  1  0.50183952  0.77745974  0.35608063  1  -0.039009  0.002359  -0.07897  -0.164721  0.000771  3.935338  0.002
C  C110  1  0.79102973  0.89626726  0.31777766  1  -0.045058  0.002945  -0.08183  -0.169634  0.001144  3.942538  0.003
C  C111  1  0.50654911  0.71393423  0.41681050  1  0.45959  -0.007265  0.046474  0.09241  -0.00768  3.971242  -0.004
C  C112  1  0.76840477  0.86493682  0.18341484  1  -0.025309  0.002507  -0.085163  -0.171079  0.000885  3.967533  0.003
C  C113  1  0.12613021  0.29491535  0.31504615  1  0.044399  0.004485  -0.083882  -0.175587  0.002077  3.943193  0.004
C  C114  1  0.75597862  0.98627515  0.18621698  1  0.477149  -0.006967  0.04364  0.097172  -0.007594  3.939676  -0.004
C  C115  1  0.00332989  0.29391582  0.31243998  1  0.387821  -0.006405  0.047265  0.097906  -0.007048  3.929227  -0.004
C  C116  1  0.81046666  0.75031674  0.75024588  1  -0.020359  -0.009294  0.007591  0.097692  -0.009945  4.01054  -0.006
C  C117  1  0.68029512  0.75039551  0.75018652  1  -0.123917  -0.010637  0.014141  0.104778  -0.011163  3.995138  -0.007
C  C118  1  0.18952816  0.24969014  0.24975743  1  -0.020903  -0.009295  0.007603  0.09778  -0.009946  4.010361  -0.006
C  C119  1  0.31969792  0.24962016  0.24981308  1  -0.123601  -0.010638  0.014112  0.104796  -0.011164  3.995007  -0.007
S  S120  1  0.30121169  0.80005944  0.94201301  1  3.78534  0.006757  0.555233  1.405544  0.006108  6.373269  0.007
S  S121  1  0.30200694  0.70022776  0.55817956  1  3.77555  0.007571  0.55469  1.405091  0.006732  6.375025  0.007
S  S122  1  0.69878667  0.19993680  0.05798824  1  3.781029  0.006784  0.555203  1.405349  0.006111  6.37288  0.007
S  S123  1  0.69799670  0.29977547  0.44181614  1  3.775484  0.007572  0.554753  1.405277  0.00673  6.374444  0.007
N  N124  1  0.23544085  0.56099590  0.75136001  1  -1.212674  0.057228  -0.314418  -0.23253  0.031122  3.521066  0.05
N  N125  1  0.51216599  0.09638671  0.90948020  1  -1.255678  0.045852  -0.332903  -0.262253  0.024818  3.584124  0.041
N  N126  1  0.24051456  0.93749501  0.74848261  1  -1.236329  0.059293  -0.319221  -0.23894  0.032302  3.543458  0.051
N  N127  1  0.51225359  0.40379758  0.59077905  1  -1.219228  0.046581  -0.331992  -0.261061  0.025275  3.583578  0.042
N  N128  1  0.76456546  0.43899231  0.24863605  1  -1.212821  0.057225  -0.314612  -0.232783  0.031122  3.521463  0.05
N  N129  1  0.48782882  0.90361744  0.09051782  1  -1.255627  0.045853  -0.33293  -0.262244  0.024818  3.584152  0.041
N  N130  1  0.75947849  0.06250387  0.25151775  1  -1.236192  0.059292  -0.319252  -0.238673  0.032302  3.542175  0.051
N  N131  1  0.48775272  0.59620131  0.40922189  1  -1.219184  0.046579  -0.332004  -0.261115  0.025275  3.583651  0.042
N  N132  1  0.43239493  0.75077848  0.75020583  1  -1.232491  0.056161  -0.328887  -0.256869  0.03028  3.595589  0.052
N  N133  1  0.05775547  0.75024050  0.75039202  1  -1.251038  0.056651  -0.320239  -0.236548  0.030291  3.558473  0.051
N  N134  1  0.56759899  0.24922299  0.24979027  1  -1.232321  0.056165  -0.328892  -0.256918  0.030282  3.595625  0.052
N  N135  1  0.94223671  0.24974609  0.24961399  1  -1.250372  0.056654  -0.320274  -0.236513  0.030294  3.558329  0.051
O  O136  1  0.67342879  0.92441795  0.96365011  1  -1.233061  0.055511  -0.559994  -0.743305  0.028895  2.112706  0.046
O  O137  1  0.41284976  0.86919238  0.92982552  1  -1.302548  0.082162  -0.366179  -0.697974  0.042007  2.373713  0.068
O  O138  1  0.23950062  0.77359056  0.86612626  1  -1.310589  0.092459  -0.356887  -0.669221  0.048344  2.439141  0.076
O  O139  1  0.33066275  0.68828469  0.96860896  1  -1.339337  0.022861  -0.37389  -0.644768  0.011248  2.078618  0.02
O  O140  1  0.22154736  0.87723872  0.99418082  1  -1.339499  0.016945  -0.375488  -0.649885  0.008029  2.106996  0.015
O  O141  1  0.67370366  0.57485119  0.53661575  1  -1.208709  0.055879  -0.560852  -0.745909  0.029111  2.107834  0.046
O  O142  1  0.41443707  0.63142357  0.56957344  1  -1.297529  0.086731  -0.366991  -0.697448  0.044539  2.377186  0.071
O  O143  1  0.23843586  0.71724110  0.63337575  1  -1.327934  0.083657  -0.358018  -0.672597  0.043737  2.426047  0.067
O  O144  1  0.33067790  0.81548095  0.53613898  1  -1.340126  0.015838  -0.374153  -0.647713  0.007646  2.083434  0.013
O  O145  1  0.22522135  0.62626593  0.50211252  1  -1.3348  0.014414  -0.377486  -0.651416  0.006688  2.109811  0.012
O  O146  1  0.32656869  0.07558007  0.03635186  1  -1.232727  0.055514  -0.559943  -0.743266  0.028897  2.112808  0.046
O  O147  1  0.58714153  0.13079856  0.07017582  1  -1.29881  0.082154  -0.366195  -0.697937  0.042016  2.373608  0.068
O  O148  1  0.76050128  0.22640484  0.13387772  1  -1.310519  0.092472  -0.356806  -0.669224  0.048352  2.43923  0.076
O  O149  1  0.66933031  0.31171510  0.03139316  1  -1.339198  0.022861  -0.373833  -0.644736  0.011248  2.078585  0.02
O  O150  1  0.77845188  0.12275219  0.00581884  1  -1.339258  0.016946  -0.375525  -0.649833  0.008029  2.106773  0.015
O  O151  1  0.32630440  0.42514850  0.46337908  1  -1.208796  0.055883  -0.560791  -0.745777  0.029112  2.107968  0.046
O  O152  1  0.58556481  0.36857880  0.43042330  1  -1.297446  0.086727  -0.36701  -0.697492  0.044542  2.377263  0.071
O  O153  1  0.76155541  0.28274881  0.36661484  1  -1.328369  0.083693  -0.358102  -0.672298  0.043745  2.425394  0.067
O  O154  1  0.66933195  0.18452595  0.46386603  1  -1.340114  0.01584  -0.374088  -0.647307  0.007647  2.08272  0.013
O  O155  1  0.77479111  0.37374688  0.49787281  1  -1.334628  0.014414  -0.377511  -0.651425  0.006688  2.109831  0.012
