# generated using pymatgen
data_ZnH27C38N5O4
_symmetry_space_group_name_H-M   'P 1'
_cell_length_a   11.98292970
_cell_length_b   11.93140533
_cell_length_c   27.62812152
_cell_angle_alpha   90.00021273
_cell_angle_beta   98.65733430
_cell_angle_gamma   89.99995940
_symmetry_Int_Tables_number   1
_chemical_formula_structural   ZnH27C38N5O4
_chemical_formula_sum   'Zn4 H108 C152 N20 O16'
_cell_volume   3905.07447084
_cell_formula_units_Z   4
loop_
 _symmetry_equiv_pos_site_id
 _symmetry_equiv_pos_as_xyz
  1  'x, y, z'
loop_
 _atom_site_type_symbol
 _atom_site_label
 _atom_site_symmetry_multiplicity
 _atom_site_fract_x
 _atom_site_fract_y
 _atom_site_fract_z
 _atom_site_occupancy
 _atom_site_pbe_bader_charge
 _atom_site_pbe_bader_spin_density
 _atom_site_pbe_cm5_charge
 _atom_site_pbe_ddec_charge
 _atom_site_pbe_ddec_spin_density
 _atom_site_pbe_ddec_sum_bond_order
 _atom_site_pbe_magmom
Zn  Zn0  1  0.23660049  0.54079021  0.55053239  1  1.260328  0  0.69194  0.794056  0  2.392735  0
Zn  Zn1  1  0.26339741  0.04079130  0.94947007  1  1.260453  0  0.691949  0.794059  0  2.392898  0
Zn  Zn2  1  0.76339889  0.45920908  0.44946687  1  1.260238  0  0.691965  0.79413  0  2.392698  0
Zn  Zn3  1  0.73660020  0.95921134  0.05053232  1  1.260378  0  0.691935  0.794047  0  2.392725  0
H  H4  1  0.06881542  0.40039886  0.61220423  1  0.104929  0  0.122191  0.115568  0  1.00447  0
H  H5  1  0.43118417  0.90040136  0.88779747  1  0.104982  0  0.122207  0.11558  0  1.004516  0
H  H6  1  0.93119071  0.59960211  0.38779586  1  0.104984  0  0.122214  0.115675  0  1.004393  0
H  H7  1  0.56881008  0.09960799  0.11220432  1  0.104885  0  0.122241  0.115669  0  1.004296  0
H  H8  1  0.67678584  0.90429577  0.24149829  1  0.067856  0  0.101685  0.102734  0  0.993821  0
H  H9  1  0.82321413  0.40428344  0.25849943  1  0.067842  0  0.101667  0.102688  0  0.993938  0
H  H10  1  0.32321947  0.09570938  0.75850066  1  0.067843  0  0.101679  0.102713  0  0.993912  0
H  H11  1  0.17678440  0.59570830  0.74149976  1  0.067892  0  0.101662  0.102701  0  0.993873  0
H  H12  1  0.60180449  0.97897466  0.31496527  1  0.06906  0  0.098917  0.095133  0  1.015508  0
H  H13  1  0.89819292  0.47896667  0.18503311  1  0.069125  0  0.09891  0.095194  0  1.015432  0
H  H14  1  0.39819743  0.02103049  0.68503380  1  0.069113  0  0.098901  0.095187  0  1.0155  0
H  H15  1  0.10180225  0.52102842  0.81496549  1  0.069109  0  0.098902  0.095132  0  1.015518  0
H  H16  1  0.40843880  0.93057899  0.32908954  1  0.070636  0  0.101138  0.110428  0  1.021202  0
H  H17  1  0.09156420  0.43057613  0.17091156  1  0.070456  0  0.101131  0.11042  0  1.021243  0
H  H18  1  0.59156311  0.06942366  0.67090990  1  0.070403  0  0.10112  0.1104  0  1.021235  0
H  H19  1  0.90843518  0.56941813  0.82908770  1  0.070627  0  0.101129  0.110387  0  1.021228  0
H  H20  1  0.36084551  0.73296718  0.19700034  1  0.078122  0  0.098883  0.108155  0  1.022947  0
H  H21  1  0.13915081  0.23295956  0.30299816  1  0.078125  0  0.098868  0.10814  0  1.022958  0
H  H22  1  0.63915891  0.26703211  0.80300035  1  0.080823  0  0.098871  0.108138  0  1.02288  0
H  H23  1  0.86084020  0.76702967  0.69699762  1  0.080791  0  0.098881  0.108121  0  1.02288  0
H  H24  1  0.55601092  0.78120110  0.18292989  1  0.072967  0  0.098461  0.096214  0  1.00877  0
H  H25  1  0.94398734  0.28119086  0.31706896  1  0.073619  0  0.098424  0.096159  0  1.008793  0
H  H26  1  0.44399348  0.21880071  0.81707117  1  0.072945  0  0.098483  0.096264  0  1.008728  0
H  H27  1  0.05600787  0.71879754  0.68292783  1  0.072909  0  0.098439  0.096218  0  1.008751  0
H  H28  1  0.08411311  0.66366136  0.25372773  1  0.044987  0  0.101393  0.110899  0  1.008636  0
H  H29  1  0.41587813  0.16365556  0.24627139  1  0.044921  0  0.101399  0.110929  0  1.008536  0
H  H30  1  0.91588792  0.33634380  0.74627309  1  0.044966  0  0.101391  0.11087  0  1.008662  0
H  H31  1  0.58412122  0.83634289  0.75372895  1  0.044911  0  0.101352  0.110853  0  1.008603  0
H  H32  1  0.91966655  0.68793955  0.18773872  1  0.082673  0  0.100942  0.100892  0  1.016618  0
H  H33  1  0.58033260  0.18793708  0.31225860  1  0.082697  0  0.100926  0.100892  0  1.016609  0
H  H34  1  0.08033360  0.31207064  0.81226349  1  0.082531  0  0.100887  0.100853  0  1.016654  0
H  H35  1  0.41967534  0.81207730  0.68773619  1  0.082685  0  0.100899  0.100846  0  1.016654  0
H  H36  1  0.06871471  0.98527177  0.13889421  1  0.060429  0  0.097427  0.095795  0  1.041732  0
H  H37  1  0.43129088  0.48526946  0.36110461  1  0.060479  0  0.097426  0.095791  0  1.041774  0
H  H38  1  0.93128800  0.01473423  0.86110708  1  0.060836  0  0.097434  0.095775  0  1.041729  0
H  H39  1  0.56871190  0.51473234  0.63889415  1  0.060464  0  0.097426  0.095814  0  1.041747  0
H  H40  1  0.23325832  0.96483601  0.20516888  1  0.063934  0  0.099426  0.108179  0  1.016249  0
H  H41  1  0.26673872  0.46483241  0.29483367  1  0.063936  0  0.099432  0.1082  0  1.016243  0
H  H42  1  0.76674349  0.03516999  0.79483453  1  0.064038  0  0.099452  0.108229  0  1.016155  0
H  H43  1  0.73325123  0.53516017  0.70517072  1  0.063926  0  0.099386  0.108108  0  1.016259  0
H  H44  1  0.08596400  0.85909376  0.31587275  1  0.072164  0  0.105597  0.117014  0  0.994325  0
H  H45  1  0.41403986  0.35909413  0.18412756  1  0.072184  0  0.105553  0.116948  0  0.994353  0
H  H46  1  0.91403545  0.14089464  0.68412361  1  0.071989  0  0.105594  0.116977  0  0.994302  0
H  H47  1  0.58596111  0.64089678  0.81587543  1  0.071875  0  0.105575  0.116972  0  0.994316  0
H  H48  1  0.05848314  0.80493203  0.40078442  1  0.11369  0  0.100345  0.099781  0  1.009167  0
H  H49  1  0.44152157  0.30493081  0.09921623  1  0.11365  0  0.100295  0.099712  0  1.009104  0
H  H50  1  0.94152468  0.19506391  0.59921543  1  0.113562  0  0.100294  0.099686  0  1.009077  0
H  H51  1  0.55847942  0.69506093  0.90078603  1  0.113553  0  0.100362  0.099783  0  1.009097  0
H  H52  1  0.36266270  0.61136049  0.41665525  1  0.068655  0  0.100594  0.100802  0  1.017517  0
H  H53  1  0.13733867  0.11135936  0.08334449  1  0.068664  0  0.100624  0.100831  0  1.017498  0
H  H54  1  0.63735101  0.38864970  0.58334573  1  0.068165  0  0.100658  0.100851  0  1.017522  0
H  H55  1  0.86266317  0.88862736  0.91665783  1  0.068767  0  0.100609  0.100856  0  1.017491  0
H  H56  1  0.39536814  0.66949074  0.33295919  1  0.073054  0  0.105974  0.118099  0  1.003771  0
H  H57  1  0.10463404  0.16949454  0.16704179  1  0.073523  0  0.105902  0.117968  0  1.003763  0
H  H58  1  0.60464132  0.33051442  0.66704295  1  0.073171  0  0.105876  0.117975  0  1.003586  0
H  H59  1  0.89537283  0.83049469  0.83296197  1  0.073171  0  0.105941  0.118031  0  1.003634  0
H  H60  1  0.41931724  0.35443244  0.56514226  1  0.159023  0  0.142512  0.114875  0  0.994557  0
H  H61  1  0.08068075  0.85443477  0.93485564  1  0.158943  0  0.142498  0.114833  0  0.994673  0
H  H62  1  0.58067881  0.64556685  0.43485496  1  0.158982  0  0.142483  0.114856  0  0.994646  0
H  H63  1  0.91931856  0.14556955  0.06514615  1  0.15886  0  0.142494  0.114897  0  0.994643  0
H  H64  1  0.17295047  0.10065758  0.53004568  1  0.119764  0  0.130284  0.130967  0  0.989543  0
H  H65  1  0.32704152  0.60065835  0.96995645  1  0.120197  0  0.130328  0.131042  0  0.989425  0
H  H66  1  0.82703804  0.89934338  0.46994883  1  0.120004  0  0.130326  0.131047  0  0.989521  0
H  H67  1  0.67295613  0.39934429  0.03004450  1  0.120137  0  0.130304  0.131014  0  0.989451  0
H  H68  1  0.06751155  0.30786036  0.52636887  1  0.170409  0  0.117396  0.12294  0  1.049313  0
H  H69  1  0.43248211  0.80786108  0.97363335  1  0.17047  0  0.117408  0.122962  0  1.049298  0
H  H70  1  0.93248365  0.69214145  0.47362828  1  0.17052  0  0.117424  0.122972  0  1.049245  0
H  H71  1  0.56751460  0.19214156  0.02637115  1  0.170439  0  0.117437  0.122977  0  1.049255  0
H  H72  1  0.52972937  0.22542899  0.52690818  1  0.077196  0  0.110609  0.116501  0  1.003747  0
H  H73  1  0.97026815  0.72542968  0.97308599  1  0.076951  0  0.110607  0.116476  0  1.003747  0
H  H74  1  0.47026515  0.77456778  0.47308241  1  0.076923  0  0.110572  0.116401  0  1.003866  0
H  H75  1  0.02973206  0.27457212  0.02691369  1  0.076988  0  0.110617  0.116508  0  1.003762  0
H  H76  1  0.68238542  0.08652583  0.54163067  1  0.072966  0  0.104668  0.107041  0  1.004344  0
H  H77  1  0.81761116  0.58652735  0.95836756  1  0.072951  0  0.104689  0.10708  0  1.004349  0
H  H78  1  0.31760652  0.91346843  0.45836155  1  0.073152  0  0.104664  0.107094  0  1.004342  0
H  H79  1  0.18238983  0.41347529  0.04163471  1  0.073029  0  0.104705  0.107114  0  1.004331  0
H  H80  1  0.45605982  0.85646564  0.59922433  1  0.138  0  0.102446  0.107932  0  1.054082  0
H  H81  1  0.04394148  0.35646061  0.90077633  1  0.137951  0  0.102424  0.107882  0  1.054083  0
H  H82  1  0.54393954  0.14353616  0.40077564  1  0.137993  0  0.102454  0.107957  0  1.054044  0
H  H83  1  0.95605958  0.64354204  0.09922341  1  0.138683  0  0.102447  0.107899  0  1.054157  0
H  H84  1  0.30603740  0.99628572  0.58625587  1  0.072057  0  0.110793  0.11754  0  0.989895  0
H  H85  1  0.19396139  0.49628655  0.91374339  1  0.072108  0  0.110782  0.117466  0  0.989935  0
H  H86  1  0.69396536  0.00371525  0.41374362  1  0.072052  0  0.110745  0.117456  0  0.989915  0
H  H87  1  0.80603462  0.50372112  0.08625527  1  0.072229  0  0.110791  0.117518  0  0.989941  0
H  H88  1  0.80679186  0.99876308  0.59856776  1  0.093599  0  0.099336  0.100648  0  1.036338  0
H  H89  1  0.69320879  0.49876632  0.90143540  1  0.093588  0  0.09933  0.100689  0  1.036295  0
H  H90  1  0.19321010  0.00123118  0.40142951  1  0.093986  0  0.09934  0.1007  0  1.036484  0
H  H91  1  0.30679135  0.50123548  0.09856717  1  0.09358  0  0.099318  0.100674  0  1.036247  0
H  H92  1  0.96073569  0.85761624  0.60830582  1  0.043894  0  0.110387  0.118586  0  0.986934  0
H  H93  1  0.53926486  0.35761867  0.89170181  1  0.043974  0  0.110412  0.118629  0  0.986935  0
H  H94  1  0.03926284  0.14237551  0.39169338  1  0.043807  0  0.110358  0.118517  0  0.986909  0
H  H95  1  0.46073438  0.64238648  0.10830286  1  0.043997  0  0.110414  0.118614  0  0.986961  0
H  H96  1  0.71662466  0.59452897  0.57124545  1  0.108165  0  0.110799  0.123541  0  1.004398  0
H  H97  1  0.78337512  0.09453154  0.92876025  1  0.108089  0  0.11081  0.123523  0  1.004448  0
H  H98  1  0.28337299  0.40546445  0.42875513  1  0.108197  0  0.110842  0.12362  0  1.00443  0
H  H99  1  0.21662249  0.90547194  0.07124214  1  0.108116  0  0.110773  0.123491  0  1.004415  0
H  H100  1  0.56230507  0.73464577  0.56356137  1  0.092109  0  0.107122  0.110293  0  1.002765  0
H  H101  1  0.93769561  0.23464661  0.93644136  1  0.092298  0  0.107115  0.110266  0  1.002815  0
H  H102  1  0.43769521  0.26535101  0.43643577  1  0.092159  0  0.107103  0.110267  0  1.002768  0
H  H103  1  0.06230288  0.76535603  0.06355964  1  0.092207  0  0.107139  0.110301  0  1.002837  0
H  H104  1  0.05421585  0.72784621  0.55473747  1  0.205542  0  0.141606  0.121812  0  1.015678  0
H  H105  1  0.44578031  0.22784797  0.94526660  1  0.205803  0  0.141585  0.121818  0  1.015718  0
H  H106  1  0.94577604  0.27214889  0.44525691  1  0.205424  0  0.141627  0.121841  0  1.015648  0
H  H107  1  0.55422064  0.77215886  0.05473747  1  0.205595  0  0.14158  0.121807  0  1.015718  0
H  H108  1  0.86810301  0.49908944  0.62922915  1  0.126737  0  0.126715  0.128166  0  1.014136  0
H  H109  1  0.63190103  0.99909370  0.87077388  1  0.127077  0  0.126669  0.12806  0  1.014233  0
H  H110  1  0.13190302  0.50090733  0.37077456  1  0.127022  0  0.12671  0.128117  0  1.014248  0
H  H111  1  0.36809997  0.00091062  0.12922838  1  0.126698  0  0.126726  0.128202  0  1.014189  0
C  C112  1  0.03589457  0.48350220  0.60313022  1  0.332724  0  0.003854  -0.024873  0  3.980611  0
C  C113  1  0.46410585  0.98350308  0.89687167  1  0.332275  0  0.003879  -0.024885  0  3.980651  0
C  C114  1  0.96410823  0.51649541  0.39686747  1  0.332649  0  0.003829  -0.025066  0  3.980454  0
C  C115  1  0.53589258  0.01650124  0.10313186  1  0.332268  0  0.003809  -0.025069  0  3.980488  0
C  C116  1  0.59175788  0.88303513  0.24794812  1  -0.031407  0  -0.101148  -0.105875  0  4.035975  0
C  C117  1  0.90824289  0.38302604  0.25205143  1  -0.031334  0  -0.101081  -0.105796  0  4.036052  0
C  C118  1  0.40824402  0.11696918  0.75205167  1  -0.031324  0  -0.101093  -0.105798  0  4.035981  0
C  C119  1  0.09175647  0.61696906  0.74794855  1  -0.031397  0  -0.101058  -0.105789  0  4.036069  0
C  C120  1  0.54999140  0.92445207  0.28903686  1  -0.057836  0  -0.096174  -0.073334  0  4.045761  0
C  C121  1  0.95000935  0.42444595  0.21096348  1  -0.05778  0  -0.096179  -0.073357  0  4.045673  0
C  C122  1  0.45001388  0.07554973  0.71096280  1  -0.057758  0  -0.09622  -0.07348  0  4.045759  0
C  C123  1  0.04998917  0.57554831  0.78903644  1  -0.057807  0  -0.096186  -0.073332  0  4.045814  0
C  C124  1  0.44103708  0.89775202  0.29711919  1  -0.037836  0  -0.097688  -0.173168  0  3.978741  0
C  C125  1  0.05896174  0.39774696  0.20287975  1  -0.037673  0  -0.097736  -0.173271  0  3.978753  0
C  C126  1  0.55896484  0.10225062  0.70287988  1  -0.037675  0  -0.097716  -0.173159  0  3.978744  0
C  C127  1  0.94103595  0.60224563  0.79711939  1  -0.03789  0  -0.097689  -0.173169  0  3.978704  0
C  C128  1  0.37265234  0.82864353  0.26386113  1  0.339572  0  0.088161  0.176853  0  4.03787  0
C  C129  1  0.12734904  0.32863786  0.23613751  1  0.339707  0  0.088268  0.177011  0  4.037526  0
C  C130  1  0.62735384  0.17135743  0.73613679  1  0.339556  0  0.088114  0.176696  0  4.037519  0
C  C131  1  0.87264866  0.67135388  0.76386126  1  0.33965  0  0.088197  0.176907  0  4.037641  0
C  C132  1  0.41438375  0.78683184  0.22262080  1  -0.08559  0  -0.099541  -0.180325  0  3.987239  0
C  C133  1  0.08561760  0.28682655  0.27737922  1  -0.085667  0  -0.099507  -0.180298  0  3.987028  0
C  C134  1  0.58562155  0.21316829  0.77737850  1  -0.088285  0  -0.099539  -0.180242  0  3.98703  0
C  C135  1  0.91437841  0.71316603  0.72261944  1  -0.08835  0  -0.099568  -0.180247  0  3.987049  0
C  C136  1  0.52341798  0.81422921  0.21485608  1  -0.05839  0  -0.095412  -0.073189  0  4.048605  0
C  C137  1  0.97658445  0.31422621  0.28514492  1  -0.05915  0  -0.095423  -0.073218  0  4.048549  0
C  C138  1  0.47658815  0.18577176  0.78514364  1  -0.058369  0  -0.095396  -0.073242  0  4.048634  0
C  C139  1  0.02341405  0.68577224  0.71485572  1  -0.058378  0  -0.095416  -0.073295  0  4.048642  0
C  C140  1  0.16954837  0.81299738  0.23393635  1  0.377823  0  0.094868  0.190943  0  4.028523  0
C  C141  1  0.33045128  0.31299265  0.26606396  1  0.378178  0  0.094917  0.191006  0  4.028438  0
C  C142  1  0.83045605  0.18700359  0.76606435  1  0.377671  0  0.094908  0.190992  0  4.028446  0
C  C143  1  0.66954721  0.68700329  0.73393704  1  0.377674  0  0.094865  0.190877  0  4.028647  0
C  C144  1  0.08058153  0.73479369  0.22878065  1  -0.027408  0  -0.10039  -0.182446  0  3.994558  0
C  C145  1  0.41941644  0.23479313  0.27121905  1  -0.027839  0  -0.100437  -0.182572  0  3.994527  0
C  C146  1  0.91941781  0.26520895  0.77122005  1  -0.027302  0  -0.100405  -0.182468  0  3.994515  0
C  C147  1  0.58058461  0.76520951  0.72878069  1  -0.027442  0  -0.100311  -0.182373  0  3.994248  0
C  C148  1  0.98895142  0.74804646  0.19196664  1  -0.065833  0  -0.086658  -0.08014  0  4.004472  0
C  C149  1  0.51105022  0.24804484  0.30803240  1  -0.065785  0  -0.086663  -0.08015  0  4.004529  0
C  C150  1  0.01105129  0.25196038  0.80803466  1  -0.065719  0  -0.08661  -0.080095  0  4.004484  0
C  C151  1  0.48895262  0.75196199  0.69196384  1  -0.065837  0  -0.086613  -0.080091  0  4.004455  0
C  C152  1  0.98373057  0.83848831  0.15928196  1  0.016729  0  -0.032234  -0.059019  0  3.998424  0
C  C153  1  0.51627281  0.33848864  0.34071517  1  0.01712  0  -0.032255  -0.05905  0  3.998454  0
C  C154  1  0.01627300  0.16151769  0.84071904  1  0.016484  0  -0.032284  -0.059092  0  3.998249  0
C  C155  1  0.48373173  0.66152154  0.65928083  1  0.017338  0  -0.032303  -0.059032  0  3.998535  0
C  C156  1  0.07309998  0.91540668  0.16439037  1  -0.068048  0  -0.090248  -0.081408  0  4.013517  0
C  C157  1  0.42690054  0.41540751  0.33560871  1  -0.068031  0  -0.090204  -0.081361  0  4.013408  0
C  C158  1  0.92690272  0.08459932  0.83561129  1  -0.068411  0  -0.090177  -0.081255  0  4.013349  0
C  C159  1  0.57309715  0.58459681  0.66439078  1  -0.067997  0  -0.090244  -0.081532  0  4.013412  0
C  C160  1  0.16507381  0.90349706  0.20113156  1  -0.036284  0  -0.103263  -0.187098  0  4.000858  0
C  C161  1  0.33492330  0.40349345  0.29886836  1  -0.036262  0  -0.103257  -0.187122  0  4.000782  0
C  C162  1  0.83492890  0.09650894  0.79886974  1  -0.036245  0  -0.103332  -0.187218  0  4.00083  0
C  C163  1  0.66507179  0.59650333  0.70113313  1  -0.035966  0  -0.103185  -0.186869  0  4.000582  0
C  C164  1  0.88467967  0.85123520  0.11957836  1  1.542677  0  0.186645  0.555119  0  4.254758  0
C  C165  1  0.61531523  0.35123329  0.38041928  1  1.541969  0  0.186806  0.555352  0  4.254308  0
C  C166  1  0.11532557  0.14877163  0.88042311  1  1.542901  0  0.186705  0.555222  0  4.254493  0
C  C167  1  0.38468338  0.64877857  0.61957702  1  1.541279  0  0.186638  0.555178  0  4.254441  0
C  C168  1  0.24318108  0.76850924  0.31908535  1  0.298751  0  0.097798  0.193304  0  4.035525  0
C  C169  1  0.25682110  0.26850971  0.18091543  1  0.299267  0  0.097855  0.193399  0  4.035493  0
C  C170  1  0.75682249  0.23149340  0.68091565  1  0.299068  0  0.097729  0.193179  0  4.035696  0
C  C171  1  0.74317740  0.73148288  0.81908521  1  0.299171  0  0.097769  0.193248  0  4.035731  0
C  C172  1  0.14707727  0.80558379  0.33820148  1  0.002489  0  -0.101031  -0.186559  0  3.998612  0
C  C173  1  0.35292743  0.30558318  0.16179953  1  0.002369  0  -0.100982  -0.186493  0  3.998621  0
C  C174  1  0.85292887  0.19441718  0.66179789  1  0.002624  0  -0.101043  -0.186524  0  3.99851  0
C  C175  1  0.64707189  0.69441444  0.83820189  1  0.002808  0  -0.100953  -0.186455  0  3.998755  0
C  C176  1  0.13139050  0.77496480  0.38520078  1  -0.103593  0  -0.088447  -0.084746  0  4.016793  0
C  C177  1  0.36861504  0.27496294  0.11480061  1  -0.103345  0  -0.088394  -0.084713  0  4.016685  0
C  C178  1  0.86862067  0.22503868  0.61480003  1  -0.103425  0  -0.088361  -0.084713  0  4.016563  0
C  C179  1  0.63138427  0.72503132  0.88520154  1  -0.103858  0  -0.088488  -0.084869  0  4.016835  0
C  C180  1  0.20919617  0.70558078  0.41409657  1  -0.058506  0  -0.034218  -0.069166  0  4.013562  0
C  C181  1  0.29080515  0.20557957  0.08590477  1  -0.058704  0  -0.03421  -0.069186  0  4.013635  0
C  C182  1  0.79081330  0.29442186  0.58590484  1  -0.065331  0  -0.034232  -0.069015  0  4.013537  0
C  C183  1  0.70919753  0.79440967  0.91409761  1  -0.064797  0  -0.034045  -0.068768  0  4.013286  0
C  C184  1  0.30357482  0.66714009  0.39448517  1  -0.062529  0  -0.089452  -0.092888  0  4.02557  0
C  C185  1  0.19642737  0.16713912  0.10551545  1  -0.062508  0  -0.089451  -0.092852  0  4.025715  0
C  C186  1  0.69643635  0.33286422  0.60551600  1  -0.055615  0  -0.089533  -0.093  0  4.025722  0
C  C187  1  0.80357619  0.83284928  0.89448591  1  -0.055933  0  -0.089579  -0.093123  0  4.025581  0
C  C188  1  0.32137760  0.69872963  0.34787273  1  0.02251  0  -0.099767  -0.1866  0  3.99495  0
C  C189  1  0.17862966  0.19872320  0.15212792  1  0.021928  0  -0.099738  -0.186556  0  3.995017  0
C  C190  1  0.67863528  0.30128223  0.65212747  1  0.022881  0  -0.09963  -0.186412  0  3.994878  0
C  C191  1  0.82137642  0.80126436  0.84787397  1  0.022223  0  -0.099816  -0.186604  0  3.994837  0
C  C192  1  0.19000807  0.67418236  0.46466803  1  1.568799  0  0.194439  0.56446  0  4.26253  0
C  C193  1  0.30998818  0.17418572  0.03533327  1  1.569101  0  0.194601  0.564582  0  4.262215  0
C  C194  1  0.80999554  0.32581358  0.53533116  1  1.568817  0  0.194396  0.564344  0  4.262829  0
C  C195  1  0.69001193  0.82580435  0.96467038  1  1.568387  0  0.194575  0.564442  0  4.262226  0
C  C196  1  0.33807145  0.31511853  0.55396105  1  0.967649  0  0.149778  0.106629  0  3.885318  0
C  C197  1  0.16192317  0.81512173  0.94603655  1  0.967574  0  0.149787  0.10675  0  3.88547  0
C  C198  1  0.66192205  0.68487741  0.44603671  1  0.967579  0  0.149823  0.106781  0  3.885634  0
C  C199  1  0.83807785  0.18488259  0.05396463  1  0.967668  0  0.149795  0.10664  0  3.885491  0
C  C200  1  0.20698117  0.18404593  0.53709366  1  0.29511  0  0.004111  -0.098305  0  3.914385  0
C  C201  1  0.29301257  0.68404667  0.96290584  1  0.294992  0  0.004093  -0.098336  0  3.914209  0
C  C202  1  0.79300978  0.81595420  0.46290429  1  0.295562  0  0.004131  -0.098368  0  3.914494  0
C  C203  1  0.70698425  0.31595597  0.03709432  1  0.294961  0  0.004123  -0.098311  0  3.914323  0
C  C204  1  0.15680835  0.28770515  0.53462938  1  0.388779  0  -0.001652  -0.037506  0  3.986946  0
C  C205  1  0.34318788  0.78770503  0.96537154  1  0.388076  0  -0.001699  -0.037585  0  3.986978  0
C  C206  1  0.84318427  0.71229498  0.46536940  1  0.387695  0  -0.001736  -0.037542  0  3.986995  0
C  C207  1  0.65681313  0.21229761  0.03463000  1  0.388644  0  -0.001732  -0.037594  0  3.986983  0
C  C208  1  0.40875539  0.12043818  0.55633013  1  0.199476  0  0.093741  0.159598  0  4.033779  0
C  C209  1  0.09124180  0.62043471  0.94366696  1  0.199484  0  0.093751  0.159524  0  4.033742  0
C  C210  1  0.59123987  0.87956111  0.44366485  1  0.199871  0  0.093757  0.15954  0  4.033751  0
C  C211  1  0.90875419  0.37956710  0.05633278  1  0.199467  0  0.093746  0.159631  0  4.033699  0
C  C212  1  0.51475321  0.14557595  0.54391135  1  0.041298  0  -0.089072  -0.16483  0  4.004432  0
C  C213  1  0.98524255  0.64557648  0.95608583  1  0.04073  0  -0.089012  -0.164613  0  4.004237  0
C  C214  1  0.48523952  0.85442083  0.45608346  1  0.040797  0  -0.08901  -0.164529  0  4.00414  0
C  C215  1  0.01475594  0.35442448  0.04391517  1  0.041369  0  -0.089024  -0.164705  0  4.0041  0
C  C216  1  0.60064492  0.06663135  0.55220302  1  -0.022448  0  -0.080926  -0.100081  0  3.965544  0
C  C217  1  0.89935251  0.56663020  0.94779524  1  -0.021607  0  -0.081055  -0.100321  0  3.965897  0
C  C218  1  0.39934782  0.93336710  0.44779143  1  -0.015309  0  -0.080927  -0.100215  0  3.965933  0
C  C219  1  0.10064765  0.43337244  0.05220624  1  -0.022173  0  -0.081035  -0.100264  0  3.965798  0
C  C220  1  0.58201820  0.96112121  0.57212329  1  0.024203  0  -0.009012  0.052609  0  4.010278  0
C  C221  1  0.91798253  0.46112033  0.92787691  1  0.02419  0  -0.008981  0.052692  0  4.010207  0
C  C222  1  0.41798120  0.03887640  0.42787524  1  0.017559  0  -0.008989  0.052525  0  4.010682  0
C  C223  1  0.08201769  0.53888315  0.07212240  1  0.024218  0  -0.009028  0.052573  0  4.010415  0
C  C224  1  0.47413466  0.93689281  0.58347417  1  -0.113929  0  -0.081925  -0.102968  0  3.952816  0
C  C225  1  0.02586663  0.43689043  0.91652698  1  -0.113966  0  -0.081868  -0.102885  0  3.952527  0
C  C226  1  0.52586305  0.06310481  0.41652425  1  -0.113901  0  -0.08196  -0.102972  0  3.952841  0
C  C227  1  0.97413441  0.56311305  0.08347384  1  -0.114809  0  -0.081897  -0.102803  0  3.95244  0
C  C228  1  0.38813578  0.01593675  0.57597886  1  0.030156  0  -0.086696  -0.157572  0  3.988391  0
C  C229  1  0.11186137  0.51593477  0.92402024  1  0.030108  0  -0.086691  -0.157483  0  3.98844  0
C  C230  1  0.61186112  0.98406086  0.42401805  1  0.030071  0  -0.086605  -0.157432  0  3.988504  0
C  C231  1  0.88813797  0.48406703  0.07598082  1  0.029979  0  -0.086701  -0.157661  0  3.988529  0
C  C232  1  0.67323251  0.87716966  0.57969145  1  -0.014962  0  -0.007807  0.060058  0  4.003113  0
C  C233  1  0.82676567  0.37716794  0.92030953  1  -0.015097  0  -0.007853  0.059992  0  4.003148  0
C  C234  1  0.32676610  0.12282544  0.42030450  1  -0.014762  0  -0.007841  0.060174  0  4.003197  0
C  C235  1  0.17323281  0.62283638  0.07969184  1  -0.014942  0  -0.007785  0.060115  0  4.003333  0
C  C236  1  0.78657042  0.91038956  0.59221897  1  -0.061274  0  -0.087975  -0.114624  0  3.981269  0
C  C237  1  0.71343022  0.41038949  0.90778513  1  -0.061178  0  -0.087926  -0.114697  0  3.98152  0
C  C238  1  0.21342985  0.08960470  0.40777854  1  -0.061493  0  -0.088038  -0.114893  0  3.981412  0
C  C239  1  0.28656739  0.58961566  0.09221726  1  -0.060806  0  -0.087887  -0.114689  0  3.981354  0
C  C240  1  0.87313219  0.83170142  0.59785249  1  -0.021325  0  -0.090944  -0.173453  0  4.018556  0
C  C241  1  0.62686840  0.33170305  0.90215365  1  -0.020596  0  -0.090959  -0.173392  0  4.018801  0
C  C242  1  0.12686298  0.16829535  0.40214575  1  -0.02129  0  -0.090887  -0.173189  0  4.018315  0
C  C243  1  0.37313085  0.66830379  0.09785102  1  -0.022307  0  -0.090966  -0.173426  0  4.018685  0
C  C244  1  0.84709883  0.71820597  0.59037588  1  0.302575  0  0.094114  0.16146  0  4.038181  0
C  C245  1  0.65289930  0.21820847  0.90962774  1  0.301494  0  0.094082  0.161211  0  4.038362  0
C  C246  1  0.15289636  0.28178745  0.40962200  1  0.303131  0  0.094141  0.161449  0  4.038237  0
C  C247  1  0.34709998  0.78179836  0.09037549  1  0.302813  0  0.094106  0.161451  0  4.038238  0
C  C248  1  0.73526076  0.68293015  0.57849293  1  0.019033  0  -0.085014  -0.149461  0  3.96746  0
C  C249  1  0.76473483  0.18293100  0.92151082  1  0.019354  0  -0.085042  -0.149414  0  3.967471  0
C  C250  1  0.26473439  0.31706579  0.42150640  1  0.018365  0  -0.085096  -0.149668  0  3.967481  0
C  C251  1  0.23526277  0.81707248  0.07849194  1  0.019025  0  -0.08502  -0.149461  0  3.967572  0
C  C252  1  0.64935463  0.76228041  0.57364983  1  -0.051413  0  -0.080616  -0.104693  0  3.960709  0
C  C253  1  0.85064608  0.26227788  0.92635150  1  -0.051415  0  -0.080564  -0.104605  0  3.960597  0
C  C254  1  0.35064477  0.23771637  0.42634834  1  -0.051642  0  -0.080554  -0.104582  0  3.960523  0
C  C255  1  0.14935240  0.73772560  0.07364987  1  -0.051548  0  -0.080674  -0.104744  0  3.960832  0
C  C256  1  0.03304208  0.65393297  0.57419726  1  0.964563  0  0.152772  0.105726  0  3.890854  0
C  C257  1  0.46695661  0.15393370  0.92580688  1  0.963983  0  0.152834  0.105691  0  3.890974  0
C  C258  1  0.96695479  0.34606213  0.42580074  1  0.96504  0  0.15284  0.105832  0  3.891121  0
C  C259  1  0.53304347  0.84606643  0.07419786  1  0.96461  0  0.152814  0.10579  0  3.890828  0
C  C260  1  0.93643604  0.53059192  0.61162769  1  0.401983  0  0.006913  -0.088662  0  3.911827  0
C  C261  1  0.56356547  0.03059766  0.88837658  1  0.40182  0  0.006981  -0.088594  0  3.911762  0
C  C262  1  0.06356755  0.46940067  0.38837222  1  0.401681  0  0.007014  -0.088452  0  3.91175  0
C  C263  1  0.43643212  0.96940918  0.11162653  1  0.402511  0  0.00692  -0.088603  0  3.911914  0
N  N264  1  0.09458012  0.56105707  0.57948147  1  -1.249767  0  -0.355476  -0.274913  0  3.612282  0
N  N265  1  0.40542028  0.06106032  0.92052227  1  -1.248948  0  -0.355532  -0.274956  0  3.612323  0
N  N266  1  0.90542013  0.43893719  0.42051676  1  -1.249684  0  -0.355582  -0.275024  0  3.612365  0
N  N267  1  0.59458062  0.93894400  0.07948360  1  -1.249453  0  -0.355484  -0.27496  0  3.612124  0
N  N268  1  0.26157096  0.80095534  0.27199381  1  -1.228885  0  -0.25546  -0.160544  0  3.680876  0
N  N269  1  0.23843123  0.30094868  0.22800629  1  -1.229338  0  -0.255557  -0.160579  0  3.680749  0
N  N270  1  0.73843600  0.19904730  0.72800670  1  -1.229311  0  -0.255335  -0.160288  0  3.680707  0
N  N271  1  0.76156895  0.69904307  0.77199447  1  -1.229142  0  -0.255432  -0.160498  0  3.680997  0
N  N272  1  0.23984835  0.36847687  0.54527947  1  -1.248581  0  -0.350714  -0.278798  0  3.560797  0
N  N273  1  0.26014960  0.86847924  0.95471989  1  -1.248036  0  -0.350741  -0.278889  0  3.560999  0
N  N274  1  0.76014599  0.63152158  0.45471835  1  -1.247912  0  -0.350761  -0.278924  0  3.561188  0
N  N275  1  0.73984891  0.13152508  0.04528039  1  -1.248459  0  -0.350728  -0.278834  0  3.561011  0
N  N276  1  0.32207544  0.20252155  0.54924952  1  -1.235335  0  -0.222985  0.009174  0  3.823559  0
N  N277  1  0.17791746  0.70252311  0.95074958  1  -1.235363  0  -0.222963  0.009181  0  3.823429  0
N  N278  1  0.67791638  0.79747522  0.45074775  1  -1.23588  0  -0.222962  0.009121  0  3.823706  0
N  N279  1  0.82207594  0.29748037  0.04925179  1  -1.235416  0  -0.222953  0.009171  0  3.823693  0
N  N280  1  0.93570754  0.63857576  0.59307287  1  -1.264034  0  -0.225497  0.004845  0  3.817101  0
N  N281  1  0.56429139  0.13857915  0.90693248  1  -1.264499  0  -0.225565  0.005061  0  3.816948  0
N  N282  1  0.06428847  0.36141850  0.40692579  1  -1.264493  0  -0.225594  0.004725  0  3.817285  0
N  N283  1  0.43570783  0.86142517  0.09307291  1  -1.264253  0  -0.225529  0.004851  0  3.817082  0
O  O284  1  0.25491899  0.59457403  0.48515018  1  -1.175264  0  -0.344894  -0.569958  0  2.331365  0
O  O285  1  0.24508150  0.09457056  0.01485093  1  -1.175276  0  -0.345043  -0.570066  0  2.331289  0
O  O286  1  0.74508129  0.40541856  0.51484697  1  -1.175116  0  -0.344927  -0.569938  0  2.331325  0
O  O287  1  0.75492452  0.90541364  0.98515314  1  -1.175105  0  -0.344962  -0.569987  0  2.331198  0
O  O288  1  0.11553888  0.72385139  0.48376653  1  -1.192888  0  -0.33573  -0.571971  0  2.15854  0
O  O289  1  0.38445062  0.22385621  0.01623401  1  -1.193163  0  -0.335771  -0.571987  0  2.158492  0
O  O290  1  0.88446891  0.27615545  0.51623440  1  -1.193026  0  -0.335677  -0.571921  0  2.158808  0
O  O291  1  0.61554355  0.77613805  0.98377067  1  -1.192682  0  -0.335841  -0.572  0  2.158362  0
O  O292  1  0.81184353  0.77546541  0.11159606  1  -1.171746  0  -0.345019  -0.566944  0  2.082081  0
O  O293  1  0.68815382  0.27546352  0.38840562  1  -1.171698  0  -0.345098  -0.567093  0  2.081791  0
O  O294  1  0.18815920  0.22453555  0.88840452  1  -1.17193  0  -0.345008  -0.566934  0  2.082249  0
O  O295  1  0.31184887  0.72455253  0.61159640  1  -1.171302  0  -0.345038  -0.566995  0  2.081926  0
O  O296  1  0.88156585  0.94478820  0.09489760  1  -1.174791  0  -0.353711  -0.579285  0  2.296894  0
O  O297  1  0.61843503  0.44479069  0.40509735  1  -1.174413  0  -0.353815  -0.57941  0  2.296851  0
O  O298  1  0.11843686  0.05521528  0.90510369  1  -1.1747  0  -0.353754  -0.579358  0  2.29664  0
O  O299  1  0.38156281  0.55522285  0.59489565  1  -1.174476  0  -0.353666  -0.579282  0  2.296728  0
