# generated using pymatgen
data_Cd3H24C34(N2Cl)6
_symmetry_space_group_name_H-M   'P 1'
_cell_length_a   8.22269020
_cell_length_b   10.80344098
_cell_length_c   11.52192114
_cell_angle_alpha   70.98147287
_cell_angle_beta   85.02574419
_cell_angle_gamma   82.10518316
_symmetry_Int_Tables_number   1
_chemical_formula_structural   Cd3H24C34(N2Cl)6
_chemical_formula_sum   'Cd3 H24 C34 N12 Cl6'
_cell_volume   957.52593047
_cell_formula_units_Z   1
loop_
 _symmetry_equiv_pos_site_id
 _symmetry_equiv_pos_as_xyz
  1  'x, y, z'
loop_
 _atom_site_type_symbol
 _atom_site_label
 _atom_site_symmetry_multiplicity
 _atom_site_fract_x
 _atom_site_fract_y
 _atom_site_fract_z
 _atom_site_occupancy
 _atom_site_hle17_bader_spin_density
 _atom_site_hle17_ddec_charge
 _atom_site_hle17_ddec_spin_density
 _atom_site_hle17_ddec_sum_bond_order
 _atom_site_hle17_magmom
 _atom_site_hse06_10hf_bader_spin_density
 _atom_site_hse06_10hf_ddec_charge
 _atom_site_hse06_10hf_ddec_spin_density
 _atom_site_hse06_10hf_ddec_sum_bond_order
 _atom_site_hse06_10hf_magmom
 _atom_site_hse06_bader_spin_density
 _atom_site_hse06_ddec_charge
 _atom_site_hse06_ddec_spin_density
 _atom_site_hse06_ddec_sum_bond_order
 _atom_site_hse06_magmom
 _atom_site_pbe_bader_spin_density
 _atom_site_pbe_cm5_charge
 _atom_site_pbe_ddec_charge
 _atom_site_pbe_ddec_spin_density
 _atom_site_pbe_ddec_sum_bond_order
 _atom_site_pbe_magmom
Cd  Cd0  1  0.00000021  0.99999970  0.49999805  1  0  0.919501  0  1.954622  0  0  0.746231  0  2.399331  0  0  0.792834  0  2.363429  0  0  0.622149  0.713681  0  2.423472  0
Cd  Cd1  1  0.09404747  0.22581590  0.65017648  1  0  0.922715  0  1.982347  0  0  0.748734  0  2.470539  0  0  0.794988  0  2.426476  0  0  0.578455  0.716347  0  2.500518  0
Cd  Cd2  1  0.90595543  0.77418152  0.34982120  1  0  0.922733  0  1.982362  0  0  0.748783  0  2.470521  0  0  0.795035  0  2.426461  0  0  0.578478  0.716394  0  2.5005  0
H  H3  1  0.20205489  0.57249346  0.19932503  1  0  0.119962  0  0.971165  0  0  0.124471  0  1.040391  0  0  0.128211  0  1.038832  0  0  0.101108  0.121771  0  1.041636  0
H  H4  1  0.79794607  0.42750990  0.80067528  1  0  0.119969  0  0.971179  0  0  0.124473  0  1.040404  0  0  0.12821  0  1.038849  0  0  0.101127  0.121774  0  1.041649  0
H  H5  1  0.03786139  0.46394975  0.38532615  1  0  0.074038  0  0.944421  0  0  0.081165  0  1.012528  0  0  0.0836  0  1.010332  0  0  0.109024  0.079345  0  1.014311  0
H  H6  1  0.96214357  0.53605065  0.61467216  1  0  0.074017  0  0.944387  0  0  0.081135  0  1.01252  0  0  0.083569  0  1.010326  0  0  0.109006  0.079314  0  1.014303  0
H  H7  1  0.45561568  0.26712235  0.57390406  1  0  0.082051  0  0.9388  0  0  0.09085  0  1.00352  0  0  0.093163  0  1.001342  0  0  0.112777  0.089177  0  1.005073  0
H  H8  1  0.54438643  0.73288100  0.42609443  1  0  0.082047  0  0.938761  0  0  0.090858  0  1.003472  0  0  0.09317  0  1.001296  0  0  0.112767  0.089183  0  1.005026  0
H  H9  1  0.63842086  0.36514600  0.39411699  1  0  0.120453  0  0.969257  0  0  0.127498  0  1.033525  0  0  0.131199  0  1.031564  0  0  0.101051  0.124774  0  1.035124  0
H  H10  1  0.36157820  0.63485238  0.60587983  1  0  0.120465  0  0.969198  0  0  0.12749  0  1.033482  0  0  0.131191  0  1.031516  0  0  0.101021  0.124764  0  1.035084  0
H  H11  1  0.98445316  0.61641298  0.92462425  1  0  0.124425  0  0.976065  0  0  0.123694  0  1.051709  0  0  0.128198  0  1.048833  0  0  0.109224  0.120484  0  1.053908  0
H  H12  1  0.01554681  0.38358839  0.07537503  1  0  0.124466  0  0.97604  0  0  0.123742  0  1.051668  0  0  0.128246  0  1.048791  0  0  0.109236  0.120532  0  1.053867  0
H  H13  1  0.10145415  0.76214731  0.73068638  1  0  0.081785  0  0.964377  0  0  0.083222  0  1.041647  0  0  0.086321  0  1.038406  0  0  0.105649  0.080948  0  1.044091  0
H  H14  1  0.89854357  0.23785206  0.26931111  1  0  0.081781  0  0.964411  0  0  0.08319  0  1.041711  0  0  0.086289  0  1.038471  0  0  0.105656  0.080916  0  1.044154  0
H  H15  1  0.63949009  0.95319512  0.62019109  1  0  0.08303  0  0.938745  0  0  0.088784  0  1.007566  0  0  0.091443  0  1.004521  0  0  0.108968  0.086837  0  1.009823  0
H  H16  1  0.36051007  0.04680426  0.37980620  1  0  0.083037  0  0.938765  0  0  0.088784  0  1.007593  0  0  0.091443  0  1.004549  0  0  0.108967  0.086837  0  1.009851  0
H  H17  1  0.50166076  0.81337649  0.80620274  1  0  0.11495  0  0.96768  0  0  0.121384  0  1.036229  0  0  0.124473  0  1.034876  0  0  0.105041  0.119157  0  1.037374  0
H  H18  1  0.49834042  0.18662488  0.19379644  1  0  0.114965  0  0.967682  0  0  0.121418  0  1.036191  0  0  0.124509  0  1.034835  0  0  0.105049  0.119191  0  1.037336  0
H  H19  1  0.27695327  0.74492808  0.93078386  1  0  0.119242  0  0.964574  0  0  0.12506  0  1.033577  0  0  0.128489  0  1.030285  0  0  0.112672  0.122534  0  1.035978  0
H  H20  1  0.72304788  0.25507430  0.06921761  1  0  0.119335  0  0.964441  0  0  0.125145  0  1.033444  0  0  0.128576  0  1.030147  0  0  0.112711  0.122618  0  1.035845  0
H  H21  1  0.11706298  0.96210447  0.92833912  1  0  0.096366  0  0.960363  0  0  0.105834  0  1.023564  0  0  0.10831  0  1.023595  0  0  0.100204  0.103995  0  1.023789  0
H  H22  1  0.88293390  0.03789497  0.07166797  1  0  0.096425  0  0.960497  0  0  0.10585  0  1.023719  0  0  0.108355  0  1.02372  0  0  0.100231  0.104011  0  1.023943  0
H  H23  1  0.19417132  0.07639204  0.06800851  1  0  0.065615  0  0.96398  0  0  0.071021  0  1.034299  0  0  0.072907  0  1.03388  0  0  0.100119  0.069674  0  1.034636  0
H  H24  1  0.80582574  0.92360641  0.93199975  1  0  0.065612  0  0.963988  0  0  0.07102  0  1.034301  0  0  0.072903  0  1.033888  0  0  0.100102  0.069674  0  1.034634  0
H  H25  1  0.57398855  0.78160449  0.20519854  1  0  0.072129  0  0.97084  0  0  0.075281  0  1.048351  0  0  0.078379  0  1.044889  0  0  0.098646  0.072996  0  1.050924  0
H  H26  1  0.42601190  0.21839393  0.79480250  1  0  0.072108  0  0.97081  0  0  0.075251  0  1.048347  0  0  0.078353  0  1.044878  0  0  0.098632  0.072967  0  1.05092  0
C  C27  1  0.26502640  0.50767710  0.28028257  1  0  -0.136897  0  3.686248  0  0  -0.158798  0  3.934481  0  0  -0.165268  0  3.955615  0  0  -0.078821  -0.154323  0  3.920148  0
C  C28  1  0.73497383  0.49232229  0.71971645  1  0  -0.136862  0  3.686274  0  0  -0.158768  0  3.934479  0  0  -0.165236  0  3.955616  0  0  -0.078809  -0.15429  0  3.920149  0
C  C29  1  0.17178705  0.44710528  0.38513055  1  0  0.131818  0  3.70836  0  0  0.101891  0  3.960724  0  0  0.108371  0  3.979845  0  0  0.04264  0.09754  0  3.947954  0
C  C30  1  0.82821432  0.55289511  0.61486979  1  0  0.131821  0  3.708315  0  0  0.101892  0  3.960676  0  0  0.108372  0  3.979795  0  0  0.042642  0.097543  0  3.947906  0
C  C31  1  0.40402238  0.33636875  0.48984975  1  0  0.129366  0  3.709175  0  0  0.099268  0  3.958086  0  0  0.105765  0  3.97711  0  0  0.042035  0.094992  0  3.944758  0
C  C32  1  0.59597651  0.66363163  0.51014994  1  0  0.129406  0  3.709162  0  0  0.099298  0  3.958061  0  0  0.105794  0  3.977089  0  0  0.042071  0.095023  0  3.944732  0
C  C33  1  0.50599413  0.39108928  0.38927925  1  0  -0.126147  0  3.680389  0  0  -0.146042  0  3.921669  0  0  -0.152302  0  3.941953  0  0  -0.076107  -0.141682  0  3.907491  0
C  C34  1  0.49400754  0.60890915  0.61072169  1  0  -0.126189  0  3.680423  0  0  -0.146067  0  3.921651  0  0  -0.152323  0  3.941927  0  0  -0.076105  -0.141708  0  3.907483  0
C  C35  1  0.43613961  0.47634971  0.28075257  1  0  0.059969  0  3.774712  0  0  0.073918  0  4.009536  0  0  0.076697  0  4.030016  0  0  0.017638  0.072036  0  3.995333  0
C  C36  1  0.56386092  0.52364771  0.71924704  1  0  0.059971  0  3.774744  0  0  0.073962  0  4.009462  0  0  0.076737  0  4.029935  0  0  0.01763  0.072075  0  3.99527  0
C  C37  1  0.54627349  0.51376420  0.17184480  1  0  0.243851  0  3.72965  0  0  0.211276  0  4.004878  0  0  0.22252  0  4.018668  0  0  0.222737  0.203979  0  3.995313  0
C  C38  1  0.45372793  0.48623519  0.82815325  1  0  0.243807  0  3.729699  0  0  0.211239  0  4.0049  0  0  0.222497  0  4.018668  0  0  0.222753  0.203942  0  3.995339  0
C  C39  1  0.67031038  0.61051942  0.99598933  1  0  0.257188  0  3.704986  0  0  0.223673  0  3.980489  0  0  0.235522  0  3.993685  0  0  0.225634  0.215843  0  3.971375  0
C  C40  1  0.32969063  0.38948293  0.00400869  1  0  0.257169  0  3.705058  0  0  0.223629  0  3.980597  0  0  0.235477  0  3.993795  0  0  0.225622  0.215801  0  3.971482  0
C  C41  1  0.73213375  0.70303026  0.88281893  1  0  0.053875  0  3.765632  0  0  0.066607  0  4.003735  0  0  0.069473  0  4.023147  0  0  0.015099  0.064949  0  3.99028  0
C  C42  1  0.26786592  0.29697308  0.11717976  1  0  0.053959  0  3.76557  0  0  0.066726  0  4.003623  0  0  0.069593  0  4.023033  0  0  0.015132  0.065065  0  3.990171  0
C  C43  1  0.90350714  0.68926354  0.85931535  1  0  -0.125261  0  3.660914  0  0  -0.143371  0  3.905588  0  0  -0.149496  0  3.924865  0  0  -0.076662  -0.139325  0  3.892715  0
C  C44  1  0.09649157  0.31073782  0.14068317  1  0  -0.125321  0  3.660916  0  0  -0.143445  0  3.905581  0  0  -0.149569  0  3.924855  0  0  -0.076676  -0.139401  0  3.892716  0
C  C45  1  0.96939861  0.77056393  0.75147026  1  0  0.120189  0  3.70741  0  0  0.091075  0  3.954308  0  0  0.09713  0  3.973858  0  0  0.03623  0.086984  0  3.941235  0
C  C46  1  0.03060144  0.22943644  0.24852759  1  0  0.120241  0  3.707401  0  0  0.091142  0  3.954317  0  0  0.097192  0  3.973872  0  0  0.036249  0.087052  0  3.941247  0
C  C47  1  0.71134844  0.87710009  0.68969913  1  0  0.149536  0  3.69143  0  0  0.114716  0  3.950247  0  0  0.122988  0  3.966679  0  0  0.050322  0.109271  0  3.939189  0
C  C48  1  0.28865054  0.12289930  0.31029912  1  0  0.149502  0  3.69152  0  0  0.114677  0  3.950341  0  0  0.12295  0  3.966771  0  0  0.050311  0.109234  0  3.939287  0
C  C49  1  0.63474557  0.79859356  0.79532590  1  0  -0.126537  0  3.674683  0  0  -0.150759  0  3.930699  0  0  -0.15605  0  3.949038  0  0  -0.074933  -0.14756  0  3.918375  0
C  C50  1  0.36525422  0.20140879  0.20467222  1  0  -0.12657  0  3.674661  0  0  -0.150788  0  3.930635  0  0  -0.15608  0  3.948974  0  0  -0.074956  -0.14759  0  3.918312  0
C  C51  1  0.43604198  0.74975902  0.06883506  1  0  0.12421  0  3.752874  0  0  0.122542  0  4.000501  0  0  0.122411  0  4.024011  0  0  0.088145  0.122205  0  3.984708  0
C  C52  1  0.56395872  0.25023843  0.93116887  1  0  0.124234  0  3.75288  0  0  0.122573  0  4.000507  0  0  0.12244  0  4.024019  0  0  0.088132  0.122237  0  3.984717  0
C  C53  1  0.30653501  0.79873533  0.98982043  1  0  -0.080077  0  3.692334  0  0  -0.107011  0  3.943254  0  0  -0.104713  0  3.959963  0  0  -0.06791  -0.108275  0  3.932022  0
C  C54  1  0.69346421  0.20126410  0.01018387  1  0  -0.080295  0  3.692381  0  0  -0.107221  0  3.943305  0  0  -0.104927  0  3.96003  0  0  -0.067962  -0.108481  0  3.932076  0
C  C55  1  0.21778571  0.91817506  0.98961261  1  0  -0.099751  0  3.748309  0  0  -0.110382  0  3.995237  0  0  -0.117403  0  4.018142  0  0  -0.083616  -0.105815  0  3.979935  0
C  C56  1  0.78221266  0.08182240  0.01039412  1  0  -0.099749  0  3.748471  0  0  -0.110352  0  3.995426  0  0  -0.117398  0  4.018313  0  0  -0.083662  -0.105786  0  3.980126  0
C  C57  1  0.26098344  0.98168339  0.06821631  1  0  0.110629  0  3.728409  0  0  0.085373  0  3.985807  0  0  0.090916  0  4.004291  0  0  0.040319  0.081804  0  3.973193  0
C  C58  1  0.73901378  0.01831408  0.93179224  1  0  0.110695  0  3.728371  0  0  0.085438  0  3.985774  0  0  0.090979  0  4.004266  0  0  0.040362  0.081874  0  3.973154  0
C  C59  1  0.47040876  0.81956478  0.14515383  1  0  0.048782  0  3.729456  0  0  0.017506  0  3.989674  0  0  0.022267  0  4.006391  0  0  0.041786  0.014321  0  3.978759  0
C  C60  1  0.52959179  0.18043366  0.85484980  1  0  0.048843  0  3.7295  0  0  0.017588  0  3.989686  0  0  0.022336  0  4.006428  0  0  0.04177  0.014402  0  3.978775  0
N  N61  1  0.23885298  0.36182927  0.48775694  1  0  -0.33703  0  3.285412  0  0  -0.255688  0  3.55032  0  0  -0.275359  0  3.569863  0  0  -0.336941  -0.242023  0  3.536726  0
N  N62  1  0.76114780  0.63817507  0.51224221  1  0  -0.33707  0  3.285351  0  0  -0.255754  0  3.550298  0  0  -0.275425  0  3.569842  0  0  -0.336975  -0.242088  0  3.536704  0
N  N63  1  0.67191234  0.42991277  0.15237847  1  0  -0.260299  0  2.958621  0  0  -0.241248  0  3.253844  0  0  -0.249833  0  3.267183  0  0  -0.214198  -0.235375  0  3.244598  0
N  N64  1  0.32808904  0.57008662  0.84761872  1  0  -0.260234  0  2.958675  0  0  -0.241179  0  3.253889  0  0  -0.24977  0  3.267227  0  0  -0.214155  -0.235306  0  3.244643  0
N  N65  1  0.74852211  0.49009826  0.04308143  1  0  -0.24885  0  2.967573  0  0  -0.22815  0  3.262706  0  0  -0.236933  0  3.275996  0  0  -0.209937  -0.222134  0  3.253632  0
N  N66  1  0.25147779  0.50990310  0.95691613  1  0  -0.248914  0  2.967582  0  0  -0.228204  0  3.262717  0  0  -0.236989  0  3.276017  0  0  -0.209969  -0.222186  0  3.253641  0
N  N67  1  0.53787058  0.62907960  0.07375840  1  0  -0.18132  0  3.482564  0  0  -0.100514  0  3.697298  0  0  -0.11648  0  3.720659  0  0  -0.202924  -0.089905  0  3.681513  0
N  N68  1  0.46213076  0.37092079  0.92624108  1  0  -0.181275  0  3.482523  0  0  -0.100508  0  3.697306  0  0  -0.116476  0  3.720663  0  0  -0.202949  -0.089899  0  3.681522  0
N  N69  1  0.87484228  0.86364391  0.66820712  1  0  -0.339298  0  3.328319  0  0  -0.25279  0  3.582706  0  0  -0.274909  0  3.606506  0  0  -0.339809  -0.237621  0  3.566357  0
N  N70  1  0.12515789  0.13635547  0.33179017  1  0  -0.339323  0  3.328329  0  0  -0.252809  0  3.582706  0  0  -0.27493  0  3.606512  0  0  -0.339814  -0.237632  0  3.566332  0
N  N71  1  0.38437754  0.93361346  0.14548469  1  0  -0.287413  0  3.098036  0  0  -0.248003  0  3.36482  0  0  -0.260891  0  3.384058  0  0  -0.317123  -0.239178  0  3.351606  0
N  N72  1  0.61562197  0.06638399  0.85452021  1  0  -0.287492  0  3.098042  0  0  -0.248088  0  3.364837  0  0  -0.260972  0  3.384072  0  0  -0.31706  -0.239261  0  3.351618  0
Cl  Cl73  1  0.83799046  0.21377684  0.55573836  1  0  -0.531062  0  0.993676  0  0  -0.461392  0  1.273786  0  0  -0.480037  0  1.253176  0  0  -0.290529  -0.448166  0  1.287916  0
Cl  Cl74  1  0.16201284  0.78622550  0.44425600  1  0  -0.531078  0  0.993686  0  0  -0.461415  0  1.273813  0  0  -0.48006  0  1.253206  0  0  -0.29052  -0.448181  0  1.287928  0
Cl  Cl75  1  0.24589379  0.00859518  0.64278321  1  0  -0.535057  0  0.93356  0  0  -0.46188  0  1.201752  0  0  -0.480392  0  1.180657  0  0  -0.293441  -0.44863  0  1.216025  0
Cl  Cl76  1  0.75410753  0.99140419  0.35721225  1  0  -0.535053  0  0.933547  0  0  -0.461874  0  1.201718  0  0  -0.480381  0  1.180618  0  0  -0.293446  -0.448625  0  1.215992  0
Cl  Cl77  1  0.09740239  0.29202438  0.82996167  1  0  -0.550934  0  0.915909  0  0  -0.48193  0  1.180819  0  0  -0.500086  0  1.163321  0  0  -0.313658  -0.468801  0  1.192766  0
Cl  Cl78  1  0.90259832  0.70797206  0.17003910  1  0  -0.550926  0  0.915938  0  0  -0.481951  0  1.180871  0  0  -0.500104  0  1.163367  0  0  -0.313664  -0.468821  0  1.192812  0
