# generated using pymatgen
data_CuH10C14(BrO2)4
_symmetry_space_group_name_H-M   'P 1'
_cell_length_a   4.52683250
_cell_length_b   13.08043016
_cell_length_c   16.42044712
_cell_angle_alpha   107.06122679
_cell_angle_beta   97.88592705
_cell_angle_gamma   90.02463529
_symmetry_Int_Tables_number   1
_chemical_formula_structural   CuH10C14(BrO2)4
_chemical_formula_sum   'Cu2 H20 C28 Br8 O16'
_cell_volume   919.87288842
_cell_formula_units_Z   2
loop_
 _symmetry_equiv_pos_site_id
 _symmetry_equiv_pos_as_xyz
  1  'x, y, z'
loop_
 _atom_site_type_symbol
 _atom_site_label
 _atom_site_symmetry_multiplicity
 _atom_site_fract_x
 _atom_site_fract_y
 _atom_site_fract_z
 _atom_site_occupancy
 _atom_site_hle17_ddec_charge
 _atom_site_hle17_ddec_spin_density
 _atom_site_hle17_ddec_sum_bond_order
 _atom_site_hle17_magmom
 _atom_site_hse06_10hf_ddec_charge
 _atom_site_hse06_10hf_ddec_spin_density
 _atom_site_hse06_10hf_ddec_sum_bond_order
 _atom_site_hse06_10hf_magmom
 _atom_site_hse06_ddec_charge
 _atom_site_hse06_ddec_spin_density
 _atom_site_hse06_ddec_sum_bond_order
 _atom_site_hse06_magmom
 _atom_site_pbe_cm5_charge
 _atom_site_pbe_ddec_charge
 _atom_site_pbe_ddec_spin_density
 _atom_site_pbe_ddec_sum_bond_order
 _atom_site_pbe_magmom
Cu  Cu0  1  0.50000317  0.49999893  0.00000078  1  1.026393  0.743027  1.619929  0.537  1.024772  0.839127  2.003457  0.667  1.106916  0.904627  1.94588  0.747  0.711922  0.962375  0.78856  2.056789  0.611
Cu  Cu1  1  0.50000768  0.00000066  0.99999986  1  1.025292  -0.743076  1.619636  -0.537  1.024023  -0.839155  2.003079  -0.666  1.105923  -0.904664  1.945753  -0.747  0.711782  0.961757  -0.788547  2.056168  -0.611
H  H2  1  0.65093662  0.67941192  0.10981123  1  0.430906  8.7e-05  0.867664  -0.001  0.4003  0.000655  0.932119  0.001  0.412735  0.000432  0.914163  0.0  0.295981  0.391303  0.000813  0.945079  0.001
H  H3  1  0.54210037  0.82079041  0.89018414  1  0.430006  -8.8e-05  0.869261  0.001  0.399955  -0.000651  0.932865  -0.001  0.412329  -0.00043  0.914965  0.0  0.295894  0.390988  -0.000809  0.945808  -0.001
H  H4  1  0.34907321  0.32058712  0.89018913  1  0.430849  8.7e-05  0.867758  -0.001  0.400239  0.000655  0.932216  0.001  0.412674  0.000432  0.91426  0.0  0.295961  0.391244  0.000813  0.945174  0.001
H  H5  1  0.45790055  0.17920862  0.10981526  1  0.430008  -8.8e-05  0.869267  0.001  0.399959  -0.000651  0.932867  -0.001  0.412333  -0.000429  0.914967  0.0  0.295903  0.390989  -0.000809  0.945807  -0.001
H  H6  1  0.89326313  0.63882250  0.04316346  1  0.422814  -6.4e-05  0.883318  -0.001  0.392755  0.000535  0.94636  0.0  0.404987  0.000309  0.928944  0.0  0.292989  0.383986  0.000712  0.958804  0.0
H  H7  1  0.85055372  0.86140937  0.95696959  1  0.422701  6.3e-05  0.883807  0.001  0.392525  -0.000535  0.946611  0.0  0.40473  -0.000309  0.929241  0.0  0.292858  0.383766  -0.000712  0.959033  0.0
H  H8  1  0.10674448  0.36117654  0.95683620  1  0.422851  -6.4e-05  0.883329  -0.001  0.392816  0.000535  0.946283  0.0  0.405046  0.000309  0.928871  0.0  0.293024  0.384045  0.000712  0.958729  0.0
H  H9  1  0.14944924  0.13858807  0.04303014  1  0.422703  6.3e-05  0.8838  0.001  0.392528  -0.000535  0.946605  0.0  0.404734  -0.000309  0.929235  0.0  0.292884  0.383767  -0.000712  0.959029  0.0
H  H10  1  0.76821807  0.30825511  0.08287945  1  0.390213  -3.5e-05  0.896876  0.0  0.362141  -6.2e-05  0.968066  0.0  0.373494  -4.6e-05  0.956616  0.0  0.304776  0.354124  -7e-05  0.976022  0.0
H  H11  1  0.68631176  0.19141506  0.91697660  1  0.391958  3.5e-05  0.894859  0.0  0.362404  6.3e-05  0.968576  0.0  0.373853  4.6e-05  0.956928  0.0  0.304885  0.354331  7e-05  0.976615  0.0
H  H12  1  0.23178721  0.69174313  0.91712055  1  0.390225  -3.5e-05  0.896874  0.0  0.362157  -6.2e-05  0.968049  0.0  0.373508  -4.6e-05  0.956603  0.0  0.304814  0.354143  -7e-05  0.976002  0.0
H  H13  1  0.31369119  0.80858238  0.08302312  1  0.391798  3.5e-05  0.895034  0.0  0.362323  6.3e-05  0.968611  0.0  0.373773  4.6e-05  0.956964  0.0  0.304842  0.35425  7e-05  0.976652  0.0
H  H14  1  0.88032611  0.44868616  0.42284347  1  0.111191  1.7e-05  0.974557  0.0  0.117749  -3e-06  1.045605  0.0  0.121559  -2e-06  1.041787  0.0  0.092074  0.114995  -2e-06  1.048347  0.0
H  H15  1  0.45945366  0.05130430  0.57702076  1  0.111249  -1.8e-05  0.975551  0.0  0.11793  3e-06  1.046037  0.0  0.121831  1e-06  1.042141  0.0  0.091983  0.115114  2e-06  1.048834  0.0
H  H16  1  0.11966840  0.55131528  0.57715686  1  0.111176  1.8e-05  0.974591  0.0  0.117737  -3e-06  1.045645  0.0  0.121547  -2e-06  1.04183  0.0  0.092071  0.114983  -2e-06  1.048383  0.0
H  H17  1  0.54054957  0.94869555  0.42298074  1  0.111258  -1.9e-05  0.975478  0.0  0.117918  3e-06  1.046002  0.0  0.121816  1e-06  1.042109  0.0  0.091971  0.1151  2e-06  1.048802  0.0
H  H18  1  0.33686340  0.57963370  0.25837414  1  0.115524  0.000282  0.960123  0.0  0.11934  0.000194  1.033349  0.0  0.123725  0.00012  1.029277  0.0  0.097967  0.116142  0.000262  1.036379  0.0
H  H19  1  0.07992579  0.92023539  0.74128100  1  0.115159  -0.000281  0.959898  0.0  0.119357  -0.000193  1.032718  0.0  0.123838  -0.00012  1.028528  0.0  0.098076  0.11609  -0.00026  1.035838  0.0
H  H20  1  0.66312024  0.42037014  0.74162511  1  0.115632  0.000284  0.959975  0.0  0.119383  0.000193  1.033277  0.0  0.123769  0.00012  1.029201  0.0  0.097967  0.116185  0.000262  1.03631  0.0
H  H21  1  0.92008210  0.07976605  0.25871923  1  0.11516  -0.000277  0.959859  0.0  0.119361  -0.000193  1.032682  0.0  0.12384  -0.00012  1.028491  0.0  0.098074  0.116091  -0.000259  1.035797  0.0
C  C22  1  0.10991158  0.43636820  0.10773123  1  0.6801  -0.002852  3.832264  -0.006  0.630559  0.000653  4.133231  -0.001  0.670353  0.000234  4.123222  -0.001  0.217151  0.603234  0.000957  4.138404  -0.002
C  C23  1  0.00313234  0.06340168  0.89207551  1  0.680219  0.00285  3.832845  0.006  0.630004  -0.000651  4.134846  0.001  0.669804  -0.000228  4.124815  0.001  0.217037  0.602679  -0.000955  4.140028  0.002
C  C24  1  0.89009370  0.56363004  0.89226816  1  0.680056  -0.002842  3.83225  -0.006  0.630447  0.000653  4.133306  -0.001  0.670235  0.000234  4.123301  -0.001  0.217067  0.603123  0.000957  4.138488  -0.002
C  C25  1  0.99688020  0.93660136  0.10792405  1  0.68017  0.002852  3.832911  0.006  0.629944  -0.00065  4.134921  0.001  0.669745  -0.000228  4.12489  0.001  0.21699  0.60262  -0.000956  4.140092  0.002
C  C26  1  0.03921146  0.44268703  0.19453070  1  -0.177172  0.008394  3.73562  0.009  -0.159869  0.004645  3.981876  0.005  -0.174444  0.0033  4.004146  0.004  -0.033385  -0.150365  0.005744  3.967132  0.006
C  C27  1  0.84625756  0.05714825  0.80527404  1  -0.176561  -0.008485  3.73389  -0.009  -0.15892  -0.004653  3.980282  -0.005  -0.173463  -0.003305  4.002467  -0.004  -0.033097  -0.149501  -0.005763  3.96572  -0.006
C  C28  1  0.96078062  0.55731282  0.80546977  1  -0.177077  0.008391  3.735576  0.009  -0.159789  0.004645  3.981908  0.005  -0.174367  0.003298  4.004195  0.004  -0.033345  -0.150282  0.005743  3.967173  0.006
C  C29  1  0.15373908  0.94285239  0.19472558  1  -0.176668  -0.008483  3.733874  -0.009  -0.159031  -0.004653  3.980331  -0.005  -0.173577  -0.003304  4.002515  -0.004  -0.033146  -0.149613  -0.005764  3.965756  -0.006
C  C30  1  0.83487841  0.36624911  0.20384446  1  0.2961  -0.000674  3.789154  0.0  0.265165  0.000434  4.05982  0.001  0.279402  0.000139  4.075131  0.0  0.084171  0.255464  0.000626  4.049508  0.001
C  C31  1  0.63282732  0.13360399  0.79601616  1  0.294877  0.000682  3.789588  0.0  0.264268  -0.000434  4.059831  -0.001  0.278527  -0.000135  4.075182  0.0  0.083288  0.254571  -0.000632  4.049527  -0.001
C  C32  1  0.16512047  0.63375152  0.79615463  1  0.296075  -0.000665  3.789088  0.0  0.265115  0.000432  4.059753  0.001  0.279352  0.000139  4.07506  0.0  0.0842  0.255414  0.000626  4.049462  0.001
C  C33  1  0.36716894  0.86639345  0.20398392  1  0.295074  0.000679  3.789413  0.0  0.264395  -0.000432  4.059713  -0.001  0.278658  -0.000137  4.07506  0.0  0.083316  0.254696  -0.000632  4.049399  -0.001
C  C34  1  0.78423301  0.36964278  0.28707790  1  -0.019512  -0.000254  3.702826  0.0  -0.004455  0.000358  3.976754  0.0  -0.007046  0.000352  3.997444  0.0  -0.031596  -0.003104  0.000326  3.962987  0.0
C  C35  1  0.49915134  0.13028683  0.71280752  1  -0.018608  0.000322  3.701518  0.0  -0.004353  -0.000355  3.976338  0.0  -0.00697  -0.000354  3.997065  0.0  -0.031636  -0.00299  -0.000316  3.962557  0.0
C  C36  1  0.21575898  0.63035625  0.71292055  1  -0.019515  -0.000252  3.702888  0.0  -0.004408  0.000359  3.976754  0.0  -0.006998  0.00035  3.997443  0.0  -0.031583  -0.00306  0.000326  3.963  0.0
C  C37  1  0.50084996  0.86971541  0.28719325  1  -0.018748  0.000325  3.701467  0.0  -0.004409  -0.000355  3.976205  0.0  -0.007026  -0.000351  3.996929  0.0  -0.031616  -0.00304  -0.000315  3.962409  0.0
C  C38  1  0.92349110  0.44808242  0.35912158  1  -0.128663  -0.000817  3.774219  -0.001  -0.161318  -0.000478  4.025869  0.0  -0.158633  -0.000478  4.043879  0.0  -0.100824  -0.162839  -0.000495  4.013742  0.0
C  C39  1  0.56632278  0.05191552  0.64071444  1  -0.128638  0.000845  3.775123  0.001  -0.161004  0.00048  4.026968  0.0  -0.158402  0.000482  4.044976  0.0  -0.100323  -0.162465  0.000495  4.014837  0.0
C  C40  1  0.07649217  0.55191821  0.64087691  1  -0.128689  -0.000828  3.774264  -0.001  -0.16134  -0.000478  4.025813  0.0  -0.15866  -0.000476  4.043827  0.0  -0.100802  -0.16285  -0.000495  4.013684  0.0
C  C41  1  0.43367201  0.94808832  0.35928585  1  -0.128506  0.000851  3.774943  0.001  -0.160909  0.000479  4.026791  0.0  -0.158304  0.000479  4.044802  0.0  -0.100259  -0.162377  0.000495  4.014662  0.0
C  C42  1  0.12003668  0.52399607  0.34820226  1  0.075406  -0.000351  3.727221  0.0  0.093122  9.1e-05  3.998933  0.0  0.091788  0.000184  4.021107  0.0  -0.031772  0.093634  -1.7e-05  3.984012  0.0
C  C43  1  0.77348545  0.97592630  0.65157110  1  0.075826  0.000227  3.726132  0.0  0.093437  -9.5e-05  3.99804  0.0  0.092068  -0.000186  4.020312  0.0  -0.031592  0.093976  3e-06  3.983074  0.0
C  C44  1  0.87995114  0.47600537  0.65179720  1  0.075369  -0.000336  3.727139  0.0  0.093102  9e-05  3.998831  0.0  0.091772  0.000182  4.021  0.0  -0.03183  0.093616  -1.6e-05  3.983904  0.0
C  C45  1  0.22651632  0.02407993  0.34842695  1  0.075725  0.000226  3.72613  0.0  0.093368  -9.4e-05  3.997982  0.0  0.091999  -0.000183  4.020247  0.0  -0.0316  0.093904  4e-06  3.983025  0.0
C  C46  1  0.18056018  0.52178075  0.26713207  1  -0.081766  -0.00217  3.726933  -0.002  -0.119073  -0.000272  3.982513  0.0  -0.113953  -0.000336  3.999226  0.0  -0.093988  -0.122284  -0.0003  3.971429  0.0
C  C47  1  0.91498379  0.97811067  0.73261116  1  -0.082249  0.00222  3.72488  0.002  -0.119713  0.000273  3.980555  0.0  -0.114626  0.00034  3.997152  0.0  -0.094576  -0.122838  0.000294  3.96943  0.0
C  C48  1  0.81943433  0.47822068  0.73286765  1  -0.081886  -0.002188  3.726896  -0.002  -0.119152  -0.00027  3.982474  0.0  -0.11403  -0.000335  3.999183  0.0  -0.09401  -0.122359  -0.0003  3.971398  0.0
C  C49  1  0.08501732  0.02188996  0.26738619  1  -0.082216  0.002205  3.724767  0.002  -0.119688  0.000272  3.980429  0.0  -0.114604  0.000338  3.997036  0.0  -0.094608  -0.122808  0.000294  3.969284  0.0
Br  Br50  1  0.31402942  0.63056752  0.44730506  1  -0.073324  -0.000406  1.354562  0.0  -0.07317  -0.0  1.63436  0.0  -0.076931  6e-06  1.62751  0.0  0.028306  -0.070383  -3.2e-05  1.639285  0.0
Br  Br51  1  0.86767214  0.86930112  0.55236505  1  -0.07415  0.000481  1.354551  0.0  -0.073902  4e-06  1.634487  0.0  -0.077679  -5e-06  1.627662  0.0  0.027969  -0.07113  4.1e-05  1.639385  0.0
Br  Br52  1  0.68595384  0.36943312  0.55269405  1  -0.073285  -0.000408  1.354494  0.0  -0.073145  -0.0  1.634284  0.0  -0.076904  6e-06  1.627428  0.0  0.028335  -0.070355  -3.2e-05  1.639206  0.0
Br  Br53  1  0.13232441  0.13069871  0.44763498  1  -0.074123  0.000483  1.354564  0.0  -0.073887  4e-06  1.634485  0.0  -0.077664  -5e-06  1.62766  0.0  0.027968  -0.071117  4.1e-05  1.639375  0.0
Br  Br54  1  0.53225640  0.26165998  0.30058210  1  -0.002078  -0.001124  1.370066  -0.001  0.005395  -0.000191  1.644835  0.0  -0.000418  -6.1e-05  1.639927  0.0  0.070424  0.009789  -0.000455  1.648449  0.0
Br  Br55  1  0.23369143  0.23824901  0.69941293  1  -0.002411  0.00119  1.370558  0.001  0.005459  0.000187  1.645502  0.0  -0.000362  6e-05  1.640646  0.0  0.070519  0.009841  0.000452  1.649131  0.0
Br  Br56  1  0.46774404  0.73833506  0.69941697  1  -0.002075  -0.001124  1.370123  -0.001  0.005374  -0.000191  1.644877  0.0  -0.000438  -6.2e-05  1.639968  0.0  0.07042  0.009783  -0.000455  1.648496  0.0
Br  Br57  1  0.76629833  0.76175004  0.30059092  1  -0.002384  0.001188  1.370567  0.001  0.005457  0.000187  1.645502  0.0  -0.000363  6e-05  1.640646  0.0  0.070502  0.009837  0.000451  1.649127  0.0
O  O58  1  0.32800811  0.49439027  0.10231164  1  -0.577127  0.083579  2.072174  0.111  -0.547242  0.052208  2.357893  0.076  -0.587919  0.039047  2.34794  0.06  -0.31377  -0.517781  0.061328  2.363799  0.085
O  O59  1  0.22653146  0.00544139  0.89754179  1  -0.576297  -0.083523  2.072128  -0.111  -0.546981  -0.052158  2.359403  -0.076  -0.587532  -0.039012  2.349269  -0.06  -0.313576  -0.517607  -0.061261  2.365389  -0.085
O  O60  1  0.67199765  0.50561197  0.89768869  1  -0.57718  0.08357  2.072329  0.111  -0.547256  0.052207  2.358056  0.076  -0.58793  0.039046  2.348103  0.06  -0.313733  -0.517796  0.061319  2.363967  0.085
O  O61  1  0.77347178  0.99455844  0.10245728  1  -0.576299  -0.083532  2.072182  -0.111  -0.546966  -0.052164  2.359428  -0.076  -0.587517  -0.039015  2.349293  -0.06  -0.313574  -0.517591  -0.061271  2.365407  -0.086
O  O62  1  0.94897921  0.37079784  0.04198188  1  -0.646407  -0.001101  2.050048  0.0  -0.597648  -0.001218  2.287742  0.0  -0.623022  -0.001604  2.271449  -0.001  -0.312067  -0.57906  -0.000732  2.297927  0.0
O  O63  1  0.90741208  0.12889585  0.95780139  1  -0.646284  0.001075  2.048872  0.0  -0.596681  0.001207  2.287346  0.0  -0.622035  0.001599  2.270994  0.001  -0.311917  -0.578061  0.000715  2.297509  0.0
O  O64  1  0.05101976  0.62920360  0.95801801  1  -0.646372  -0.001102  2.049882  0.0  -0.597563  -0.001218  2.287593  0.0  -0.622934  -0.001604  2.271304  -0.001  -0.312043  -0.578968  -0.000732  2.297778  0.0
O  O65  1  0.09259097  0.87110239  0.04219913  1  -0.646201  0.001075  2.048924  0.0  -0.596594  0.001206  2.287322  0.0  -0.621949  0.001599  2.270973  0.001  -0.311885  -0.577982  0.000715  2.297486  0.0
O  O66  1  0.76052033  0.61686581  0.08006208  1  -0.806685  0.067877  1.998056  0.088  -0.773163  0.049175  2.222746  0.068  -0.805513  0.038621  2.185302  0.057  -0.580538  -0.749965  0.055699  2.249401  0.074
O  O67  1  0.68136822  0.88334884  0.91998929  1  -0.806419  -0.067946  2.000762  -0.088  -0.772809  -0.049197  2.225093  -0.068  -0.805079  -0.038641  2.187887  -0.057  -0.580552  -0.749683  -0.055715  2.251577  -0.074
O  O68  1  0.23949620  0.38313323  0.91993852  1  -0.806671  0.067876  1.998191  0.088  -0.773134  0.049175  2.222807  0.068  -0.805488  0.03862  2.185375  0.057  -0.580542  -0.749936  0.055697  2.249462  0.074
O  O69  1  0.31863697  0.11664860  0.08000991  1  -0.806422  -0.067945  2.000782  -0.088  -0.77281  -0.049197  2.225108  -0.068  -0.805083  -0.038641  2.187904  -0.057  -0.580585  -0.749678  -0.05572  2.251597  -0.074
O  O70  1  0.69557434  0.29031260  0.13420999  1  -0.521833  -0.001895  2.186885  -0.003  -0.462669  -0.000711  2.403505  -0.001  -0.483329  -0.000456  2.393484  -0.001  -0.341468  -0.447739  -0.001073  2.410048  -0.001
O  O71  1  0.56274045  0.20943749  0.86566185  1  -0.523893  0.001891  2.186934  0.003  -0.463293  0.00071  2.404176  0.001  -0.484081  0.000459  2.394113  0.001  -0.341536  -0.448316  0.001066  2.410782  0.001
O  O72  1  0.30442870  0.70968564  0.86579114  1  -0.521833  -0.001897  2.186888  -0.003  -0.462666  -0.000711  2.403524  -0.001  -0.483327  -0.000456  2.393501  -0.001  -0.341502  -0.447732  -0.001073  2.410071  -0.001
O  O73  1  0.43726037  0.79056075  0.13433858  1  -0.523839  0.001891  2.187028  0.003  -0.46327  0.000711  2.404227  0.001  -0.484063  0.000459  2.394168  0.001  -0.341488  -0.448297  0.001067  2.410832  0.001
