# generated using pymatgen
data_AgH7C11N4(OF)4
_symmetry_space_group_name_H-M   'P 1'
_cell_length_a   6.43803551
_cell_length_b   11.32815824
_cell_length_c   18.41700000
_cell_angle_alpha   95.75606851
_cell_angle_beta   90.00000000
_cell_angle_gamma   90.00000000
_symmetry_Int_Tables_number   1
_chemical_formula_structural   AgH7C11N4(OF)4
_chemical_formula_sum   'Ag4 H28 C44 N16 O16 F16'
_cell_volume   1336.39938649
_cell_formula_units_Z   4
loop_
 _symmetry_equiv_pos_site_id
 _symmetry_equiv_pos_as_xyz
  1  'x, y, z'
loop_
 _atom_site_type_symbol
 _atom_site_label
 _atom_site_symmetry_multiplicity
 _atom_site_fract_x
 _atom_site_fract_y
 _atom_site_fract_z
 _atom_site_occupancy
 _atom_site_hle17_bader_spin_density
 _atom_site_hle17_ddec_charge
 _atom_site_hle17_ddec_spin_density
 _atom_site_hle17_ddec_sum_bond_order
 _atom_site_hle17_magmom
 _atom_site_hse06_10hf_bader_spin_density
 _atom_site_hse06_10hf_ddec_charge
 _atom_site_hse06_10hf_ddec_spin_density
 _atom_site_hse06_10hf_ddec_sum_bond_order
 _atom_site_hse06_10hf_magmom
 _atom_site_hse06_bader_spin_density
 _atom_site_hse06_ddec_charge
 _atom_site_hse06_ddec_spin_density
 _atom_site_hse06_ddec_sum_bond_order
 _atom_site_hse06_magmom
 _atom_site_pbe_bader_charge
 _atom_site_pbe_bader_spin_density
 _atom_site_pbe_cm5_charge
 _atom_site_pbe_ddec_charge
 _atom_site_pbe_ddec_spin_density
 _atom_site_pbe_ddec_sum_bond_order
 _atom_site_pbe_magmom
Ag  Ag0  1  0.32405693  0.42263977  0.39045490  1  0  0.575603  0  1.301888  0  0  0.43234  0  1.7263  0  0  0.465012  0  1.677916  0  0.654371  0  0.450951  0.4091  0  1.760378  0
Ag  Ag1  1  0.82406504  0.07736020  0.60954564  1  0  0.575644  0  1.301824  0  0  0.43232  0  1.726253  0  0  0.465013  0  1.677825  0  0.654253  0  0.450921  0.409079  0  1.760334  0
Ag  Ag2  1  0.67593601  0.57736018  0.60954564  1  0  0.57563  0  1.301879  0  0  0.432343  0  1.726319  0  0  0.465041  0  1.677885  0  0.654389  0  0.450945  0.409104  0  1.760399  0
Ag  Ag3  1  0.17593566  0.92263620  0.39045414  1  0  0.57564  0  1.30185  0  0  0.43237  0  1.726245  0  0  0.465063  0  1.677813  0  0.654282  0  0.450951  0.40913  0  1.760324  0
H  H4  1  0.95601368  0.57603643  0.41137580  1  0  0.350445  0  0.896087  0  0  0.328739  0  0.965678  0  0  0.336801  0  0.958477  0  0.510378  0  0.305381  0.32299  0  0.970883  0
H  H5  1  0.45601333  0.92395994  0.58862235  1  0  0.350494  0  0.896018  0  0  0.328773  0  0.965635  0  0  0.336836  0  0.958435  0  0.510346  0  0.305374  0.323024  0  0.970841  0
H  H6  1  0.04398857  0.42396174  0.58862409  1  0  0.350461  0  0.896075  0  0  0.328757  0  0.965658  0  0  0.336818  0  0.95846  0  0.510371  0  0.305385  0.323009  0  0.970862  0
H  H7  1  0.54398737  0.07603823  0.41137536  1  0  0.350536  0  0.896006  0  0  0.328804  0  0.965617  0  0  0.336865  0  0.958417  0  0.510361  0  0.305412  0.323055  0  0.970824  0
H  H8  1  0.69267403  0.55292943  0.43196097  1  0  0.345687  0  0.910121  0  0  0.322504  0  0.981868  0  0  0.330407  0  0.975359  0  0.515315  0  0.303625  0.31691  0  0.986559  0
H  H9  1  0.19267989  0.94707050  0.56803685  1  0  0.345711  0  0.910096  0  0  0.322529  0  0.981838  0  0  0.330432  0  0.97533  0  0.515254  0  0.303633  0.316934  0  0.98653  0
H  H10  1  0.30732511  0.44707230  0.56803859  1  0  0.345704  0  0.910109  0  0  0.322514  0  0.981873  0  0  0.330418  0  0.975364  0  0.51532  0  0.303616  0.31692  0  0.986564  0
H  H11  1  0.80732391  0.05292768  0.43196087  1  0  0.34574  0  0.910106  0  0  0.32252  0  0.981889  0  0  0.330424  0  0.975382  0  0.515341  0  0.303613  0.316927  0  0.986581  0
H  H12  1  0.50852469  0.21403525  0.29622327  1  0  0.094981  0  0.937658  0  0  0.104225  0  1.00108  0  0  0.107082  0  0.996656  0  0.131962  0  0.118201  0.102016  0  1.004499  0
H  H13  1  0.00853677  0.28596472  0.70377890  1  0  0.09504  0  0.937652  0  0  0.104214  0  1.001147  0  0  0.107069  0  0.996723  0  0.132066  0  0.118187  0.102006  0  1.004564  0
H  H14  1  0.49146980  0.78597002  0.70377542  1  0  0.095009  0  0.937717  0  0  0.104298  0  1.001066  0  0  0.107158  0  0.996635  0  0.131975  0  0.11821  0.102089  0  1.004485  0
H  H15  1  0.99147015  0.71403345  0.29622045  1  0  0.095072  0  0.937609  0  0  0.104251  0  1.001074  0  0  0.107107  0  0.99665  0  0.132013  0  0.1182  0.102043  0  1.004491  0
H  H16  1  0.15603362  0.27300762  0.25152169  1  0  0.082541  0  0.942865  0  0  0.088213  0  1.013445  0  0  0.091545  0  1.007874  0  0.081146  0  0.111167  0.08572  0  1.017592  0
H  H17  1  0.65604950  0.22698437  0.74848108  1  0  0.082616  0  0.94271  0  0  0.088262  0  1.013327  0  0  0.091593  0  1.007756  0  0.080994  0  0.111196  0.085765  0  1.017483  0
H  H18  1  0.84396086  0.72698789  0.74848130  1  0  0.082557  0  0.942863  0  0  0.088264  0  1.013408  0  0  0.091595  0  1.007836  0  0.081043  0  0.111157  0.085768  0  1.017561  0
H  H19  1  0.34395585  0.77301292  0.25151658  1  0  0.082552  0  0.942789  0  0  0.088209  0  1.013403  0  0  0.091541  0  1.00783  0  0.08097  0  0.11115  0.085714  0  1.017554  0
H  H20  1  0.74499434  0.88848851  0.96550835  1  0  0.088976  0  0.963901  0  0  0.094776  0  1.0428  0  0  0.097317  0  1.039877  0  0.095997  0  0.08764  0.092818  0  1.045039  0
H  H21  1  0.24498778  0.61150876  0.03448768  1  0  0.088997  0  0.963865  0  0  0.094817  0  1.042757  0  0  0.097358  0  1.039832  0  0.095947  0  0.087684  0.092856  0  1.045005  0
H  H22  1  0.25500791  0.11151233  0.03448898  1  0  0.088982  0  0.963913  0  0  0.094783  0  1.042821  0  0  0.097323  0  1.039897  0  0.096007  0  0.087645  0.092825  0  1.04506  0
H  H23  1  0.75500982  0.38849297  0.96551243  1  0  0.08899  0  0.964008  0  0  0.094803  0  1.042895  0  0  0.097344  0  1.039972  0  0.095955  0  0.087668  0.092844  0  1.045138  0
H  H24  1  0.86552179  0.74569601  0.95082017  1  0  0.109177  0  0.94738  0  0  0.121661  0  1.012493  0  0  0.123862  0  1.010074  0  0.092049  0  0.100066  0.119958  0  1.014332  0
H  H25  1  0.36551212  0.75429948  0.04918172  1  0  0.109167  0  0.947467  0  0  0.121637  0  1.012598  0  0  0.123835  0  1.010185  0  0.092133  0  0.100082  0.119963  0  1.014407  0
H  H26  1  0.13448202  0.25430394  0.04918146  1  0  0.109146  0  0.94743  0  0  0.121635  0  1.012547  0  0  0.123834  0  1.010131  0  0.09202  0  0.100072  0.119934  0  1.014384  0
H  H27  1  0.63448392  0.24570136  0.95081778  1  0  0.109167  0  0.947465  0  0  0.121655  0  1.012568  0  0  0.123856  0  1.010152  0  0.092155  0  0.100077  0.11996  0  1.0144  0
H  H28  1  0.02394985  0.87455812  0.97170497  1  0  0.078029  0  0.950921  0  0  0.090219  0  1.024464  0  0  0.090187  0  1.026049  0  0.057843  0  0.089168  0.090164  0  1.023428  0
H  H29  1  0.52393933  0.62543649  0.02829741  1  0  0.078053  0  0.950876  0  0  0.090231  0  1.024446  0  0  0.090197  0  1.026029  0  0.057734  0  0.089156  0.090174  0  1.023415  0
H  H30  1  0.97605395  0.12544095  0.02829551  1  0  0.078053  0  0.950874  0  0  0.090229  0  1.024443  0  0  0.090197  0  1.026026  0  0.057726  0  0.089159  0.090173  0  1.023406  0
H  H31  1  0.47606137  0.37456435  0.97170318  1  0  0.078041  0  0.950929  0  0  0.090209  0  1.024508  0  0  0.090177  0  1.026092  0  0.057718  0  0.089147  0.090153  0  1.023472  0
C  C32  1  0.82534338  0.42744678  0.35810444  1  0  0.636457  0  3.790618  0  0  0.590204  0  4.058506  0  0  0.61697  0  4.067702  0  1.562263  0  0.346873  0.572284  0  4.051832  0
C  C33  1  0.32535080  0.07255231  0.64189714  1  0  0.636498  0  3.790655  0  0  0.590235  0  4.058494  0  0  0.616997  0  4.067693  0  1.562569  0  0.346885  0.572315  0  4.05182  0
C  C34  1  0.17465421  0.57255495  0.64189676  1  0  0.636609  0  3.790462  0  0  0.590268  0  4.058442  0  0  0.61703  0  4.067643  0  1.56221  0  0.346912  0.572348  0  4.051767  0
C  C35  1  0.67465145  0.92744587  0.35810166  1  0  0.63661  0  3.790586  0  0  0.590265  0  4.058527  0  0  0.617026  0  4.067727  0  1.562547  0  0.346985  0.572346  0  4.051851  0
C  C36  1  0.65193179  0.26518758  0.30099529  1  0  0.159308  0  3.679641  0  0  0.111093  0  3.938711  0  0  0.126799  0  3.951858  0  0.526516  0  0.060452  0.100758  0  3.929806  0
C  C37  1  0.15194231  0.23481151  0.69900900  1  0  0.159213  0  3.679827  0  0  0.111038  0  3.938846  0  0  0.126742  0  3.951996  0  0.526547  0  0.060394  0.100703  0  3.929941  0
C  C38  1  0.34806425  0.73481414  0.69900753  1  0  0.159159  0  3.679882  0  0  0.110947  0  3.938856  0  0  0.126648  0  3.952008  0  0.526459  0  0.060373  0.100613  0  3.929951  0
C  C39  1  0.84806149  0.76518756  0.30098931  1  0  0.159167  0  3.67978  0  0  0.111023  0  3.938774  0  0  0.12673  0  3.951925  0  0.526628  0  0.060355  0.100686  0  3.929871  0
C  C40  1  0.83121474  0.22571119  0.26273712  1  0  -0.069382  0  3.803775  0  0  -0.048884  0  4.052786  0  0  -0.062939  0  4.080396  0  0.039254  0  -0.033332  -0.039986  0  4.034522  0
C  C41  1  0.33122682  0.27428346  0.73726581  1  0  -0.069414  0  3.803452  0  0  -0.048917  0  4.052524  0  0  -0.062974  0  4.080133  0  0.039294  0  -0.033252  -0.040021  0  4.034257  0
C  C42  1  0.16878285  0.77428787  0.73726554  1  0  -0.069268  0  3.80369  0  0  -0.048752  0  4.052671  0  0  -0.062807  0  4.080283  0  0.039319  0  -0.033218  -0.039855  0  4.034405  0
C  C43  1  0.66877854  0.72571560  0.26273142  1  0  -0.069334  0  3.803733  0  0  -0.048834  0  4.052727  0  0  -0.062899  0  4.080352  0  0.039143  0  -0.033173  -0.039937  0  4.034461  0
C  C44  1  0.00870918  0.29573135  0.27840431  1  0  0.161869  0  3.695568  0  0  0.112468  0  3.959226  0  0  0.128115  0  3.971971  0  0.568563  0  0.059166  0.102154  0  3.950589  0
C  C45  1  0.50872351  0.20426508  0.72159764  1  0  0.161907  0  3.695461  0  0  0.112529  0  3.959113  0  0  0.128177  0  3.971859  0  0.568336  0  0.05915  0.102215  0  3.950474  0
C  C46  1  0.99128686  0.70426949  0.72159900  1  0  0.161863  0  3.695499  0  0  0.112417  0  3.959167  0  0  0.128063  0  3.971914  0  0.568491  0  0.059141  0.102103  0  3.95053  0
C  C47  1  0.49128340  0.79573310  0.27840008  1  0  0.161939  0  3.695334  0  0  0.112532  0  3.958995  0  0  0.128182  0  3.971742  0  0.568354  0  0.059151  0.102216  0  3.950361  0
C  C48  1  0.83442379  0.11821979  0.21084727  1  0  -0.097207  0  3.829687  0  0  -0.109905  0  4.091031  0  0  -0.110477  0  4.114155  0  0.145319  0  -0.02436  -0.109513  0  4.075789  0
C  C49  1  0.33444053  0.38177753  0.78915582  1  0  -0.097049  0  3.829486  0  0  -0.109807  0  4.090959  0  0  -0.110376  0  4.11408  0  0.145335  0  -0.024386  -0.109402  0  4.0757  0
C  C50  1  0.16557069  0.88177928  0.78915484  1  0  -0.097284  0  3.829678  0  0  -0.110007  0  4.091068  0  0  -0.11058  0  4.114192  0  0.145172  0  -0.024399  -0.109612  0  4.075824  0
C  C51  1  0.66556172  0.61822686  0.21084337  1  0  -0.097205  0  3.829653  0  0  -0.109897  0  4.091013  0  0  -0.110463  0  4.114136  0  0.145139  0  -0.024422  -0.109494  0  4.075754  0
C  C52  1  0.66852847  0.08564515  0.16343242  1  0  0.186065  0  3.780251  0  0  0.154327  0  4.084424  0  0  0.163421  0  4.092658  0  0.497775  0  0.089395  0.147819  0  4.0793  0
C  C53  1  0.16854831  0.41434950  0.83657051  1  0  0.186069  0  3.779754  0  0  0.154314  0  4.08402  0  0  0.163405  0  4.092256  0  0.497848  0  0.089305  0.147802  0  4.078896  0
C  C54  1  0.33146291  0.91435391  0.83657078  1  0  0.186018  0  3.780001  0  0  0.154302  0  4.084199  0  0  0.163396  0  4.092435  0  0.497894  0  0.089396  0.147791  0  4.079079  0
C  C55  1  0.83145550  0.58564957  0.16342563  1  0  0.186025  0  3.77995  0  0  0.154249  0  4.084175  0  0  0.163342  0  4.092408  0  0.49808  0  0.089392  0.147737  0  4.079052  0
C  C56  1  0.67508637  0.98601278  0.11278702  1  0  0.103526  0  3.810085  0  0  0.07128  0  4.112123  0  0  0.077785  0  4.120619  0  0.587894  0  0.077274  0.066439  0  4.10699  0
C  C57  1  0.17509223  0.51398626  0.88721564  1  0  0.10353  0  3.809962  0  0  0.071312  0  4.112007  0  0  0.077819  0  4.120504  0  0.588238  0  0.077284  0.066469  0  4.106879  0
C  C58  1  0.32490656  0.01399072  0.88721537  1  0  0.103565  0  3.810014  0  0  0.071255  0  4.112107  0  0  0.07776  0  4.120602  0  0.587836  0  0.07722  0.066414  0  4.106973  0
C  C59  1  0.82490691  0.48601635  0.11278398  1  0  0.103612  0  3.810041  0  0  0.071399  0  4.11206  0  0  0.077905  0  4.120557  0  0.587985  0  0.077327  0.066558  0  4.106928  0
C  C60  1  0.84952623  0.91159551  0.10571972  1  0  0.085985  0  3.888528  0  0  0.061183  0  4.171675  0  0  0.067231  0  4.187866  0  0.597368  0  0.065027  0.056933  0  4.161041  0
C  C61  1  0.34953209  0.58840353  0.89427913  1  0  0.085934  0  3.888503  0  0  0.06112  0  4.171688  0  0  0.067166  0  4.187883  0  0.597041  0  0.06503  0.056865  0  4.161053  0
C  C62  1  0.15047137  0.08840887  0.89428163  1  0  0.086052  0  3.888595  0  0  0.061275  0  4.171695  0  0  0.067323  0  4.187887  0  0.597779  0  0.065117  0.057029  0  4.161062  0
C  C63  1  0.65046550  0.41159731  0.10571929  1  0  0.085957  0  3.888455  0  0  0.061139  0  4.171585  0  0  0.067185  0  4.187781  0  0.597093  0  0.065073  0.056892  0  4.16095  0
C  C64  1  0.01429473  0.94150313  0.15368135  1  0  0.111519  0  3.814735  0  0  0.078076  0  4.118869  0  0  0.084423  0  4.128189  0  0.54929  0  0.078631  0.073373  0  4.113084  0
C  C65  1  0.51430596  0.55849413  0.84632011  1  0  0.111544  0  3.814588  0  0  0.078116  0  4.118725  0  0  0.084465  0  4.128045  0  0.549818  0  0.07868  0.073412  0  4.112944  0
C  C66  1  0.98569665  0.05850125  0.84632110  1  0  0.111471  0  3.814662  0  0  0.078017  0  4.118816  0  0  0.084364  0  4.128136  0  0.549043  0  0.078652  0.073314  0  4.113029  0
C  C67  1  0.48569319  0.44150582  0.15368151  1  0  0.11144  0  3.814739  0  0  0.078031  0  4.118834  0  0  0.084378  0  4.128156  0  0.549765  0  0.078691  0.073329  0  4.113048  0
C  C68  1  0.00561351  0.04100686  0.20444098  1  0  0.174228  0  3.788254  0  0  0.146866  0  4.086637  0  0  0.154999  0  4.096455  0  0.488413  0  0.086957  0.141009  0  4.080481  0
C  C69  1  0.50562318  0.45898690  0.79556081  1  0  0.174256  0  3.788181  0  0  0.146912  0  4.086568  0  0  0.155045  0  4.096385  0  0.48816  0  0.086998  0.141051  0  4.080412  0
C  C70  1  0.99438563  0.95899398  0.79556233  1  0  0.174506  0  3.788233  0  0  0.147121  0  4.086661  0  0  0.155255  0  4.096479  0  0.488325  0  0.087096  0.141262  0  4.080505  0
C  C71  1  0.49437752  0.54100950  0.20443734  1  0  0.174349  0  3.788359  0  0  0.146975  0  4.086736  0  0  0.155108  0  4.096553  0  0.488168  0  0.08703  0.141115  0  4.080579  0
C  C72  1  0.87350714  0.83313071  0.98156231  1  0  -0.078062  0  3.57236  0  0  -0.16918  0  3.839096  0  0  -0.163677  0  3.840637  0  0.330159  0  -0.146124  -0.172678  0  3.838112  0
C  C73  1  0.37350213  0.66686833  0.01843817  1  0  -0.078104  0  3.572354  0  0  -0.169219  0  3.83914  0  0  -0.16371  0  3.840676  0  0.330267  0  -0.146175  -0.172747  0  3.838139  0
C  C74  1  0.12649356  0.16687013  0.01843937  1  0  -0.078028  0  3.572403  0  0  -0.169193  0  3.839171  0  0  -0.163689  0  3.84071  0  0.330281  0  -0.146116  -0.172687  0  3.838186  0
C  C75  1  0.62649546  0.33313339  0.98155868  1  0  -0.078129  0  3.572468  0  0  -0.169253  0  3.839213  0  0  -0.16375  0  3.840755  0  0.3302  0  -0.146167  -0.172753  0  3.838226  0
N  N76  1  0.00991141  0.39200019  0.32634127  1  0  -0.449247  0  3.169898  0  0  -0.37893  0  3.455995  0  0  -0.403773  0  3.466302  0  -1.201186  0  -0.344046  -0.362108  0  3.448865  0
N  N77  1  0.50991797  0.10799713  0.67366183  1  0  -0.449291  0  3.170021  0  0  -0.378969  0  3.456093  0  0  -0.403811  0  3.4664  0  -1.201202  0  -0.344001  -0.362144  0  3.448959  0
N  N78  1  0.99008774  0.60799976  0.67366145  1  0  -0.449342  0  3.169942  0  0  -0.379006  0  3.45611  0  0  -0.403847  0  3.466413  0  -1.201176  0  -0.344052  -0.362183  0  3.44898  0
N  N79  1  0.49008739  0.89200194  0.32633703  1  0  -0.449308  0  3.169966  0  0  -0.378969  0  3.456086  0  0  -0.40381  0  3.46639  0  -1.201112  0  -0.344015  -0.362146  0  3.448956  0
N  N80  1  0.82273078  0.52766912  0.40258218  1  0  -0.665216  0  3.086895  0  0  -0.631318  0  3.329122  0  0  -0.653991  0  3.32545  0  -1.290794  0  -0.558456  -0.615588  0  3.331465  0
N  N81  1  0.32273354  0.97233170  0.59741841  1  0  -0.665265  0  3.086825  0  0  -0.631399  0  3.329097  0  0  -0.654076  0  3.325431  0  -1.290682  0  -0.558453  -0.615668  0  3.331439  0
N  N82  1  0.17726991  0.47233172  0.59741842  1  0  -0.665264  0  3.086744  0  0  -0.631349  0  3.32902  0  0  -0.654024  0  3.325353  0  -1.290735  0  -0.558445  -0.615618  0  3.331362  0
N  N83  1  0.67726716  0.02766825  0.40258050  1  0  -0.66544  0  3.086804  0  0  -0.631454  0  3.329046  0  0  -0.65413  0  3.325379  0  -1.290724  0  -0.558542  -0.615719  0  3.331381  0
N  N84  1  0.64503061  0.36510294  0.34593409  1  0  -0.434298  0  3.176859  0  0  -0.360163  0  3.467482  0  0  -0.385225  0  3.476957  0  -1.176891  0  -0.34126  -0.343238  0  3.460969  0
N  N85  1  0.14504269  0.13490059  0.65406885  1  0  -0.434424  0  3.17711  0  0  -0.360189  0  3.467609  0  0  -0.385249  0  3.477086  0  -1.177017  0  -0.341303  -0.343264  0  3.461094  0
N  N86  1  0.35496387  0.63490145  0.65406619  1  0  -0.434292  0  3.176824  0  0  -0.360156  0  3.467526  0  0  -0.385217  0  3.477002  0  -1.176675  0  -0.341261  -0.343231  0  3.461011  0
N  N87  1  0.85496111  0.86510025  0.34593066  1  0  -0.434338  0  3.176894  0  0  -0.360183  0  3.467521  0  0  -0.385244  0  3.477  0  -1.177018  0  -0.341286  -0.343258  0  3.461005  0
N  N88  1  0.16118426  0.19125918  0.44609259  1  0  0.703153  0  4.120003  0  0  0.74342  0  4.389189  0  0  0.758535  0  4.417259  0  0.833635  0  0.096844  0.723516  0  4.384025  0
N  N89  1  0.66118461  0.30873991  0.55390735  1  0  0.703111  0  4.12003  0  0  0.743331  0  4.38929  0  0  0.758477  0  4.417321  0  0.83364  0  0.096784  0.723429  0  4.384124  0
N  N90  1  0.83881799  0.80873988  0.55390790  1  0  0.703099  0  4.120029  0  0  0.743294  0  4.389327  0  0  0.758451  0  4.417342  0  0.833635  0  0.096727  0.723388  0  4.384161  0
N  N91  1  0.33881919  0.69126093  0.44609161  1  0  0.70309  0  4.120057  0  0  0.743336  0  4.389299  0  0  0.758455  0  4.417364  0  0.83365  0  0.096794  0.723432  0  4.384133  0
O  O92  1  0.85749449  0.81193213  0.05788503  1  0  -0.232742  0  2.319059  0  0  -0.167969  0  2.560997  0  0  -0.181888  0  2.562339  0  -1.065337  0  -0.200689  -0.158109  0  2.559776  0
O  O93  1  0.35749881  0.68806691  0.94211383  1  0  -0.232708  0  2.319003  0  0  -0.167958  0  2.560972  0  0  -0.181877  0  2.562313  0  -1.065317  0  -0.200677  -0.158085  0  2.559749  0
O  O94  1  0.14250465  0.18807225  0.94211687  1  0  -0.232828  0  2.319047  0  0  -0.167979  0  2.560929  0  0  -0.181896  0  2.562267  0  -1.065413  0  -0.200747  -0.158131  0  2.559718  0
O  O95  1  0.64249568  0.31193038  0.05788383  1  0  -0.232644  0  2.318986  0  0  -0.167864  0  2.560916  0  0  -0.181782  0  2.562259  0  -1.065265  0  -0.200699  -0.158014  0  2.559705  0
O  O96  1  0.10754523  0.29449544  0.47064712  1  0  -0.427842  0  1.791714  0  0  -0.407731  0  2.01  0  0  -0.420087  0  2.009821  0  -0.512356  0  -0.177782  -0.395653  0  2.014116  0
O  O97  1  0.60754868  0.20550277  0.52935385  1  0  -0.427823  0  1.791704  0  0  -0.407664  0  2.009974  0  0  -0.420041  0  2.009801  0  -0.512414  0  -0.177747  -0.395587  0  2.014089  0
O  O98  1  0.89245236  0.70550185  0.52935488  1  0  -0.427819  0  1.791665  0  0  -0.40766  0  2.009945  0  0  -0.420041  0  2.009765  0  -0.512424  0  -0.177757  -0.39558  0  2.014062  0
O  O99  1  0.39245667  0.79449807  0.47064403  1  0  -0.427805  0  1.79169  0  0  -0.407669  0  2.009961  0  0  -0.420033  0  2.009793  0  -0.512428  0  -0.177763  -0.39559  0  2.014076  0
O  O100  1  0.29623012  0.17460234  0.39601090  1  0  -0.492528  0  1.843802  0  0  -0.482115  0  2.083232  0  0  -0.494752  0  2.079869  0  -0.55999  0  -0.189658  -0.469753  0  2.089483  0
O  O101  1  0.79623046  0.32539764  0.60398964  1  0  -0.492537  0  1.843797  0  0  -0.482091  0  2.083223  0  0  -0.494736  0  2.079848  0  -0.560001  0  -0.189652  -0.469727  0  2.089472  0
O  O102  1  0.70377369  0.82539939  0.60399030  1  0  -0.492577  0  1.843904  0  0  -0.482079  0  2.08329  0  0  -0.494729  0  2.079913  0  -0.55999  0  -0.189601  -0.469713  0  2.089539  0
O  O103  1  0.20377023  0.67460142  0.39600976  1  0  -0.492576  0  1.843892  0  0  -0.482126  0  2.083296  0  0  -0.494758  0  2.079929  0  -0.560008  0  -0.189655  -0.469762  0  2.089546  0
O  O104  1  0.07696447  0.10127548  0.47118440  1  0  -0.489307  0  1.874312  0  0  -0.46101  0  2.119183  0  0  -0.475326  0  2.113598  0  -0.563684  0  -0.197663  -0.447632  0  2.1268  0
O  O105  1  0.57696482  0.39872273  0.52881494  1  0  -0.489257  0  1.874318  0  0  -0.460945  0  2.119181  0  0  -0.475282  0  2.113606  0  -0.563671  0  -0.19763  -0.44758  0  2.126821  0
O  O106  1  0.92303623  0.89872181  0.52881435  1  0  -0.489238  0  1.874294  0  0  -0.460933  0  2.119157  0  0  -0.475266  0  2.113572  0  -0.563623  0  -0.197619  -0.44757  0  2.126812  0
O  O107  1  0.42303743  0.60127811  0.47118511  1  0  -0.489206  0  1.874279  0  0  -0.460929  0  2.119172  0  0  -0.475255  0  2.113605  0  -0.563603  0  -0.197623  -0.447554  0  2.126799  0
F  F108  1  0.49469749  0.15320502  0.16506773  1  0  -0.15999  0  1.279165  0  0  -0.116041  0  1.461454  0  0  -0.124781  0  1.451641  0  -0.623893  0  -0.080373  -0.109658  0  1.468167  0
F  F109  1  0.99472269  0.34678520  0.83493601  1  0  -0.160144  0  1.278953  0  0  -0.116182  0  1.461248  0  0  -0.124922  0  1.451434  0  -0.623773  0  -0.080439  -0.109798  0  1.467963  0
F  F110  1  0.50529078  0.84678961  0.83493628  1  0  -0.160032  0  1.278939  0  0  -0.11609  0  1.461221  0  0  -0.12483  0  1.451409  0  -0.623837  0  -0.080424  -0.109706  0  1.467936  0
F  F111  1  0.00528733  0.65321121  0.16506214  1  0  -0.160089  0  1.278912  0  0  -0.116128  0  1.461209  0  0  -0.124869  0  1.451394  0  -0.623794  0  -0.08048  -0.109743  0  1.467924  0
F  F112  1  0.50890213  0.96042951  0.06887617  1  0  -0.147927  0  1.284511  0  0  -0.101357  0  1.460211  0  0  -0.109826  0  1.450147  0  -0.623743  0  -0.076893  -0.095193  0  1.46719  0
F  F113  1  0.00890955  0.53956864  0.93112317  1  0  -0.147906  0  1.284571  0  0  -0.101332  0  1.460271  0  0  -0.109802  0  1.450208  0  -0.623954  0  -0.076871  -0.095166  0  1.467245  0
F  F114  1  0.49109701  0.03957221  0.93112502  1  0  -0.147976  0  1.284441  0  0  -0.101388  0  1.460164  0  0  -0.109858  0  1.4501  0  -0.623682  0  -0.076925  -0.095223  0  1.467138  0
F  F115  1  0.99109115  0.46042688  0.06887438  1  0  -0.147959  0  1.284482  0  0  -0.101394  0  1.460178  0  0  -0.109863  0  1.450115  0  -0.623791  0  -0.07693  -0.095227  0  1.467152  0
F  F116  1  0.18613753  0.87251749  0.15124027  1  0  -0.147363  0  1.280735  0  0  -0.102709  0  1.458342  0  0  -0.111103  0  1.448458  0  -0.625324  0  -0.078586  -0.09659  0  1.465163  0
F  F117  1  0.68614564  0.62748333  0.84876032  1  0  -0.147347  0  1.280731  0  0  -0.102695  0  1.458336  0  0  -0.11109  0  1.448451  0  -0.625383  0  -0.078566  -0.096574  0  1.465153  0
F  F118  1  0.81385385  0.12748867  0.84876065  1  0  -0.147376  0  1.280699  0  0  -0.10272  0  1.458315  0  0  -0.111115  0  1.44843  0  -0.625436  0  -0.078602  -0.0966  0  1.465132  0
F  F119  1  0.31385040  0.37251574  0.15123907  1  0  -0.147326  0  1.280683  0  0  -0.102686  0  1.458278  0  0  -0.111079  0  1.448393  0  -0.625402  0  -0.078581  -0.096565  0  1.465094  0
F  F120  1  0.17048524  0.06100147  0.24961319  1  0  -0.156466  0  1.292812  0  0  -0.114297  0  1.484373  0  0  -0.122662  0  1.47376  0  -0.622347  0  -0.077605  -0.108275  0  1.491836  0
F  F121  1  0.67050733  0.43899762  0.75038892  1  0  -0.156516  0  1.292617  0  0  -0.11434  0  1.484155  0  0  -0.122706  0  1.47354  0  -0.62242  0  -0.077594  -0.108317  0  1.491619  0
F  F122  1  0.82951236  0.93900026  0.75039126  1  0  -0.156558  0  1.292831  0  0  -0.114387  0  1.484409  0  0  -0.122753  0  1.473795  0  -0.622306  0  -0.077649  -0.108365  0  1.491872  0
F  F123  1  0.32951045  0.56100144  0.24960939  1  0  -0.156538  0  1.292813  0  0  -0.114374  0  1.48438  0  0  -0.122736  0  1.473766  0  -0.622354  0  -0.077673  -0.108352  0  1.491846  0
