# generated using pymatgen
data_ZnH14(C5N2)2
_symmetry_space_group_name_H-M   'P 1'
_cell_length_a   8.40337009
_cell_length_b   8.40337151
_cell_length_c   12.93250212
_cell_angle_alpha   90.00006710
_cell_angle_beta   89.99983442
_cell_angle_gamma   120.00018310
_symmetry_Int_Tables_number   1
_chemical_formula_structural   ZnH14(C5N2)2
_chemical_formula_sum   'Zn3 H42 C30 N12'
_cell_volume   790.89611616
_cell_formula_units_Z   3
loop_
 _symmetry_equiv_pos_site_id
 _symmetry_equiv_pos_as_xyz
  1  'x, y, z'
loop_
 _atom_site_type_symbol
 _atom_site_label
 _atom_site_symmetry_multiplicity
 _atom_site_fract_x
 _atom_site_fract_y
 _atom_site_fract_z
 _atom_site_occupancy
 _atom_site_hle17_bader_spin_density
 _atom_site_hle17_ddec_charge
 _atom_site_hle17_ddec_spin_density
 _atom_site_hle17_ddec_sum_bond_order
 _atom_site_hle17_magmom
 _atom_site_hse06_10hf_bader_spin_density
 _atom_site_hse06_10hf_ddec_charge
 _atom_site_hse06_10hf_ddec_spin_density
 _atom_site_hse06_10hf_ddec_sum_bond_order
 _atom_site_hse06_10hf_magmom
 _atom_site_hse06_bader_spin_density
 _atom_site_hse06_ddec_charge
 _atom_site_hse06_ddec_spin_density
 _atom_site_hse06_ddec_sum_bond_order
 _atom_site_hse06_magmom
 _atom_site_pbe_bader_spin_density
 _atom_site_pbe_cm5_charge
 _atom_site_pbe_ddec_charge
 _atom_site_pbe_ddec_spin_density
 _atom_site_pbe_ddec_sum_bond_order
 _atom_site_pbe_magmom
Zn  Zn0  1  0.47409701  0.47409629  0.99999957  1  0  0.879373  0  2.008647  0  0  0.683202  0  2.479719  0  0  0.721199  0  2.439642  0  0  0.718554  0.657273  0  2.506866  0
Zn  Zn1  1  0.52590505  0.99999929  0.66666515  1  0  0.879393  0  2.008704  0  0  0.683228  0  2.479766  0  0  0.721214  0  2.439687  0  0  0.718578  0.657295  0  2.506906  0
Zn  Zn2  1  0.00000052  0.52590559  0.33333399  1  0  0.879397  0  2.008726  0  0  0.683226  0  2.479794  0  0  0.721199  0  2.439712  0  0  0.718586  0.657293  0  2.506934  0
H  H3  1  0.79259773  0.86045041  0.08173241  1  0  0.085884  0  0.984847  0  0  0.095976  0  1.049943  0  0  0.098091  0  1.049391  0  0  0.108574  0.094438  0  1.050463  0
H  H4  1  0.13955867  0.93215499  0.74839755  1  0  0.085828  0  0.985049  0  0  0.095978  0  1.050069  0  0  0.098093  0  1.049516  0  0  0.108573  0.09444  0  1.050591  0
H  H5  1  0.06784810  0.20740299  0.41506509  1  0  0.085815  0  0.985017  0  0  0.095924  0  1.050081  0  0  0.098038  0  1.04953  0  0  0.108548  0.094387  0  1.0506  0
H  H6  1  0.86045144  0.79259928  0.91826727  1  0  0.08589  0  0.984863  0  0  0.095976  0  1.049961  0  0  0.09809  0  1.04941  0  0  0.108582  0.094437  0  1.050482  0
H  H7  1  0.93215361  0.13955924  0.25160014  1  0  0.085833  0  0.985082  0  0  0.095972  0  1.050117  0  0  0.098086  0  1.049563  0  0  0.108573  0.094434  0  1.050637  0
H  H8  1  0.20740346  0.06785200  0.58493614  1  0  0.085829  0  0.984948  0  0  0.095933  0  1.050027  0  0  0.098047  0  1.049475  0  0  0.108551  0.094395  0  1.050545  0
H  H9  1  0.01002494  0.88461773  0.24840160  1  0  0.085902  0  0.985408  0  0  0.097428  0  1.048447  0  0  0.099198  0  1.048391  0  0  0.109735  0.096123  0  1.048592  0
H  H10  1  0.11538961  0.12540725  0.91506184  1  0  0.085972  0  0.985638  0  0  0.097455  0  1.048706  0  0  0.099236  0  1.048643  0  0  0.109755  0.096141  0  1.048827  0
H  H11  1  0.87459715  0.98998204  0.58173153  1  0  0.085925  0  0.985522  0  0  0.097418  0  1.048589  0  0  0.099195  0  1.048532  0  0  0.109754  0.096105  0  1.048726  0
H  H12  1  0.88461641  0.01002285  0.75159773  1  0  0.085896  0  0.98543  0  0  0.097423  0  1.048467  0  0  0.099194  0  1.048409  0  0  0.109731  0.096117  0  1.048614  0
H  H13  1  0.12540100  0.11539091  0.08493399  1  0  0.085992  0  0.985675  0  0  0.097469  0  1.048731  0  0  0.099257  0  1.048662  0  0  0.109758  0.096142  0  1.048886  0
H  H14  1  0.98998134  0.87459832  0.41826726  1  0  0.085972  0  0.985395  0  0  0.097433  0  1.048503  0  0  0.099232  0  1.048412  0  0  0.109717  0.096112  0  1.048646  0
H  H15  1  0.51508042  0.21310768  0.12338794  1  0  0.073906  0  0.959377  0  0  0.089891  0  1.025573  0  0  0.091477  0  1.024477  0  0  0.094194  0.088701  0  1.026493  0
H  H16  1  0.78689726  0.30197395  0.79005221  1  0  0.073898  0  0.959369  0  0  0.08986  0  1.025605  0  0  0.091438  0  1.024502  0  0  0.094193  0.088671  0  1.026526  0
H  H17  1  0.69803060  0.48491824  0.45672012  1  0  0.073932  0  0.959392  0  0  0.089918  0  1.025591  0  0  0.091503  0  1.02449  0  0  0.094203  0.088727  0  1.026514  0
H  H18  1  0.21310752  0.51508088  0.87661458  1  0  0.073901  0  0.959371  0  0  0.089873  0  1.025582  0  0  0.091456  0  1.024486  0  0  0.094186  0.088683  0  1.026504  0
H  H19  1  0.30197690  0.78689805  0.20994779  1  0  0.0739  0  0.959381  0  0  0.089861  0  1.025608  0  0  0.09144  0  1.024507  0  0  0.094185  0.088673  0  1.02653  0
H  H20  1  0.48491780  0.69803073  0.54327906  1  0  0.073879  0  0.959388  0  0  0.08986  0  1.025603  0  0  0.091447  0  1.024502  0  0  0.094179  0.088671  0  1.026525  0
H  H21  1  0.68240848  0.21383151  0.20587221  1  0  0.079157  0  0.937975  0  0  0.098247  0  0.996586  0  0  0.099865  0  0.995591  0  0  0.094894  0.097078  0  0.997334  0
H  H22  1  0.78617323  0.46857449  0.87253902  1  0  0.079114  0  0.938003  0  0  0.098225  0  0.996597  0  0  0.099833  0  0.995598  0  0  0.094882  0.097055  0  0.997347  0
H  H23  1  0.53142311  0.31758954  0.53920309  1  0  0.079186  0  0.937964  0  0  0.098274  0  0.996572  0  0  0.099889  0  0.995577  0  0  0.094906  0.097106  0  0.997319  0
H  H24  1  0.21383191  0.68240398  0.79412790  1  0  0.079126  0  0.937981  0  0  0.098244  0  0.996561  0  0  0.099859  0  0.995565  0  0  0.0949  0.097075  0  0.99731  0
H  H25  1  0.46857582  0.78617375  0.12746011  1  0  0.079108  0  0.938013  0  0  0.098221  0  0.996599  0  0  0.099829  0  0.995603  0  0  0.0949  0.097052  0  0.997349  0
H  H26  1  0.31758862  0.53142417  0.46079627  1  0  0.079168  0  0.937981  0  0  0.098254  0  0.996586  0  0  0.099869  0  0.995592  0  0  0.094899  0.097084  0  0.997335  0
H  H27  1  0.36266926  0.05706515  0.28498011  1  0  0.094212  0  0.97173  0  0  0.115868  0  1.033442  0  0  0.116879  0  1.034427  0  0  0.082251  0.11508  0  1.032831  0
H  H28  1  0.94292844  0.30559541  0.95164802  1  0  0.094247  0  0.971625  0  0  0.11589  0  1.033362  0  0  0.116901  0  1.03435  0  0  0.082234  0.115095  0  1.032757  0
H  H29  1  0.69439448  0.63732557  0.61831304  1  0  0.094221  0  0.97171  0  0  0.115903  0  1.033384  0  0  0.11691  0  1.034376  0  0  0.08226  0.115112  0  1.032776  0
H  H30  1  0.05706833  0.36266484  0.71502181  1  0  0.094208  0  0.971689  0  0  0.115862  0  1.033412  0  0  0.116871  0  1.034401  0  0  0.082236  0.115072  0  1.032803  0
H  H31  1  0.30559621  0.94292980  0.04835189  1  0  0.094238  0  0.971629  0  0  0.115883  0  1.033367  0  0  0.116893  0  1.034356  0  0  0.082227  0.115087  0  1.032761  0
H  H32  1  0.63732560  0.69439506  0.38168682  1  0  0.094227  0  0.971706  0  0  0.115902  0  1.033391  0  0  0.116909  0  1.034383  0  0  0.082264  0.115111  0  1.032782  0
H  H33  1  0.36564333  0.26969799  0.28173256  1  0  0.096204  0  0.966289  0  0  0.116165  0  1.028925  0  0  0.117082  0  1.030372  0  0  0.081403  0.115465  0  1.027958  0
H  H34  1  0.73029092  0.09593695  0.94839587  1  0  0.096194  0  0.966374  0  0  0.116181  0  1.028954  0  0  0.117097  0  1.030404  0  0  0.081422  0.115481  0  1.027987  0
H  H35  1  0.90405620  0.63435771  0.61506598  1  0  0.096238  0  0.966351  0  0  0.116192  0  1.028985  0  0  0.11711  0  1.030432  0  0  0.081425  0.115493  0  1.028019  0
H  H36  1  0.26970271  0.36564456  0.71827079  1  0  0.096204  0  0.96631  0  0  0.116169  0  1.028918  0  0  0.117083  0  1.030368  0  0  0.081416  0.115468  0  1.027953  0
H  H37  1  0.09593840  0.73029161  0.05160428  1  0  0.096211  0  0.966354  0  0  0.116197  0  1.028937  0  0  0.117114  0  1.030387  0  0  0.081435  0.115497  0  1.027969  0
H  H38  1  0.63435651  0.90405553  0.38493377  1  0  0.096235  0  0.966358  0  0  0.116199  0  1.028977  0  0  0.117115  0  1.030425  0  0  0.081436  0.115499  0  1.028011  0
H  H39  1  0.52317010  0.24216923  0.36118029  1  0  0.093373  0  0.989398  0  0  0.113009  0  1.055906  0  0  0.113611  0  1.05749  0  0  0.083008  0.112518  0  1.054844  0
H  H40  1  0.75782117  0.28099104  0.02784629  1  0  0.093439  0  0.989404  0  0  0.113009  0  1.055975  0  0  0.113613  0  1.057556  0  0  0.083013  0.112518  0  1.054911  0
H  H41  1  0.71899997  0.47682883  0.69451167  1  0  0.093424  0  0.9894  0  0  0.113027  0  1.055931  0  0  0.11363  0  1.057514  0  0  0.08302  0.112536  0  1.054868  0
H  H42  1  0.24217263  0.52316587  0.63882067  1  0  0.093479  0  0.989365  0  0  0.113034  0  1.05595  0  0  0.113635  0  1.057534  0  0  0.083036  0.112543  0  1.054888  0
H  H43  1  0.28099130  0.75782064  0.97215297  1  0  0.093446  0  0.989384  0  0  0.113018  0  1.055956  0  0  0.113623  0  1.057536  0  0  0.083017  0.112527  0  1.054893  0
H  H44  1  0.47682901  0.71900072  0.30548750  1  0  0.093418  0  0.989393  0  0  0.113017  0  1.055935  0  0  0.113619  0  1.057518  0  0  0.083012  0.112526  0  1.054872  0
C  C45  1  0.79030554  0.75286724  0.12910913  1  0  -0.039727  0  3.816985  0  0  -0.07053  0  4.077229  0  0  -0.069519  0  4.098223  0  0  -0.026268  -0.071175  0  4.063023  0
C  C46  1  0.24712996  0.03741648  0.79576768  1  0  -0.039684  0  3.815963  0  0  -0.070505  0  4.076193  0  0  -0.069493  0  4.097182  0  0  -0.026258  -0.071154  0  4.061989  0
C  C47  1  0.96257672  0.20970501  0.46243714  1  0  -0.039752  0  3.816476  0  0  -0.070559  0  4.076718  0  0  -0.069548  0  4.097712  0  0  -0.026282  -0.071206  0  4.062513  0
C  C48  1  0.75286856  0.79030464  0.87089062  1  0  -0.039745  0  3.816862  0  0  -0.070522  0  4.077116  0  0  -0.06951  0  4.098107  0  0  -0.026258  -0.071166  0  4.062915  0
C  C49  1  0.03741295  0.24713260  0.20423355  1  0  -0.039716  0  3.816156  0  0  -0.070535  0  4.076375  0  0  -0.069523  0  4.097368  0  0  -0.026281  -0.071182  0  4.062167  0
C  C50  1  0.20969873  0.96256827  0.53756204  1  0  -0.039632  0  3.816668  0  0  -0.070436  0  4.07689  0  0  -0.069426  0  4.097891  0  0  -0.026238  -0.071084  0  4.062682  0
C  C51  1  0.89602037  0.76483626  0.21306959  1  0  -0.028042  0  3.806754  0  0  -0.057256  0  4.064486  0  0  -0.055724  0  4.085684  0  0  -0.021897  -0.058206  0  4.05012  0
C  C52  1  0.23515167  0.13119527  0.87973833  1  0  -0.028041  0  3.80584  0  0  -0.057218  0  4.063556  0  0  -0.0557  0  4.084754  0  0  -0.021859  -0.058136  0  4.049219  0
C  C53  1  0.86881628  0.10397093  0.54640547  1  0  -0.027988  0  3.806156  0  0  -0.057175  0  4.063878  0  0  -0.055655  0  4.085085  0  0  -0.021889  -0.058105  0  4.04953  0
C  C54  1  0.76483710  0.89602035  0.78692932  1  0  -0.028036  0  3.806699  0  0  -0.057248  0  4.064428  0  0  -0.055715  0  4.085622  0  0  -0.021887  -0.058199  0  4.050065  0
C  C55  1  0.13118603  0.23514860  0.12025898  1  0  -0.028052  0  3.805855  0  0  -0.057212  0  4.063571  0  0  -0.055702  0  4.084772  0  0  -0.021868  -0.058134  0  4.049228  0
C  C56  1  0.10397694  0.86881739  0.45359768  1  0  -0.028113  0  3.806409  0  0  -0.057287  0  4.06414  0  0  -0.055779  0  4.085326  0  0  -0.021896  -0.058208  0  4.049798  0
C  C57  1  0.70018609  0.47405503  0.18432967  1  0  0.358984  0  3.71157  0  0  0.340586  0  3.96936  0  0  0.355227  0  3.985703  0  0  0.199284  0.330964  0  3.957989  0
C  C58  1  0.52595105  0.22613990  0.85099191  1  0  0.359116  0  3.711675  0  0  0.340685  0  3.969531  0  0  0.355309  0  3.985872  0  0  0.19933  0.331097  0  3.958118  0
C  C59  1  0.77386521  0.29981039  0.51766178  1  0  0.35907  0  3.711585  0  0  0.340661  0  3.969408  0  0  0.355295  0  3.985753  0  0  0.199352  0.331042  0  3.958036  0
C  C60  1  0.47405575  0.70018601  0.81567106  1  0  0.358905  0  3.711563  0  0  0.340515  0  3.969384  0  0  0.35515  0  3.985732  0  0  0.199214  0.330901  0  3.958007  0
C  C61  1  0.22614115  0.52595154  0.14900828  1  0  0.359035  0  3.711664  0  0  0.340601  0  3.969522  0  0  0.355225  0  3.985865  0  0  0.199286  0.331016  0  3.958109  0
C  C62  1  0.29980938  0.77386616  0.48233823  1  0  0.359058  0  3.711669  0  0  0.340643  0  3.969473  0  0  0.355289  0  3.985806  0  0  0.199305  0.331022  0  3.958103  0
C  C63  1  0.58962217  0.26997052  0.19625623  1  0  -0.15849  0  3.738329  0  0  -0.196979  0  3.992053  0  0  -0.198456  0  4.001814  0  0  -0.158335  -0.195935  0  3.985262  0
C  C64  1  0.73003542  0.31965119  0.86292294  1  0  -0.15841  0  3.738375  0  0  -0.19689  0  3.992112  0  0  -0.198317  0  4.001809  0  0  -0.158302  -0.195855  0  3.98531  0
C  C65  1  0.68034829  0.41037759  0.52958922  1  0  -0.158547  0  3.738442  0  0  -0.197046  0  3.992179  0  0  -0.198507  0  4.001921  0  0  -0.158351  -0.196003  0  3.985389  0
C  C66  1  0.26997024  0.58961836  0.80374389  1  0  -0.15843  0  3.738401  0  0  -0.196916  0  3.99211  0  0  -0.198379  0  4.001856  0  0  -0.158303  -0.195874  0  3.985317  0
C  C67  1  0.31965247  0.73003592  0.13707709  1  0  -0.158384  0  3.738393  0  0  -0.196858  0  3.992118  0  0  -0.19829  0  4.001823  0  0  -0.158291  -0.195829  0  3.985321  0
C  C68  1  0.41037664  0.68034930  0.47041000  1  0  -0.15843  0  3.738394  0  0  -0.196903  0  3.992081  0  0  -0.198373  0  4.00183  0  0  -0.158301  -0.195859  0  3.985291  0
C  C69  1  0.45271202  0.20681491  0.28640131  1  0  -0.274033  0  3.689761  0  0  -0.346493  0  3.92723  0  0  -0.349285  0  3.93881  0  0  -0.250444  -0.344265  0  3.919181  0
C  C70  1  0.79317783  0.24588900  0.95306704  1  0  -0.274154  0  3.689874  0  0  -0.346565  0  3.927346  0  0  -0.349371  0  3.938912  0  0  -0.25047  -0.344332  0  3.919306  0
C  C71  1  0.75410400  0.54728530  0.61973263  1  0  -0.274113  0  3.689932  0  0  -0.346552  0  3.927402  0  0  -0.349347  0  3.938978  0  0  -0.250482  -0.344324  0  3.919359  0
C  C72  1  0.20681792  0.45271018  0.71360125  1  0  -0.274152  0  3.689868  0  0  -0.346546  0  3.927373  0  0  -0.349336  0  3.938952  0  0  -0.250493  -0.344317  0  3.91933  0
C  C73  1  0.24589099  0.79318042  0.04693298  1  0  -0.274146  0  3.689824  0  0  -0.346569  0  3.927297  0  0  -0.349374  0  3.938865  0  0  -0.250466  -0.344334  0  3.919258  0
C  C74  1  0.54728531  0.75410456  0.38026725  1  0  -0.274138  0  3.689934  0  0  -0.346587  0  3.927406  0  0  -0.34938  0  3.938984  0  0  -0.2505  -0.344359  0  3.919361  0
N  N75  1  0.66823406  0.56893692  0.11054200  1  0  -0.449234  0  3.275571  0  0  -0.36416  0  3.562517  0  0  -0.384883  0  3.57576  0  0  -0.376435  -0.350151  0  3.553263  0
N  N76  1  0.43107314  0.09930874  0.77720731  1  0  -0.449289  0  3.275656  0  0  -0.364271  0  3.562728  0  0  -0.384989  0  3.575971  0  0  -0.376514  -0.350272  0  3.553466  0
N  N77  1  0.90070025  0.33176704  0.44387626  1  0  -0.449215  0  3.275518  0  0  -0.364156  0  3.562482  0  0  -0.38487  0  3.575721  0  0  -0.376449  -0.350142  0  3.553215  0
N  N78  1  0.56893797  0.66823568  0.88945869  1  0  -0.44913  0  3.275428  0  0  -0.364108  0  3.562429  0  0  -0.384831  0  3.575675  0  0  -0.376404  -0.350096  0  3.553153  0
N  N79  1  0.09930840  0.43107482  0.22279300  1  0  -0.449253  0  3.275735  0  0  -0.364215  0  3.562793  0  0  -0.384928  0  3.576031  0  0  -0.376488  -0.350215  0  3.553529  0
N  N80  1  0.33176464  0.90069979  0.55612443  1  0  -0.449267  0  3.275611  0  0  -0.364193  0  3.562562  0  0  -0.384916  0  3.575802  0  0  -0.376428  -0.350182  0  3.55331  0
N  N81  1  0.83863915  0.58865811  0.24797929  1  0  -0.457808  0  3.2664  0  0  -0.373358  0  3.554693  0  0  -0.394162  0  3.567059  0  0  -0.379256  -0.359284  0  3.546021  0
N  N82  1  0.41134671  0.24998497  0.91464329  1  0  -0.457925  0  3.266293  0  0  -0.373475  0  3.554623  0  0  -0.394287  0  3.567009  0  0  -0.379289  -0.359414  0  3.545937  0
N  N83  1  0.75001879  0.16135944  0.58131146  1  0  -0.457885  0  3.266257  0  0  -0.373426  0  3.554534  0  0  -0.394233  0  3.566911  0  0  -0.379299  -0.359354  0  3.545855  0
N  N84  1  0.58865782  0.83863802  0.75202129  1  0  -0.457807  0  3.266433  0  0  -0.373364  0  3.554743  0  0  -0.39417  0  3.567116  0  0  -0.379254  -0.359292  0  3.546069  0
N  N85  1  0.24998027  0.41134402  0.08535618  1  0  -0.457892  0  3.26616  0  0  -0.373434  0  3.554453  0  0  -0.394244  0  3.566839  0  0  -0.379257  -0.359373  0  3.545767  0
N  N86  1  0.16135975  0.75002108  0.41868787  1  0  -0.457904  0  3.266356  0  0  -0.373438  0  3.554621  0  0  -0.394245  0  3.566995  0  0  -0.379282  -0.359363  0  3.54594  0
