# generated using pymatgen
data_CdPH24C17(NO)9
_symmetry_space_group_name_H-M   'P 1'
_cell_length_a   8.34224792
_cell_length_b   14.10043680
_cell_length_c   14.83525314
_cell_angle_alpha   62.35490529
_cell_angle_beta   79.31194416
_cell_angle_gamma   78.69877390
_symmetry_Int_Tables_number   1
_chemical_formula_structural   CdPH24C17(NO)9
_chemical_formula_sum   'Cd2 P2 H48 C34 N18 O18'
_cell_volume   1506.86610134
_cell_formula_units_Z   2
loop_
 _symmetry_equiv_pos_site_id
 _symmetry_equiv_pos_as_xyz
  1  'x, y, z'
loop_
 _atom_site_type_symbol
 _atom_site_label
 _atom_site_symmetry_multiplicity
 _atom_site_fract_x
 _atom_site_fract_y
 _atom_site_fract_z
 _atom_site_occupancy
 _atom_site_hle17_bader_spin_density
 _atom_site_hle17_ddec_charge
 _atom_site_hle17_ddec_spin_density
 _atom_site_hle17_ddec_sum_bond_order
 _atom_site_hle17_magmom
 _atom_site_hse06_10hf_bader_spin_density
 _atom_site_hse06_10hf_ddec_charge
 _atom_site_hse06_10hf_ddec_spin_density
 _atom_site_hse06_10hf_ddec_sum_bond_order
 _atom_site_hse06_10hf_magmom
 _atom_site_hse06_bader_spin_density
 _atom_site_hse06_ddec_charge
 _atom_site_hse06_ddec_spin_density
 _atom_site_hse06_ddec_sum_bond_order
 _atom_site_hse06_magmom
 _atom_site_pbe_bader_spin_density
 _atom_site_pbe_cm5_charge
 _atom_site_pbe_ddec_charge
 _atom_site_pbe_ddec_spin_density
 _atom_site_pbe_ddec_sum_bond_order
 _atom_site_pbe_magmom
Cd  Cd0  1  0.24772632  0.52996272  0.76444090  1  0  1.063817  0  1.714788  0  0  0.862912  0  2.16151  0  0  0.919563  0  2.111113  0  0  0.78359  0.822522  0  2.196097  0
Cd  Cd1  1  0.75227371  0.47003653  0.23556160  1  0  1.063818  0  1.714731  0  0  0.862926  0  2.16144  0  0  0.919574  0  2.111052  0  0  0.783613  0.822531  0  2.196024  0
P  P2  1  0.18717319  0.02626784  0.26091242  1  0  1.431404  0  4.739823  0  0  1.266004  0  5.250972  0  0  1.317472  0  5.216128  0  0  0.524606  1.230494  0  5.274223  0
P  P3  1  0.81282819  0.97373059  0.73908828  1  0  1.431413  0  4.739891  0  0  1.265981  0  5.251074  0  0  1.31745  0  5.216227  0  0  0.524568  1.230467  0  5.274326  0
H  H4  1  0.71894266  0.10205154  0.29464431  1  0  0.101621  0  0.973601  0  0  0.118947  0  1.041712  0  0  0.119466  0  1.042389  0  0  0.102426  0.118488  0  1.041306  0
H  H5  1  0.28105991  0.89794688  0.70535491  1  0  0.101642  0  0.973659  0  0  0.118966  0  1.041765  0  0  0.119484  0  1.042443  0  0  0.102437  0.118508  0  1.041355  0
H  H6  1  0.61883908  0.98376739  0.36667086  1  0  0.087671  0  0.915268  0  0  0.109326  0  0.973285  0  0  0.110153  0  0.97296  0  0  0.096023  0.108666  0  0.973569  0
H  H7  1  0.38116321  0.01623265  0.63332902  1  0  0.087632  0  0.915289  0  0  0.109298  0  0.973296  0  0  0.110125  0  0.97297  0  0  0.096015  0.108638  0  0.973582  0
H  H8  1  0.54744535  0.08587593  0.24931616  1  0  0.09924  0  0.954453  0  0  0.117625  0  1.019703  0  0  0.118761  0  1.018849  0  0  0.101114  0.116687  0  1.020445  0
H  H9  1  0.45255832  0.91412331  0.75068460  1  0  0.099237  0  0.954463  0  0  0.117596  0  1.019749  0  0  0.118731  0  1.018893  0  0  0.101099  0.116658  0  1.020489  0
H  H10  1  0.75725653  0.95115154  0.11380351  1  0  0.098279  0  0.948971  0  0  0.116058  0  1.015246  0  0  0.11727  0  1.014661  0  0  0.101941  0.115122  0  1.015691  0
H  H11  1  0.24274653  0.04884447  0.88619809  1  0  0.09824  0  0.949058  0  0  0.116027  0  1.01532  0  0  0.117238  0  1.014732  0  0  0.101918  0.115091  0  1.015764  0
H  H12  1  0.56616187  0.96156828  0.18957241  1  0  0.099954  0  0.989917  0  0  0.11399  0  1.062651  0  0  0.115921  0  1.061418  0  0  0.097218  0.112504  0  1.063619  0
H  H13  1  0.43384103  0.03842854  0.81042885  1  0  0.099925  0  0.989892  0  0  0.11397  0  1.062624  0  0  0.115898  0  1.061396  0  0  0.097212  0.112484  0  1.063592  0
H  H14  1  0.71812822  0.84747984  0.23942341  1  0  0.093002  0  0.919343  0  0  0.114426  0  0.979486  0  0  0.11524  0  0.97882  0  0  0.09915  0.113738  0  0.980053  0
H  H15  1  0.28187577  0.15251780  0.76057938  1  0  0.092989  0  0.919319  0  0  0.1144  0  0.979488  0  0  0.115214  0  0.97882  0  0  0.099154  0.113713  0  0.980056  0
H  H16  1  0.49889574  0.92477489  0.07346090  1  0  0.096377  0  0.967166  0  0  0.116994  0  1.031666  0  0  0.117523  0  1.031835  0  0  0.103664  0.116511  0  1.03166  0
H  H17  1  0.50110606  0.07522756  0.92653594  1  0  0.096363  0  0.967237  0  0  0.116987  0  1.031723  0  0  0.117512  0  1.031898  0  0  0.103659  0.116504  0  1.031716  0
H  H18  1  0.48373093  0.82605383  0.03329346  1  0  0.089215  0  0.962013  0  0  0.109189  0  1.028067  0  0  0.108788  0  1.030397  0  0  0.099765  0.109388  0  1.026519  0
H  H19  1  0.51626993  0.17394699  0.96670219  1  0  0.089098  0  0.962131  0  0  0.109124  0  1.028123  0  0  0.108723  0  1.030451  0  0  0.099744  0.109324  0  1.026574  0
H  H20  1  0.49142161  0.78785338  0.16548472  1  0  0.095119  0  0.935429  0  0  0.11446  0  1.000298  0  0  0.114122  0  1.001475  0  0  0.098385  0.114581  0  0.999547  0
H  H21  1  0.50857408  0.21214907  0.83451210  1  0  0.095221  0  0.935316  0  0  0.114523  0  1.000241  0  0  0.114185  0  1.001416  0  0  0.098406  0.114643  0  0.999493  0
H  H22  1  0.19449607  0.73165968  0.11599158  1  0  0.093801  0  0.927054  0  0  0.116526  0  0.988049  0  0  0.116897  0  0.987709  0  0  0.099347  0.116152  0  0.988383  0
H  H23  1  0.80550208  0.26834278  0.88400632  1  0  0.093865  0  0.927135  0  0  0.116594  0  0.988098  0  0  0.116966  0  0.987757  0  0  0.099388  0.116221  0  0.988434  0
H  H24  1  0.22874347  0.83541515  0.98941664  1  0  0.100436  0  0.950048  0  0  0.119874  0  1.014547  0  0  0.120743  0  1.014375  0  0  0.100906  0.119158  0  1.014782  0
H  H25  1  0.77125465  0.16458730  0.01057925  1  0  0.100442  0  0.950068  0  0  0.119889  0  1.014558  0  0  0.120757  0  1.014386  0  0  0.100893  0.119171  0  1.014796  0
H  H26  1  0.04860251  0.85099741  0.07125245  1  0  0.108611  0  0.962641  0  0  0.124181  0  1.032042  0  0  0.126014  0  1.030627  0  0  0.106543  0.122807  0  1.033085  0
H  H27  1  0.95139777  0.14900665  0.92874383  1  0  0.108634  0  0.962642  0  0  0.124209  0  1.032035  0  0  0.126042  0  1.030619  0  0  0.106541  0.122834  0  1.03308  0
H  H28  1  0.11905158  0.95398535  0.55639535  1  0  0.138454  0  0.944963  0  0  0.143573  0  1.010249  0  0  0.147711  0  1.008394  0  0  0.114572  0.140575  0  1.011801  0
H  H29  1  0.88095041  0.04601631  0.44360384  1  0  0.138509  0  0.944903  0  0  0.143624  0  1.0102  0  0  0.14776  0  1.008353  0  0  0.114604  0.140626  0  1.011751  0
H  H30  1  0.10160785  0.77313894  0.70399545  1  0  0.087573  0  0.952396  0  0  0.091164  0  1.023345  0  0  0.093868  0  1.020586  0  0  0.116296  0.089119  0  1.025422  0
H  H31  1  0.89839145  0.22686437  0.29600802  1  0  0.087596  0  0.952505  0  0  0.091185  0  1.023457  0  0  0.093886  0  1.020697  0  0  0.116303  0.089142  0  1.025535  0
H  H32  1  0.32211019  0.61795686  0.52392551  1  0  0.091407  0  0.940963  0  0  0.097387  0  1.005558  0  0  0.099841  0  1.002918  0  0  0.118746  0.095567  0  1.007462  0
H  H33  1  0.67789521  0.38203999  0.47608018  1  0  0.091428  0  0.940972  0  0  0.097464  0  1.0055  0  0  0.099917  0  1.002857  0  0  0.118768  0.095642  0  1.007404  0
H  H34  1  0.34595262  0.79178120  0.36840574  1  0  0.149082  0  0.949839  0  0  0.155069  0  1.010881  0  0  0.159114  0  1.009175  0  0  0.118744  0.152154  0  1.012301  0
H  H35  1  0.65405164  0.20821480  0.63159506  1  0  0.14918  0  0.949812  0  0  0.155134  0  1.010889  0  0  0.15918  0  1.009181  0  0  0.118779  0.152219  0  1.012309  0
H  H36  1  0.08659541  0.31252914  0.89482238  1  0  0.084958  0  0.945128  0  0  0.093798  0  1.006874  0  0  0.096262  0  1.004322  0  0  0.121534  0.091969  0  1.008742  0
H  H37  1  0.91340789  0.68747168  0.10517300  1  0  0.084935  0  0.945158  0  0  0.093745  0  1.00693  0  0  0.096209  0  1.004379  0  0  0.121526  0.091916  0  1.008796  0
H  H38  1  0.06950147  0.16305967  0.07108168  1  0  0.131721  0  0.958334  0  0  0.140275  0  1.018386  0  0  0.142916  0  1.018512  0  0  0.11806  0.13832  0  1.018609  0
H  H39  1  0.93049438  0.83694198  0.92891616  1  0  0.131691  0  0.958439  0  0  0.140249  0  1.018488  0  0  0.142892  0  1.018614  0  0  0.118045  0.138295  0  1.018707  0
H  H40  1  0.44589341  0.29196980  0.13305035  1  0  0.141037  0  0.960106  0  0  0.143686  0  1.028437  0  0  0.148776  0  1.024748  0  0  0.114154  0.139947  0  1.031379  0
H  H41  1  0.55410082  0.70802784  0.86695283  1  0  0.141023  0  0.960091  0  0  0.143691  0  1.028398  0  0  0.148784  0  1.024703  0  0  0.114154  0.139952  0  1.03134  0
H  H42  1  0.44649348  0.43564277  0.95354017  1  0  0.083563  0  0.940698  0  0  0.091878  0  1.004744  0  0  0.094118  0  1.002585  0  0  0.119006  0.090175  0  1.006369  0
H  H43  1  0.55350627  0.56435811  0.04646366  1  0  0.083532  0  0.940699  0  0  0.09185  0  1.004745  0  0  0.094089  0  1.002588  0  0  0.118978  0.090149  0  1.006371  0
H  H44  1  0.87770152  0.51129231  0.89553442  1  0  0.094801  0  0.942139  0  0  0.110816  0  1.008425  0  0  0.111072  0  1.009344  0  0  0.098737  0.110499  0  1.007961  0
H  H45  1  0.12229806  0.48870937  0.10446772  1  0  0.094838  0  0.942123  0  0  0.110834  0  1.008425  0  0  0.11109  0  1.009344  0  0  0.098751  0.110518  0  1.007958  0
H  H46  1  0.72906337  0.47982584  0.84318086  1  0  0.084265  0  0.952584  0  0  0.098653  0  1.024668  0  0  0.099974  0  1.023109  0  0  0.094144  0.097607  0  1.025866  0
H  H47  1  0.27093590  0.52017745  0.15681992  1  0  0.084258  0  0.952533  0  0  0.098653  0  1.024628  0  0  0.099974  0  1.023069  0  0  0.094129  0.097606  0  1.025824  0
H  H48  1  0.79544793  0.61129301  0.78024075  1  0  0.077588  0  0.928575  0  0  0.097205  0  0.98764  0  0  0.098117  0  0.987138  0  0  0.093195  0.096442  0  0.98813  0
H  H49  1  0.20455179  0.38870786  0.21976106  1  0  0.077529  0  0.928622  0  0  0.097164  0  0.987676  0  0  0.098075  0  0.987173  0  0  0.093195  0.096403  0  0.988168  0
H  H50  1  0.93079999  0.48894003  0.71021305  1  0  0.385697  0  0.817185  0  0  0.377729  0  0.858292  0  0  0.385231  0  0.850971  0  0  0.340006  0.372257  0  0.863775  0
H  H51  1  0.06920005  0.51105924  0.28979012  1  0  0.385605  0  0.817251  0  0  0.377637  0  0.858359  0  0  0.385139  0  0.851041  0  0  0.340001  0.372163  0  0.863845  0
C  C52  1  0.93350555  0.98735895  0.22476678  1  0  0.594269  0  3.874474  0  0  0.538303  0  4.159682  0  0  0.569018  0  4.164279  0  0  0.345481  0.517796  0  4.155817  0
C  C53  1  0.06649443  0.01264027  0.77523169  1  0  0.594195  0  3.874571  0  0  0.538229  0  4.159798  0  0  0.568944  0  4.164394  0  0  0.345419  0.517721  0  4.155932  0
C  C54  1  0.18659977  0.92505588  0.16016561  1  0  0.600103  0  3.869481  0  0  0.543611  0  4.15295  0  0  0.574538  0  4.157334  0  0  0.34888  0.522962  0  4.149215  0
C  C55  1  0.81339761  0.07494415  0.83983279  1  0  0.599925  0  3.869725  0  0  0.543497  0  4.153146  0  0  0.574426  0  4.157529  0  0  0.348807  0.522847  0  4.14941  0
C  C56  1  0.65749883  0.04386063  0.28872608  1  0  -0.150276  0  3.665014  0  0  -0.249546  0  3.912505  0  0  -0.245495  0  3.921931  0  0  -0.137047  -0.252013  0  3.906067  0
C  C57  1  0.34250512  0.95613698  0.71127336  1  0  -0.150233  0  3.664964  0  0  -0.249501  0  3.912466  0  0  -0.245448  0  3.921893  0  0  -0.137036  -0.25197  0  3.906026  0
C  C58  1  0.69853819  0.93535920  0.19108442  1  0  -0.168341  0  3.684188  0  0  -0.270521  0  3.937614  0  0  -0.266802  0  3.946323  0  0  -0.142975  -0.272699  0  3.931587  0
C  C59  1  0.30146211  0.06463842  0.80891676  1  0  -0.168257  0  3.684197  0  0  -0.270434  0  3.937605  0  0  -0.266716  0  3.946327  0  0  -0.142948  -0.272612  0  3.931578  0
C  C60  1  0.44492236  0.85168808  0.09413832  1  0  -0.151661  0  3.659249  0  0  -0.253092  0  3.907236  0  0  -0.249255  0  3.918777  0  0  -0.137322  -0.255388  0  3.899258  0
C  C61  1  0.55507834  0.14831354  0.90585631  1  0  -0.1517  0  3.659288  0  0  -0.253118  0  3.907267  0  0  -0.249287  0  3.918826  0  0  -0.137352  -0.255413  0  3.899288  0
C  C62  1  0.17911828  0.81970035  0.06818815  1  0  -0.164303  0  3.662382  0  0  -0.26805  0  3.915368  0  0  -0.263958  0  3.924028  0  0  -0.138975  -0.270545  0  3.909458  0
C  C63  1  0.82088352  0.18030210  0.93180868  1  0  -0.164448  0  3.662489  0  0  -0.268172  0  3.915471  0  0  -0.264078  0  3.924128  0  0  -0.139021  -0.27067  0  3.909567  0
C  C64  1  0.23414181  0.88633491  0.45097554  1  0  0.360755  0  3.770478  0  0  0.345079  0  4.030748  0  0  0.359464  0  4.045153  0  0  0.114114  0.335448  0  4.020873  0
C  C65  1  0.76586294  0.11366514  0.54902542  1  0  0.360932  0  3.770272  0  0  0.345097  0  4.030721  0  0  0.35948  0  4.045128  0  0  0.114156  0.335463  0  4.02085  0
C  C66  1  0.16402340  0.88160150  0.54571868  1  0  -0.214756  0  3.687515  0  0  -0.235408  0  3.941537  0  0  -0.244711  0  3.959456  0  0  -0.087555  -0.229447  0  3.929675  0
C  C67  1  0.83597758  0.11839939  0.45428568  1  0  -0.214835  0  3.687606  0  0  -0.235455  0  3.941686  0  0  -0.244758  0  3.959604  0  0  -0.087633  -0.229491  0  3.929824  0
C  C68  1  0.15533538  0.78061966  0.62851131  1  0  0.149812  0  3.707994  0  0  0.118166  0  3.96004  0  0  0.126863  0  3.978354  0  0  0.046619  0.112551  0  3.947538  0
C  C69  1  0.84466511  0.21937717  0.37149222  1  0  0.149724  0  3.708082  0  0  0.11808  0  3.960101  0  0  0.126781  0  3.97841  0  0  0.046593  0.112463  0  3.947604  0
C  C70  1  0.27764023  0.69394952  0.52827626  1  0  0.161831  0  3.693556  0  0  0.132108  0  3.939082  0  0  0.140845  0  3.958175  0  0  0.053464  0.126461  0  3.926053  0
C  C71  1  0.72236784  0.30605212  0.47172160  1  0  0.161735  0  3.693787  0  0  0.131976  0  3.93928  0  0  0.140714  0  3.958374  0  0  0.053486  0.126328  0  3.926248  0
C  C72  1  0.29105518  0.79146077  0.44097970  1  0  -0.225068  0  3.680435  0  0  -0.242411  0  3.924237  0  0  -0.252899  0  3.944062  0  0  -0.086759  -0.2357  0  3.911133  0
C  C73  1  0.70894948  0.20854013  0.55902560  1  0  -0.225157  0  3.6801  0  0  -0.242456  0  3.923983  0  0  -0.252943  0  3.943805  0  0  -0.086829  -0.235742  0  3.910882  0
C  C74  1  0.16557386  0.30381216  0.94972738  1  0  0.163513  0  3.697712  0  0  0.131807  0  3.948591  0  0  0.141376  0  3.965207  0  0  0.0542  0.125571  0  3.937299  0
C  C75  1  0.83442263  0.69618627  0.05027318  1  0  0.163544  0  3.697905  0  0  0.131881  0  3.948779  0  0  0.141446  0  3.9654  0  0  0.054254  0.125648  0  3.937481  0
C  C76  1  0.15717482  0.22005351  0.04824997  1  0  -0.229324  0  3.709562  0  0  -0.250297  0  3.964695  0  0  -0.259192  0  3.982742  0  0  -0.088458  -0.244724  0  3.952979  0
C  C77  1  0.84282476  0.77994818  0.95175216  1  0  -0.229268  0  3.709502  0  0  -0.250241  0  3.964609  0  0  -0.25914  0  3.982652  0  0  -0.08843  -0.244666  0  3.952885  0
C  C78  1  0.25627033  0.21683042  0.11603178  1  0  0.369402  0  3.758428  0  0  0.352228  0  4.019538  0  0  0.367697  0  4.031899  0  0  0.116747  0.341755  0  4.011217  0
C  C79  1  0.74371883  0.78316802  0.88396957  1  0  0.369368  0  3.758455  0  0  0.352203  0  4.019595  0  0  0.367689  0  4.031933  0  0  0.116699  0.341733  0  4.01127  0
C  C80  1  0.36435036  0.29345908  0.08279003  1  0  -0.221074  0  3.691698  0  0  -0.239771  0  3.947948  0  0  -0.249187  0  3.964764  0  0  -0.087628  -0.233728  0  3.937023  0
C  C81  1  0.63565118  0.70653855  0.91721168  1  0  -0.221019  0  3.691735  0  0  -0.239715  0  3.947942  0  0  -0.249136  0  3.964752  0  0  -0.087576  -0.23367  0  3.937014  0
C  C82  1  0.36494323  0.37360856  0.98281566  1  0  0.148226  0  3.710863  0  0  0.115449  0  3.963692  0  0  0.12419  0  3.982535  0  0  0.047381  0.109777  0  3.950867  0
C  C83  1  0.63505926  0.62639071  0.01718792  1  0  0.148216  0  3.710756  0  0  0.115447  0  3.963618  0  0  0.124189  0  3.98246  0  0  0.04743  0.10977  0  3.950798  0
C  C84  1  0.83355916  0.52462881  0.82506458  1  0  -0.024945  0  3.625397  0  0  -0.123555  0  3.901951  0  0  -0.117013  0  3.90543  0  0  -0.153806  -0.127854  0  3.899646  0
C  C85  1  0.16644040  0.47537287  0.17493621  1  0  -0.024966  0  3.6254  0  0  -0.123605  0  3.901995  0  0  -0.117051  0  3.905453  0  0  -0.153845  -0.127905  0  3.899691  0
N  N86  1  0.28373746  0.96203643  0.19893001  1  0  -0.831798  0  2.983389  0  0  -0.768112  0  3.274866  0  0  -0.794698  0  3.272893  0  0  -0.393851  -0.749828  0  3.275633  0
N  N87  1  0.71626068  0.03796602  0.80106722  1  0  -0.831707  0  2.983457  0  0  -0.768025  0  3.274921  0  0  -0.794609  0  3.272947  0  0  -0.393791  -0.749739  0  3.275688  0
N  N88  1  0.99241317  0.03380189  0.27318711  1  0  -0.835388  0  2.959457  0  0  -0.777392  0  3.256721  0  0  -0.803885  0  3.253959  0  0  -0.400385  -0.759136  0  3.257984  0
N  N89  1  0.00758898  0.96619251  0.72681598  1  0  -0.835358  0  2.959585  0  0  -0.77734  0  3.256823  0  0  -0.803833  0  3.25406  0  0  -0.400384  -0.759082  0  3.258085  0
N  N90  1  0.02121349  0.93586217  0.17096958  1  0  -0.634246  0  3.06255  0  0  -0.59458  0  3.346023  0  0  -0.619629  0  3.351615  0  0  -0.367297  -0.577628  0  3.341637  0
N  N91  1  0.97878462  0.06414026  0.82902497  1  0  -0.634151  0  3.062539  0  0  -0.594512  0  3.346006  0  0  -0.61956  0  3.351598  0  0  -0.367265  -0.577559  0  3.341619  0
N  N92  1  0.26640439  0.87264162  0.10461534  1  0  -0.136436  0  3.403997  0  0  -0.032647  0  3.637268  0  0  -0.052722  0  3.659082  0  0  -0.275906  -0.019145  0  3.621991  0
N  N93  1  0.73359617  0.12736082  0.89538029  1  0  -0.136267  0  3.403892  0  0  -0.03258  0  3.637252  0  0  -0.052657  0  3.659066  0  0  -0.275836  -0.019077  0  3.621974  0
N  N94  1  0.76800411  0.99377996  0.23065784  1  0  -0.136845  0  3.408973  0  0  -0.032023  0  3.639185  0  0  -0.052158  0  3.661618  0  0  -0.277141  -0.018486  0  3.62349  0
N  N95  1  0.23199588  0.00621927  0.76934197  1  0  -0.136901  0  3.408912  0  0  -0.032059  0  3.639113  0  0  -0.052196  0  3.661542  0  0  -0.277148  -0.018522  0  3.623419  0
N  N96  1  0.21222156  0.68814388  0.62056522  1  0  -0.356788  0  3.292857  0  0  -0.273916  0  3.55543  0  0  -0.29695  0  3.575182  0  0  -0.340285  -0.258218  0  3.541572  0
N  N97  1  0.78777925  0.31185782  0.37943813  1  0  -0.35671  0  3.293039  0  0  -0.273829  0  3.555609  0  0  -0.296863  0  3.575363  0  0  -0.340284  -0.25813  0  3.541752  0
N  N98  1  0.26571349  0.38009031  0.91743772  1  0  -0.356133  0  3.292405  0  0  -0.275397  0  3.557994  0  0  -0.298687  0  3.579201  0  0  -0.343012  -0.259521  0  3.543182  0
N  N99  1  0.73428990  0.61991056  0.08256436  1  0  -0.356128  0  3.292573  0  0  -0.275439  0  3.558207  0  0  -0.298729  0  3.579416  0  0  -0.343103  -0.259564  0  3.543397  0
N  N100  1  0.51800265  0.42594676  0.67983056  1  0  0.710095  0  4.12504  0  0  0.73017  0  4.434872  0  0  0.759066  0  4.440994  0  0  0.088709  0.71071  0  4.430242  0
N  N101  1  0.48198800  0.57405004  0.32016800  1  0  0.709859  0  4.124735  0  0  0.729932  0  4.4346  0  0  0.75883  0  4.44072  0  0  0.088553  0.710474  0  4.42997  0
N  N102  1  0.23553256  0.64891270  0.88314155  1  0  0.682873  0  4.142093  0  0  0.725205  0  4.423508  0  0  0.742714  0  4.445595  0  0  0.091371  0.705829  0  4.418909  0
N  N103  1  0.76447063  0.35108895  0.11685617  1  0  0.68317  0  4.141697  0  0  0.72532  0  4.42333  0  0  0.74294  0  4.445276  0  0  0.091443  0.705944  0  4.418742  0
O  O104  1  0.25188726  0.98719270  0.37055315  1  0  -0.470838  0  2.27763  0  0  -0.389845  0  2.515141  0  0  -0.409754  0  2.505906  0  0  -0.166464  -0.37589  0  2.52114  0
O  O105  1  0.74811642  0.01280655  0.62944828  1  0  -0.470959  0  2.277664  0  0  -0.389817  0  2.51513  0  0  -0.409726  0  2.505895  0  0  -0.166413  -0.37586  0  2.521131  0
O  O106  1  0.25289309  0.14249577  0.21740697  1  0  -0.465548  0  2.279776  0  0  -0.385271  0  2.518333  0  0  -0.405714  0  2.509004  0  0  -0.163212  -0.370869  0  2.524333  0
O  O107  1  0.74710541  0.85750510  0.78259497  1  0  -0.465553  0  2.279815  0  0  -0.38535  0  2.518451  0  0  -0.405802  0  2.509121  0  0  -0.163204  -0.370947  0  2.52445  0
O  O108  1  0.10304620  0.62367207  0.87233853  1  0  -0.491096  0  1.75738  0  0  -0.476123  0  1.97884  0  0  -0.491588  0  1.978055  0  0  -0.203657  -0.462577  0  1.982098  0
O  O109  1  0.89695912  0.37633119  0.12765823  1  0  -0.491175  0  1.757244  0  0  -0.47613  0  1.97875  0  0  -0.491632  0  1.977927  0  0  -0.203652  -0.462567  0  1.981966  0
O  O110  1  0.37053495  0.62644991  0.83448945  1  0  -0.500081  0  1.747792  0  0  -0.480108  0  1.960542  0  0  -0.495526  0  1.95736  0  0  -0.208341  -0.466611  0  1.965358  0
O  O111  1  0.62947100  0.37355013  0.16551003  1  0  -0.500226  0  1.747847  0  0  -0.480184  0  1.960643  0  0  -0.495635  0  1.957423  0  0  -0.208368  -0.466691  0  1.965461  0
O  O112  1  0.23443249  0.69346934  0.93863875  1  0  -0.416676  0  1.75179  0  0  -0.417089  0  1.958985  0  0  -0.426237  0  1.959753  0  0  -0.165189  -0.407936  0  1.961557  0
O  O113  1  0.76556441  0.30653311  0.06135727  1  0  -0.41677  0  1.751525  0  0  -0.417164  0  1.958827  0  0  -0.426349  0  1.959551  0  0  -0.165252  -0.407992  0  1.961376  0
O  O114  1  0.36754613  0.42300722  0.67227979  1  0  -0.511139  0  1.69785  0  0  -0.491146  0  1.914887  0  0  -0.509517  0  1.905532  0  0  -0.227387  -0.478245  0  1.921023  0
O  O115  1  0.63244526  0.57699845  0.32771404  1  0  -0.511001  0  1.697688  0  0  -0.491024  0  1.914744  0  0  -0.509399  0  1.905392  0  0  -0.227281  -0.478123  0  1.920881  0
O  O116  1  0.54403067  0.48638827  0.71753954  1  0  -0.504704  0  1.729377  0  0  -0.484739  0  1.952717  0  0  -0.503301  0  1.944273  0  0  -0.216139  -0.471718  0  1.958209  0
O  O117  1  0.45596499  0.51360771  0.28245749  1  0  -0.504621  0  1.72932  0  0  -0.484651  0  1.952655  0  0  -0.503217  0  1.944216  0  0  -0.21608  -0.471631  0  1.958143  0
O  O118  1  0.63357009  0.37138344  0.65213231  1  0  -0.423057  0  1.720947  0  0  -0.421182  0  1.925256  0  0  -0.431887  0  1.917177  0  0  -0.177335  -0.413716  0  1.930795  0
O  O119  1  0.36641109  0.62860530  0.34786953  1  0  -0.423006  0  1.72073  0  0  -0.42112  0  1.925038  0  0  -0.431825  0  1.916957  0  0  -0.177343  -0.413656  0  1.930578  0
O  O120  1  0.96990647  0.48562802  0.76963398  1  0  -0.529045  0  2.1214  0  0  -0.461638  0  2.357973  0  0  -0.479923  0  2.345037  0  0  -0.402697  -0.448691  0  2.366736  0
O  O121  1  0.03009523  0.51437527  0.23036653  1  0  -0.5289  0  2.121445  0  0  -0.461475  0  2.35799  0  0  -0.479759  0  2.345058  0  0  -0.402663  -0.448527  0  2.366756  0
