# generated using pymatgen
data_ZnH2CN8
_symmetry_space_group_name_H-M   'P 1'
_cell_length_a   10.70309200
_cell_length_b   10.80536269
_cell_length_c   11.31609097
_cell_angle_alpha   89.99999651
_cell_angle_beta   90.00001437
_cell_angle_gamma   114.29671838
_symmetry_Int_Tables_number   1
_chemical_formula_structural   ZnH2CN8
_chemical_formula_sum   'Zn8 H16 C8 N64'
_cell_volume   1192.79786650
_cell_formula_units_Z   8
loop_
 _symmetry_equiv_pos_site_id
 _symmetry_equiv_pos_as_xyz
  1  'x, y, z'
loop_
 _atom_site_type_symbol
 _atom_site_label
 _atom_site_symmetry_multiplicity
 _atom_site_fract_x
 _atom_site_fract_y
 _atom_site_fract_z
 _atom_site_occupancy
 _atom_site_hle17_bader_spin_density
 _atom_site_hle17_ddec_charge
 _atom_site_hle17_ddec_spin_density
 _atom_site_hle17_ddec_sum_bond_order
 _atom_site_hle17_magmom
 _atom_site_hse06_10hf_bader_spin_density
 _atom_site_hse06_10hf_ddec_charge
 _atom_site_hse06_10hf_ddec_spin_density
 _atom_site_hse06_10hf_ddec_sum_bond_order
 _atom_site_hse06_10hf_magmom
 _atom_site_hse06_bader_spin_density
 _atom_site_hse06_ddec_charge
 _atom_site_hse06_ddec_spin_density
 _atom_site_hse06_ddec_sum_bond_order
 _atom_site_hse06_magmom
 _atom_site_pbe_bader_spin_density
 _atom_site_pbe_cm5_charge
 _atom_site_pbe_ddec_charge
 _atom_site_pbe_ddec_spin_density
 _atom_site_pbe_ddec_sum_bond_order
 _atom_site_pbe_magmom
Zn  Zn0  1  0.63594095  0.58845067  0.67582089  1  0  0.965348  0  2.003153  0  0  0.794595  0  2.486611  0  0  0.829862  0  2.446136  0  0  0.723277  0.770458  0  2.514411  0
Zn  Zn1  1  0.86405866  0.91154928  0.17581962  1  0  0.965449  0  2.003056  0  0  0.794725  0  2.486512  0  0  0.82999  0  2.446028  0  0  0.723308  0.770595  0  2.514309  0
Zn  Zn2  1  0.36405899  0.41154964  0.32418000  1  0  0.965414  0  2.003077  0  0  0.794678  0  2.486533  0  0  0.829942  0  2.446054  0  0  0.723285  0.770539  0  2.514333  0
Zn  Zn3  1  0.13594128  0.08845104  0.82417950  1  0  0.965391  0  2.003114  0  0  0.794645  0  2.486571  0  0  0.829906  0  2.446092  0  0  0.723293  0.77051  0  2.51437  0
Zn  Zn4  1  0.69830052  0.68003352  0.36948454  1  0  0.955525  0  2.040328  0  0  0.785866  0  2.528127  0  0  0.819992  0  2.487756  0  0  0.726896  0.76321  0  2.555117  0
Zn  Zn5  1  0.80170050  0.81996745  0.86948495  1  0  0.955488  0  2.040318  0  0  0.785824  0  2.528106  0  0  0.819945  0  2.487746  0  0  0.726865  0.76316  0  2.5551  0
Zn  Zn6  1  0.30170035  0.31996680  0.63051546  1  0  0.955517  0  2.040345  0  0  0.785851  0  2.528145  0  0  0.819969  0  2.48778  0  0  0.726872  0.763182  0  2.555138  0
Zn  Zn7  1  0.19830080  0.18003388  0.13051505  1  0  0.955515  0  2.040339  0  0  0.785866  0  2.528132  0  0  0.819987  0  2.487768  0  0  0.726894  0.763204  0  2.555128  0
H  H8  1  0.67442995  0.28462623  0.64377008  1  0  0.129324  0  0.929948  0  0  0.133463  0  1.00167  0  0  0.136082  0  0.998251  0  0  0.149636  0.131973  0  1.003352  0
H  H9  1  0.82556976  0.21537221  0.14376528  1  0  0.129385  0  0.929813  0  0  0.13346  0  1.001611  0  0  0.136076  0  0.998196  0  0  0.149615  0.13197  0  1.003294  0
H  H10  1  0.32557009  0.71537206  0.35623434  1  0  0.129391  0  0.92981  0  0  0.133461  0  1.001621  0  0  0.136078  0  0.998206  0  0  0.149619  0.131971  0  1.003304  0
H  H11  1  0.17442976  0.78462709  0.85622942  1  0  0.129306  0  0.929901  0  0  0.133473  0  1.001589  0  0  0.136089  0  0.998175  0  0  0.149637  0.131982  0  1.003272  0
H  H12  1  0.77217362  0.41434451  0.28932349  1  0  0.131998  0  0.925607  0  0  0.136572  0  0.996189  0  0  0.138865  0  0.992926  0  0  0.152725  0.135218  0  0.997667  0
H  H13  1  0.72782333  0.08565394  0.78931770  1  0  0.131999  0  0.925587  0  0  0.136568  0  0.996198  0  0  0.138859  0  0.99294  0  0  0.152685  0.135209  0  0.997689  0
H  H14  1  0.22782403  0.58565479  0.71068270  1  0  0.131994  0  0.925596  0  0  0.136574  0  0.996193  0  0  0.138864  0  0.992937  0  0  0.152682  0.135214  0  0.997682  0
H  H15  1  0.27217390  0.91434434  0.21067611  1  0  0.132016  0  0.925598  0  0  0.136598  0  0.996169  0  0  0.138892  0  0.992907  0  0  0.152723  0.135244  0  0.997646  0
H  H16  1  0.64567011  0.11132065  0.43517685  1  0  0.282108  0  0.926062  0  0  0.265504  0  1.008582  0  0  0.269584  0  1.004786  0  0  0.296239  0.263314  0  1.010069  0
H  H17  1  0.85433011  0.38867883  0.93517727  1  0  0.282109  0  0.926061  0  0  0.265505  0  1.008576  0  0  0.269585  0  1.004779  0  0  0.29624  0.263314  0  1.010063  0
H  H18  1  0.35433035  0.88867865  0.56482315  1  0  0.282106  0  0.926067  0  0  0.265503  0  1.008586  0  0  0.269584  0  1.004788  0  0  0.296234  0.263312  0  1.010073  0
H  H19  1  0.14567035  0.61132048  0.06482274  1  0  0.2821  0  0.926063  0  0  0.265496  0  1.008579  0  0  0.269576  0  1.004781  0  0  0.29624  0.263305  0  1.010065  0
H  H20  1  0.80839003  0.17913803  0.48103016  1  0  0.2849  0  0.937898  0  0  0.268335  0  1.018613  0  0  0.273257  0  1.013817  0  0  0.293959  0.265242  0  1.021219  0
H  H21  1  0.69161114  0.32086145  0.98103054  1  0  0.284906  0  0.937893  0  0  0.268342  0  1.018597  0  0  0.273266  0  1.013798  0  0  0.293971  0.26525  0  1.021204  0
H  H22  1  0.19161085  0.82086229  0.51896985  1  0  0.284912  0  0.937884  0  0  0.268349  0  1.018594  0  0  0.273273  0  1.013796  0  0  0.293967  0.265256  0  1.021201  0
H  H23  1  0.30838932  0.67913785  0.01896947  1  0  0.284879  0  0.937917  0  0  0.268313  0  1.018628  0  0  0.273238  0  1.01383  0  0  0.293959  0.265221  0  1.021234  0
C  C24  1  0.69336140  0.34590728  0.56420904  1  0  0.163521  0  3.580718  0  0  0.083964  0  3.84713  0  0  0.095695  0  3.860412  0  0  0.173895  0.076179  0  3.83809  0
C  C25  1  0.80663777  0.15409218  0.06420336  1  0  0.163481  0  3.580756  0  0  0.083997  0  3.847198  0  0  0.095728  0  3.860482  0  0  0.173908  0.076212  0  3.838158  0
C  C26  1  0.30663625  0.65409202  0.43579627  1  0  0.163499  0  3.58069  0  0  0.084007  0  3.847141  0  0  0.095738  0  3.860423  0  0  0.173909  0.076221  0  3.8381  0
C  C27  1  0.19336175  0.84590712  0.93579134  1  0  0.163482  0  3.580717  0  0  0.08394  0  3.847114  0  0  0.095664  0  3.860406  0  0  0.173877  0.076157  0  3.838075  0
C  C28  1  0.74347247  0.41294638  0.38124569  1  0  0.180105  0  3.578011  0  0  0.098601  0  3.84338  0  0  0.111005  0  3.856156  0  0  0.179274  0.090951  0  3.833838  0
C  C29  1  0.75652222  0.08705106  0.88124079  1  0  0.18019  0  3.577959  0  0  0.098676  0  3.843316  0  0  0.111082  0  3.856089  0  0  0.179355  0.091028  0  3.833768  0
C  C30  1  0.25652290  0.58705191  0.61875962  1  0  0.180159  0  3.577979  0  0  0.098633  0  3.843347  0  0  0.111033  0  3.856124  0  0  0.179331  0.090982  0  3.833801  0
C  C31  1  0.24347366  0.91294620  0.11875391  1  0  0.179995  0  3.577958  0  0  0.098516  0  3.843345  0  0  0.110913  0  3.856127  0  0  0.179286  0.090867  0  3.833801  0
N  N32  1  0.63320261  0.70820601  0.53296944  1  0  -0.622596  0  2.893604  0  0  -0.571977  0  3.248844  0  0  -0.595745  0  3.248407  0  0  -0.339758  -0.556221  0  3.249183  0
N  N33  1  0.86679883  0.79179394  0.03296995  1  0  -0.622702  0  2.893677  0  0  -0.572112  0  3.248936  0  0  -0.595882  0  3.248499  0  0  -0.339756  -0.556356  0  3.249278  0
N  N34  1  0.36679827  0.29179431  0.46703057  1  0  -0.622687  0  2.893667  0  0  -0.572074  0  3.248914  0  0  -0.595841  0  3.248471  0  0  -0.339747  -0.556316  0  3.249252  0
N  N35  1  0.13320298  0.20820638  0.96703094  1  0  -0.62266  0  2.893617  0  0  -0.572046  0  3.248857  0  0  -0.595813  0  3.248418  0  0  -0.33977  -0.556292  0  3.2492  0
N  N36  1  0.61439735  0.81093045  0.54706175  1  0  0.412408  0  4.181258  0  0  0.441452  0  4.461912  0  0  0.455997  0  4.491305  0  0  0.096288  0.431706  0  4.442418  0
N  N37  1  0.88560316  0.68906950  0.04706227  1  0  0.412622  0  4.181127  0  0  0.441692  0  4.461757  0  0  0.456234  0  4.491155  0  0  0.09639  0.431942  0  4.442271  0
N  N38  1  0.38560395  0.18907089  0.45293737  1  0  0.412639  0  4.181129  0  0  0.44169  0  4.461775  0  0  0.456236  0  4.491162  0  0  0.096367  0.431939  0  4.442288  0
N  N39  1  0.11439730  0.31092980  0.95293773  1  0  0.412532  0  4.181162  0  0  0.441583  0  4.461811  0  0  0.456126  0  4.491206  0  0  0.096341  0.431835  0  4.442322  0
N  N40  1  0.59544194  0.90800981  0.55972867  1  0  -0.30298  0  2.398963  0  0  -0.301988  0  2.62548  0  0  -0.306245  0  2.635847  0  0  -0.140895  -0.298942  0  2.618034  0
N  N41  1  0.90455993  0.59199115  0.05972920  1  0  -0.303092  0  2.398818  0  0  -0.302125  0  2.625349  0  0  -0.306378  0  2.635716  0  0  -0.140978  -0.299078  0  2.617908  0
N  N42  1  0.40456029  0.09199152  0.44027134  1  0  -0.303139  0  2.39883  0  0  -0.302166  0  2.625371  0  0  -0.306416  0  2.635731  0  0  -0.140977  -0.299119  0  2.617931  0
N  N43  1  0.09544095  0.40800917  0.94027169  1  0  -0.303053  0  2.398872  0  0  -0.302067  0  2.625395  0  0  -0.306321  0  2.635762  0  0  -0.140939  -0.29902  0  2.617951  0
N  N44  1  0.61515475  0.74268722  0.79189365  1  0  -0.621451  0  2.910151  0  0  -0.571922  0  3.245356  0  0  -0.596609  0  3.249685  0  0  -0.331576  -0.555609  0  3.242828  0
N  N45  1  0.88484583  0.75731273  0.29189417  1  0  -0.621496  0  2.910162  0  0  -0.571965  0  3.245381  0  0  -0.596647  0  3.249693  0  0  -0.331573  -0.55565  0  3.24285  0
N  N46  1  0.38484571  0.25731208  0.20810635  1  0  -0.621486  0  2.910207  0  0  -0.571944  0  3.245417  0  0  -0.596628  0  3.249736  0  0  -0.331564  -0.55563  0  3.242887  0
N  N47  1  0.11515505  0.24268758  0.70810672  1  0  -0.621471  0  2.910186  0  0  -0.571942  0  3.245411  0  0  -0.59662  0  3.249721  0  0  -0.331571  -0.555627  0  3.242879  0
N  N48  1  0.51134672  0.75005183  0.82475304  1  0  0.42733  0  4.216964  0  0  0.455765  0  4.500451  0  0  0.471096  0  4.529996  0  0  0.098519  0.445483  0  4.481013  0
N  N49  1  0.98865387  0.74994813  0.32475358  1  0  0.427394  0  4.21691  0  0  0.455815  0  4.500408  0  0  0.471145  0  4.529956  0  0  0.098528  0.445534  0  4.48097  0
N  N50  1  0.48865416  0.24994849  0.17524696  1  0  0.427364  0  4.216897  0  0  0.455783  0  4.500397  0  0  0.471114  0  4.529941  0  0  0.098496  0.445501  0  4.48096  0
N  N51  1  0.01134701  0.25005219  0.67524642  1  0  0.427345  0  4.216983  0  0  0.455769  0  4.500474  0  0  0.471101  0  4.530023  0  0  0.09852  0.445488  0  4.481036  0
N  N52  1  0.40960682  0.75518103  0.85387881  1  0  -0.367599  0  2.446578  0  0  -0.372144  0  2.690685  0  0  -0.378867  0  2.699641  0  0  -0.171349  -0.367708  0  2.684831  0
N  N53  1  0.09039396  0.74481811  0.35387926  1  0  -0.367637  0  2.446507  0  0  -0.372166  0  2.690604  0  0  -0.378887  0  2.699563  0  0  -0.171353  -0.367725  0  2.684746  0
N  N54  1  0.59039364  0.24481827  0.14612031  1  0  -0.367611  0  2.446452  0  0  -0.372145  0  2.690554  0  0  -0.378868  0  2.699508  0  0  -0.171335  -0.367707  0  2.684698  0
N  N55  1  0.90960692  0.25518221  0.64612075  1  0  -0.367607  0  2.446566  0  0  -0.372135  0  2.690667  0  0  -0.378859  0  2.699625  0  0  -0.171342  -0.367698  0  2.684812  0
N  N56  1  0.79746625  0.62985986  0.78792499  1  0  -0.634625  0  2.84035  0  0  -0.587138  0  3.166759  0  0  -0.612285  0  3.171779  0  0  -0.340179  -0.570819  0  3.164071  0
N  N57  1  0.70253568  0.87014111  0.28792457  1  0  -0.634657  0  2.840412  0  0  -0.587176  0  3.16685  0  0  -0.61232  0  3.171853  0  0  -0.34019  -0.570879  0  3.164206  0
N  N58  1  0.20253463  0.37014045  0.21207501  1  0  -0.634639  0  2.840418  0  0  -0.587153  0  3.166855  0  0  -0.612298  0  3.171868  0  0  -0.340176  -0.57084  0  3.16418  0
N  N59  1  0.29746655  0.12986022  0.71207455  1  0  -0.634632  0  2.840445  0  0  -0.58714  0  3.166866  0  0  -0.612288  0  3.171884  0  0  -0.340154  -0.570819  0  3.164174  0
N  N60  1  0.89853184  0.60892376  0.76830339  1  0  0.409899  0  4.207349  0  0  0.442556  0  4.486857  0  0  0.45719  0  4.517548  0  0  0.090977  0.432715  0  4.466951  0
N  N61  1  0.60146967  0.89107620  0.26830383  1  0  0.410038  0  4.207313  0  0  0.442679  0  4.486827  0  0  0.457314  0  4.517523  0  0  0.091083  0.432838  0  4.466917  0
N  N62  1  0.10146904  0.39107656  0.23169662  1  0  0.409954  0  4.207543  0  0  0.44259  0  4.487072  0  0  0.457224  0  4.517764  0  0  0.09102  0.432749  0  4.467166  0
N  N63  1  0.39853121  0.10892412  0.73169618  1  0  0.40994  0  4.2075  0  0  0.442576  0  4.48702  0  0  0.457213  0  4.517714  0  0  0.090979  0.432737  0  4.467116  0
N  N64  1  0.99634555  0.58986237  0.75299953  1  0  -0.34492  0  2.396885  0  0  -0.35153  0  2.628622  0  0  -0.357056  0  2.638764  0  0  -0.168316  -0.34814  0  2.622164  0
N  N65  1  0.50365595  0.91013759  0.25299906  1  0  -0.345056  0  2.39678  0  0  -0.351639  0  2.628504  0  0  -0.357163  0  2.638648  0  0  -0.168414  -0.348243  0  2.622044  0
N  N66  1  0.00365626  0.41013795  0.24700048  1  0  -0.344994  0  2.397017  0  0  -0.351574  0  2.62874  0  0  -0.357098  0  2.638882  0  0  -0.168372  -0.348183  0  2.622283  0
N  N67  1  0.49634493  0.08986273  0.74700094  1  0  -0.344972  0  2.396947  0  0  -0.351555  0  2.628674  0  0  -0.357083  0  2.638819  0  0  -0.168334  -0.348164  0  2.622219  0
N  N68  1  0.46259892  0.43492630  0.73914840  1  0  -0.643379  0  2.88669  0  0  -0.590943  0  3.230673  0  0  -0.616531  0  3.231949  0  0  -0.351659  -0.573385  0  3.229694  0
N  N69  1  0.03740227  0.06507438  0.23914884  1  0  -0.643398  0  2.886744  0  0  -0.590956  0  3.230721  0  0  -0.616543  0  3.231997  0  0  -0.351665  -0.5734  0  3.229742  0
N  N70  1  0.53740196  0.56507402  0.26085161  1  0  -0.643391  0  2.886716  0  0  -0.590953  0  3.230697  0  0  -0.616537  0  3.231964  0  0  -0.351658  -0.573392  0  3.229716  0
N  N71  1  0.96259955  0.93492594  0.76085116  1  0  -0.643352  0  2.886696  0  0  -0.59091  0  3.230675  0  0  -0.616481  0  3.231913  0  0  -0.351657  -0.573354  0  3.229696  0
N  N72  1  0.46608757  0.39673862  0.84025487  1  0  0.416634  0  4.156965  0  0  0.452211  0  4.430865  0  0  0.466691  0  4.458561  0  0  0.09973  0.442372  0  4.412198  0
N  N73  1  0.03391229  0.10326105  0.34025442  1  0  0.416609  0  4.15698  0  0  0.452182  0  4.430882  0  0  0.466662  0  4.458581  0  0  0.099721  0.442345  0  4.41221  0
N  N74  1  0.53391238  0.60326170  0.15974514  1  0  0.416611  0  4.15701  0  0  0.452187  0  4.430912  0  0  0.466666  0  4.458611  0  0  0.099711  0.44235  0  4.412239  0
N  N75  1  0.96608765  0.89673927  0.65974470  1  0  0.416597  0  4.156997  0  0  0.452169  0  4.430897  0  0  0.466652  0  4.4586  0  0  0.099722  0.442332  0  4.412229  0
N  N76  1  0.46799974  0.35947466  0.93552010  1  0  -0.288831  0  2.401441  0  0  -0.294997  0  2.626353  0  0  -0.297969  0  2.63641  0  0  -0.137667  -0.292602  0  2.619579  0
N  N77  1  0.03200014  0.14052501  0.43552054  1  0  -0.288819  0  2.401389  0  0  -0.294981  0  2.626298  0  0  -0.297956  0  2.636359  0  0  -0.137662  -0.292584  0  2.61952  0
N  N78  1  0.53200114  0.64052566  0.06447991  1  0  -0.288816  0  2.40146  0  0  -0.29498  0  2.62637  0  0  -0.297951  0  2.636425  0  0  -0.137646  -0.292582  0  2.61959  0
N  N79  1  0.96799980  0.85947530  0.56447947  1  0  -0.28882  0  2.401445  0  0  -0.29498  0  2.626356  0  0  -0.297959  0  2.636417  0  0  -0.13766  -0.292586  0  2.619582  0
N  N80  1  0.68856975  0.46553027  0.55369304  1  0  -0.246469  0  3.185067  0  0  -0.185564  0  3.477717  0  0  -0.199655  0  3.493455  0  0  -0.229935  -0.175942  0  3.467079  0
N  N81  1  0.81142942  0.03446919  0.05368736  1  0  -0.246518  0  3.185121  0  0  -0.185669  0  3.477804  0  0  -0.199761  0  3.493538  0  0  -0.229903  -0.176045  0  3.467165  0
N  N82  1  0.31142926  0.53447005  0.44631315  1  0  -0.246458  0  3.185094  0  0  -0.185589  0  3.477757  0  0  -0.199678  0  3.493489  0  0  -0.229881  -0.175968  0  3.467118  0
N  N83  1  0.18857010  0.96553011  0.94630734  1  0  -0.246521  0  3.185104  0  0  -0.185613  0  3.477761  0  0  -0.199709  0  3.493506  0  0  -0.229954  -0.175993  0  3.467124  0
N  N84  1  0.72644748  0.30944762  0.45674791  1  0  0.078028  0  3.588729  0  0  0.199922  0  3.773717  0  0  0.187874  0  3.795696  0  0  -0.134489  0.207155  0  3.759853  0
N  N85  1  0.77354909  0.19054983  0.95674301  1  0  0.078002  0  3.588729  0  0  0.199859  0  3.773769  0  0  0.187805  0  3.795753  0  0  -0.134487  0.207093  0  3.759904  0
N  N86  1  0.27354975  0.69055067  0.54325740  1  0  0.077988  0  3.588738  0  0  0.199855  0  3.773784  0  0  0.187809  0  3.79576  0  0  -0.134483  0.207087  0  3.759919  0
N  N87  1  0.22644772  0.80944744  0.04325169  1  0  0.078137  0  3.588624  0  0  0.199951  0  3.773707  0  0  0.18792  0  3.795658  0  0  -0.134453  0.207182  0  3.759844  0
N  N88  1  0.72017938  0.50759599  0.43854285  1  0  -0.249131  0  3.19275  0  0  -0.187395  0  3.486171  0  0  -0.20176  0  3.501519  0  0  -0.236363  -0.178196  0  3.475608  0
N  N89  1  0.77981657  0.99240398  0.93853706  1  0  -0.249163  0  3.192803  0  0  -0.187359  0  3.486182  0  0  -0.201727  0  3.501532  0  0  -0.236405  -0.178161  0  3.475616  0
N  N90  1  0.27981682  0.49240433  0.56146245  1  0  -0.24918  0  3.1928  0  0  -0.187375  0  3.486179  0  0  -0.201745  0  3.50153  0  0  -0.236396  -0.178175  0  3.475613  0
N  N91  1  0.22017964  0.00759634  0.06145676  1  0  -0.249057  0  3.192723  0  0  -0.18734  0  3.486162  0  0  -0.201706  0  3.501517  0  0  -0.236383  -0.178143  0  3.4756  0
N  N92  1  0.73956802  0.19054496  0.42339894  1  0  -0.515123  0  2.897897  0  0  -0.543193  0  3.138723  0  0  -0.55046  0  3.139677  0  0  -0.49924  -0.53839  0  3.136846  0
N  N93  1  0.76043117  0.30945655  0.92339757  1  0  -0.515163  0  2.897836  0  0  -0.543214  0  3.138675  0  0  -0.550471  0  3.139621  0  0  -0.499274  -0.538411  0  3.136796  0
N  N94  1  0.26043141  0.80945638  0.57660283  1  0  -0.515159  0  2.897851  0  0  -0.543227  0  3.138698  0  0  -0.550489  0  3.139645  0  0  -0.499282  -0.53842  0  3.136818  0
N  N95  1  0.23956826  0.69054478  0.07660067  1  0  -0.515075  0  2.897867  0  0  -0.543122  0  3.138708  0  0  -0.550381  0  3.139655  0  0  -0.499228  -0.538318  0  3.136829  0
