# generated using pymatgen
data_ErH8(CO)8
_symmetry_space_group_name_H-M   'P 1'
_cell_length_a   8.70843723
_cell_length_b   10.59105688
_cell_length_c   12.07468909
_cell_angle_alpha   89.99993734
_cell_angle_beta   90.00026113
_cell_angle_gamma   102.45327004
_symmetry_Int_Tables_number   1
_chemical_formula_structural   ErH8(CO)8
_chemical_formula_sum   'Er4 H32 C32 O32'
_cell_volume   1087.46520679
_cell_formula_units_Z   4
loop_
 _symmetry_equiv_pos_site_id
 _symmetry_equiv_pos_as_xyz
  1  'x, y, z'
loop_
 _atom_site_type_symbol
 _atom_site_label
 _atom_site_symmetry_multiplicity
 _atom_site_fract_x
 _atom_site_fract_y
 _atom_site_fract_z
 _atom_site_occupancy
 _atom_site_hle17_bader_spin_density
 _atom_site_hle17_ddec_charge
 _atom_site_hle17_ddec_spin_density
 _atom_site_hle17_ddec_sum_bond_order
 _atom_site_hle17_magmom
 _atom_site_hse06_10hf_bader_spin_density
 _atom_site_hse06_10hf_ddec_charge
 _atom_site_hse06_10hf_ddec_spin_density
 _atom_site_hse06_10hf_ddec_sum_bond_order
 _atom_site_hse06_10hf_magmom
 _atom_site_hse06_bader_spin_density
 _atom_site_hse06_ddec_charge
 _atom_site_hse06_ddec_spin_density
 _atom_site_hse06_ddec_sum_bond_order
 _atom_site_hse06_magmom
 _atom_site_pbe_bader_spin_density
 _atom_site_pbe_cm5_charge
 _atom_site_pbe_ddec_charge
 _atom_site_pbe_ddec_spin_density
 _atom_site_pbe_ddec_sum_bond_order
 _atom_site_pbe_magmom
Er  Er0  1  0.62011631  0.32070467  0.40189279  1  0  2.269751  0  1.594444  0  0  2.12454  0  2.067536  0  0  2.259972  0  1.864679  0  0  1.502812  2.088018  0  2.097649  0
Er  Er1  1  0.37988658  0.67929677  0.90189186  1  0  2.269772  0  1.594566  0  0  2.124598  0  2.067646  0  0  2.259992  0  1.864814  0  0  1.502812  2.08805  0  2.097774  0
Er  Er2  1  0.94919790  0.12095191  0.50135354  1  0  2.274649  0  1.606051  0  0  2.1267  0  2.082974  0  0  2.261678  0  1.880211  0  0  1.499493  2.090257  0  2.113867  0
Er  Er3  1  0.05080287  0.87904671  0.00134879  1  0  2.274669  0  1.606032  0  0  2.126678  0  2.083018  0  0  2.261693  0  1.880193  0  0  1.499532  2.090239  0  2.113906  0
H  H4  1  0.56687685  0.45396175  0.19817974  1  0  0.454898  0  0.798652  0  0  0.432113  0  0.857962  0  0  0.441857  0  0.84375  0  0  0.329852  0.425432  0  0.867877  0
H  H5  1  0.43311048  0.54603779  0.69817662  1  0  0.454914  0  0.798677  0  0  0.432119  0  0.857953  0  0  0.441852  0  0.843753  0  0  0.329869  0.425436  0  0.867869  0
H  H6  1  0.56586195  0.31878347  0.14387695  1  0  0.444282  0  0.810132  0  0  0.425289  0  0.865737  0  0  0.432783  0  0.855614  0  0  0.330269  0.420368  0  0.870783  0
H  H7  1  0.43414658  0.68122382  0.64388116  1  0  0.444287  0  0.810093  0  0  0.425299  0  0.865683  0  0  0.432788  0  0.855597  0  0  0.330278  0.420377  0  0.870729  0
H  H8  1  0.31369181  0.13199579  0.37128952  1  0  0.449322  0  0.847703  0  0  0.418564  0  0.911532  0  0  0.430517  0  0.894114  0  0  0.302441  0.410153  0  0.923965  0
H  H9  1  0.68631102  0.86800179  0.87128611  1  0  0.449336  0  0.84769  0  0  0.418566  0  0.91154  0  0  0.430521  0  0.894116  0  0  0.302443  0.410159  0  0.923966  0
H  H10  1  0.28591957  0.25536796  0.31739155  1  0  0.434548  0  0.831996  0  0  0.409488  0  0.899322  0  0  0.419608  0  0.884576  0  0  0.31307  0.4025  0  0.909704  0
H  H11  1  0.71407987  0.74462673  0.81738834  1  0  0.434531  0  0.832109  0  0  0.409462  0  0.899375  0  0  0.419588  0  0.884621  0  0  0.313041  0.402479  0  0.90975  0
H  H12  1  0.02439362  0.05254839  0.74455915  1  0  0.447943  0  0.845945  0  0  0.4177  0  0.907185  0  0  0.4297  0  0.889895  0  0  0.301844  0.409635  0  0.918848  0
H  H13  1  0.97560612  0.94744921  0.24456233  1  0  0.447903  0  0.846044  0  0  0.417648  0  0.907304  0  0  0.429653  0  0.890009  0  0  0.301816  0.409583  0  0.918968  0
H  H14  1  0.84534179  0.02930533  0.71525623  1  0  0.439923  0  0.814807  0  0  0.418623  0  0.875484  0  0  0.427675  0  0.86611  0  0  0.324747  0.412204  0  0.883104  0
H  H15  1  0.15465495  0.97069905  0.21525421  1  0  0.439889  0  0.814849  0  0  0.418585  0  0.875534  0  0  0.427639  0  0.86616  0  0  0.324721  0.412164  0  0.883155  0
H  H16  1  0.25754113  0.31734877  0.54800942  1  0  0.463861  0  0.827366  0  0  0.430667  0  0.893419  0  0  0.443277  0  0.874968  0  0  0.306492  0.422115  0  0.905983  0
H  H17  1  0.74245584  0.68265178  0.04800132  1  0  0.463847  0  0.827415  0  0  0.43063  0  0.893495  0  0  0.443243  0  0.875041  0  0  0.306491  0.422079  0  0.906055  0
H  H18  1  0.15992939  0.28943154  0.66070617  1  0  0.44201  0  0.805595  0  0  0.428459  0  0.851676  0  0  0.436595  0  0.843333  0  0  0.336496  0.42296  0  0.858038  0
H  H19  1  0.84006816  0.71057285  0.16069753  1  0  0.442017  0  0.805734  0  0  0.428473  0  0.851779  0  0  0.436608  0  0.84334  0  0  0.336501  0.422975  0  0.858132  0
H  H20  1  0.53212743  0.75632477  0.34981906  1  0  0.113278  0  0.933627  0  0  0.122737  0  0.991516  0  0  0.126841  0  0.988546  0  0  0.109204  0.11983  0  0.993523  0
H  H21  1  0.46786585  0.24366314  0.84981550  1  0  0.113299  0  0.933646  0  0  0.12275  0  0.991549  0  0  0.126853  0  0.988581  0  0  0.109206  0.119844  0  0.993555  0
H  H22  1  0.38729847  0.93482988  0.36857036  1  0  0.100052  0  0.956246  0  0  0.110704  0  1.01767  0  0  0.113518  0  1.016812  0  0  0.106803  0.108803  0  1.017999  0
H  H23  1  0.61270078  0.06516287  0.86856578  1  0  0.100021  0  0.956211  0  0  0.110661  0  1.017655  0  0  0.113476  0  1.016796  0  0  0.106776  0.108739  0  1.018037  0
H  H24  1  0.01050605  0.67637482  0.53634975  1  0  0.111707  0  0.946103  0  0  0.120709  0  1.006451  0  0  0.124112  0  1.00439  0  0  0.109777  0.118261  0  1.007898  0
H  H25  1  0.98949200  0.32362573  0.03633947  1  0  0.111665  0  0.946269  0  0  0.120737  0  1.006531  0  0  0.124146  0  1.004459  0  0  0.109746  0.118291  0  1.007975  0
H  H26  1  0.15755434  0.49898591  0.52155797  1  0  0.098953  0  0.95603  0  0  0.107582  0  1.021214  0  0  0.111002  0  1.018794  0  0  0.107646  0.105217  0  1.022651  0
H  H27  1  0.84243406  0.50100884  0.02155037  1  0  0.098996  0  0.956201  0  0  0.107567  0  1.021431  0  0  0.110984  0  1.019013  0  0  0.107646  0.105202  0  1.022873  0
H  H28  1  0.17475608  0.38404517  0.19137730  1  0  0.126151  0  0.923019  0  0  0.137242  0  0.977328  0  0  0.142136  0  0.972878  0  0  0.117033  0.133805  0  0.980314  0
H  H29  1  0.82524843  0.61595438  0.69137623  1  0  0.126238  0  0.922991  0  0  0.137288  0  0.977336  0  0  0.142176  0  0.972885  0  0  0.117057  0.133848  0  0.980322  0
H  H30  1  0.02265295  0.61530582  0.23931441  1  0  0.123887  0  0.93102  0  0  0.132388  0  0.990781  0  0  0.137024  0  0.987348  0  0  0.115705  0.129162  0  0.992909  0
H  H31  1  0.97735315  0.38468986  0.73930660  1  0  0.123863  0  0.930844  0  0  0.132367  0  0.990635  0  0  0.137002  0  0.987206  0  0  0.115727  0.129155  0  0.992747  0
H  H32  1  0.51745833  0.90804288  0.69160168  1  0  0.124095  0  0.965523  0  0  0.12983  0  1.030868  0  0  0.13471  0  1.026715  0  0  0.110547  0.12634  0  1.033803  0
H  H33  1  0.48253406  0.09195860  0.19160651  1  0  0.124079  0  0.965543  0  0  0.129809  0  1.030907  0  0  0.134686  0  1.026762  0  0  0.110556  0.126317  0  1.033846  0
H  H34  1  0.29205794  0.09286929  0.65452329  1  0  0.132481  0  0.962367  0  0  0.136874  0  1.028057  0  0  0.141902  0  1.024651  0  0  0.114601  0.133253  0  1.030605  0
H  H35  1  0.70794759  0.90714380  0.15451984  1  0  0.132509  0  0.96247  0  0  0.136845  0  1.028209  0  0  0.141876  0  1.024805  0  0  0.114575  0.133223  0  1.030756  0
C  C36  1  0.35440229  0.61755103  0.43552290  1  0  -0.082292  0  3.782977  0  0  -0.059533  0  4.017175  0  0  -0.066246  0  4.038759  0  0  -0.020138  -0.05474  0  4.001659  0
C  C37  1  0.64559203  0.38243880  0.93551814  1  0  -0.082182  0  3.782942  0  0  -0.059388  0  4.017091  0  0  -0.066106  0  4.03868  0  0  -0.020115  -0.054599  0  4.001578  0
C  C38  1  0.41813457  0.74010410  0.39087915  1  0  -0.06109  0  3.707886  0  0  -0.083608  0  3.956012  0  0  -0.084129  0  3.975139  0  0  -0.077834  -0.082954  0  3.942419  0
C  C39  1  0.58186023  0.25988864  0.89087678  1  0  -0.061251  0  3.708113  0  0  -0.083769  0  3.956243  0  0  -0.08429  0  3.975369  0  0  -0.077895  -0.083113  0  3.942647  0
C  C40  1  0.33687466  0.83893945  0.40101671  1  0  -0.069602  0  3.721867  0  0  -0.094255  0  3.974453  0  0  -0.095693  0  3.995281  0  0  -0.08188  -0.093022  0  3.959608  0
C  C41  1  0.66312161  0.16105426  0.90101304  1  0  -0.069407  0  3.721859  0  0  -0.094042  0  3.974435  0  0  -0.095479  0  3.995263  0  0  -0.081802  -0.092808  0  3.959578  0
C  C42  1  0.19090810  0.81605212  0.45494913  1  0  -0.048536  0  3.752584  0  0  -0.025991  0  3.98465  0  0  -0.031779  0  4.006188  0  0  -0.009949  -0.021807  0  3.969171  0
C  C43  1  0.80908876  0.18394254  0.95494592  1  0  -0.048604  0  3.752891  0  0  -0.026089  0  3.984989  0  0  -0.031877  0  4.006533  0  0  -0.010004  -0.021904  0  3.969502  0
C  C44  1  0.12519150  0.69279770  0.49648804  1  0  -0.057273  0  3.688178  0  0  -0.080156  0  3.934067  0  0  -0.081121  0  3.953386  0  0  -0.075893  -0.079198  0  3.92021  0
C  C45  1  0.87480638  0.30719986  0.99648244  1  0  -0.057292  0  3.688494  0  0  -0.080202  0  3.934317  0  0  -0.081171  0  3.95364  0  0  -0.07588  -0.079241  0  3.920457  0
C  C46  1  0.20710731  0.59433569  0.48769793  1  0  -0.059094  0  3.731663  0  0  -0.083504  0  3.986302  0  0  -0.083486  0  4.005272  0  0  -0.078534  -0.083096  0  3.972451  0
C  C47  1  0.79289115  0.40565994  0.98769363  1  0  -0.059078  0  3.731811  0  0  -0.083454  0  3.986447  0  0  -0.083436  0  4.005419  0  0  -0.078494  -0.083053  0  3.972605  0
C  C48  1  0.44405069  0.51326387  0.42617710  1  0  0.651774  0  3.919311  0  0  0.603039  0  4.211891  0  0  0.636227  0  4.212025  0  0  0.201329  0.579842  0  4.216878  0
C  C49  1  0.55594229  0.48672983  0.92617112  1  0  0.651446  0  3.919353  0  0  0.602667  0  4.212014  0  0  0.635861  0  4.212153  0  0  0.201231  0.579474  0  4.216989  0
C  C50  1  0.10662400  0.92241423  0.47292208  1  0  0.645003  0  3.928095  0  0  0.597445  0  4.220589  0  0  0.62975  0  4.222346  0  0  0.195657  0.57469  0  4.224958  0
C  C51  1  0.89337934  0.07758720  0.97291593  1  0  0.644912  0  3.928169  0  0  0.597358  0  4.220664  0  0  0.629656  0  4.22243  0  0  0.19562  0.574604  0  4.225021  0
C  C52  1  0.99761884  0.37103511  0.32422348  1  0  0.746373  0  3.858545  0  0  0.70565  0  4.146625  0  0  0.74218  0  4.138739  0  0  0.228306  0.681356  0  4.1543  0
C  C53  1  0.00238446  0.62896538  0.82421887  1  0  0.746277  0  3.858655  0  0  0.70567  0  4.146517  0  0  0.742216  0  4.138598  0  0  0.228315  0.68135  0  4.154234  0
C  C54  1  0.09731292  0.43782956  0.23271982  1  0  -0.146074  0  3.609417  0  0  -0.167924  0  3.864408  0  0  -0.171363  0  3.874218  0  0  -0.070148  -0.165132  0  3.855961  0
C  C55  1  0.90269389  0.56216901  0.73271575  1  0  -0.146213  0  3.609555  0  0  -0.168054  0  3.864504  0  0  -0.171495  0  3.874304  0  0  -0.07018  -0.165252  0  3.856067  0
C  C56  1  0.09655889  0.55810571  0.19878846  1  0  -0.15064  0  3.621629  0  0  -0.17187  0  3.877701  0  0  -0.177245  0  3.889628  0  0  -0.072518  -0.167639  0  3.867958  0
C  C57  1  0.90344402  0.44189191  0.69878201  1  0  -0.15048  0  3.621402  0  0  -0.171734  0  3.877455  0  0  -0.177109  0  3.88938  0  0  -0.072536  -0.167508  0  3.867699  0
C  C58  1  0.19108528  0.61460291  0.10214593  1  0  0.733284  0  3.885937  0  0  0.694651  0  4.166298  0  0  0.730386  0  4.162474  0  0  0.214674  0.670404  0  4.173716  0
C  C59  1  0.80891114  0.38539858  0.60214171  1  0  0.733158  0  3.885932  0  0  0.694537  0  4.166236  0  0  0.73027  0  4.162413  0  0  0.214666  0.67029  0  4.17365  0
C  C60  1  0.56920031  0.06145387  0.56613888  1  0  0.752352  0  3.852776  0  0  0.713114  0  4.136204  0  0  0.749528  0  4.128193  0  0  0.231254  0.689013  0  4.14359  0
C  C61  1  0.43079754  0.93854957  0.06613863  1  0  0.75236  0  3.852694  0  0  0.713182  0  4.136054  0  0  0.749586  0  4.128062  0  0  0.231293  0.689074  0  4.143439  0
C  C62  1  0.47065312  0.98556428  0.65381260  1  0  -0.15626  0  3.61219  0  0  -0.176233  0  3.863703  0  0  -0.180303  0  3.874355  0  0  -0.075541  -0.172914  0  3.854427  0
C  C63  1  0.52934528  0.01443914  0.15381352  1  0  -0.156187  0  3.612378  0  0  -0.176227  0  3.863859  0  0  -0.18029  0  3.874518  0  0  -0.075523  -0.172902  0  3.854583  0
C  C64  1  0.33690384  0.01364194  0.69100219  1  0  -0.16168  0  3.609983  0  0  -0.179227  0  3.859725  0  0  -0.185142  0  3.870748  0  0  -0.074695  -0.174601  0  3.850289  0
C  C65  1  0.66310116  0.98636825  0.19099852  1  0  -0.161672  0  3.610363  0  0  -0.179107  0  3.859985  0  0  -0.185042  0  3.871022  0  0  -0.074683  -0.174496  0  3.850548  0
C  C66  1  0.25208035  0.94286775  0.78612706  1  0  0.749957  0  3.847891  0  0  0.707006  0  4.130737  0  0  0.743601  0  4.124328  0  0  0.230568  0.682388  0  4.138555  0
C  C67  1  0.74792857  0.05713758  0.28612534  1  0  0.749788  0  3.84803  0  0  0.706871  0  4.130769  0  0  0.743478  0  4.124354  0  0  0.230532  0.682266  0  4.138564  0
O  O68  1  0.56488022  0.52934750  0.36390240  1  0  -0.685992  0  1.946678  0  0  -0.636554  0  2.175469  0  0  -0.669062  0  2.163042  0  0  -0.375525  -0.620077  0  2.182899  0
O  O69  1  0.43510740  0.47064041  0.86389852  1  0  -0.685856  0  1.946767  0  0  -0.636418  0  2.175557  0  0  -0.668919  0  2.163135  0  0  -0.375475  -0.619939  0  2.182981  0
O  O70  1  0.40094086  0.40700960  0.48025052  1  0  -0.717924  0  2.058033  0  0  -0.657837  0  2.293905  0  0  -0.692236  0  2.282701  0  0  -0.356563  -0.639504  0  2.300849  0
O  O71  1  0.59905845  0.59298506  0.98023796  1  0  -0.717778  0  2.057936  0  0  -0.657673  0  2.293863  0  0  -0.692064  0  2.282654  0  0  -0.356531  -0.639334  0  2.300792  0
O  O72  1  0.16412480  0.03639324  0.43396836  1  0  -0.734277  0  2.058751  0  0  -0.674814  0  2.304168  0  0  -0.710432  0  2.293437  0  0  -0.381116  -0.656214  0  2.310673  0
O  O73  1  0.83587778  0.96360626  0.93396535  1  0  -0.73427  0  2.05878  0  0  -0.674789  0  2.304186  0  0  -0.71041  0  2.293455  0  0  -0.381126  -0.656193  0  2.310693  0
O  O74  1  0.97927973  0.90273855  0.52754604  1  0  -0.667536  0  1.931925  0  0  -0.623115  0  2.159268  0  0  -0.654987  0  2.148056  0  0  -0.369269  -0.607352  0  2.16574  0
O  O75  1  0.02073077  0.09726586  0.02753362  1  0  -0.667452  0  1.931865  0  0  -0.623033  0  2.159207  0  0  -0.654907  0  2.147995  0  0  -0.369202  -0.607267  0  2.165673  0
O  O76  1  0.87538676  0.41079441  0.35071753  1  0  -0.722249  0  2.030082  0  0  -0.674043  0  2.277736  0  0  -0.712196  0  2.264432  0  0  -0.386645  -0.655693  0  2.28367  0
O  O77  1  0.12461797  0.58921091  0.85071666  1  0  -0.722172  0  2.030152  0  0  -0.674029  0  2.277762  0  0  -0.71218  0  2.264448  0  0  -0.386616  -0.655665  0  2.283707  0
O  O78  1  0.04563061  0.27624594  0.36824546  1  0  -0.74507  0  2.006581  0  0  -0.69485  0  2.258936  0  0  -0.732925  0  2.243165  0  0  -0.386786  -0.676359  0  2.26628  0
O  O79  1  0.95436977  0.72375551  0.86823477  1  0  -0.745073  0  2.00647  0  0  -0.694844  0  2.258697  0  0  -0.732929  0  2.24292  0  0  -0.386815  -0.676347  0  2.26606  0
O  O80  1  0.16179088  0.71660251  0.05758817  1  0  -0.840165  0  2.204741  0  0  -0.779503  0  2.463213  0  0  -0.826736  0  2.45112  0  0  -0.424868  -0.760073  0  2.469762  0
O  O81  1  0.83820206  0.28339996  0.55757668  1  0  -0.840146  0  2.204722  0  0  -0.779504  0  2.463201  0  0  -0.826735  0  2.451118  0  0  -0.424872  -0.760071  0  2.469743  0
O  O82  1  0.29501666  0.56013964  0.06216746  1  0  -0.689924  0  1.967362  0  0  -0.646907  0  2.198241  0  0  -0.680897  0  2.18532  0  0  -0.380968  -0.630192  0  2.204782  0
O  O83  1  0.70497836  0.43986187  0.56216864  1  0  -0.689841  0  1.967299  0  0  -0.646812  0  2.198149  0  0  -0.680806  0  2.185227  0  0  -0.38093  -0.630102  0  2.204688  0
O  O84  1  0.52213481  0.15435566  0.52051108  1  0  -0.722865  0  2.034286  0  0  -0.674245  0  2.285811  0  0  -0.712075  0  2.271585  0  0  -0.392671  -0.656114  0  2.292191  0
O  O85  1  0.47786569  0.84564586  0.02051356  1  0  -0.722913  0  2.034227  0  0  -0.674304  0  2.28571  0  0  -0.712123  0  2.271489  0  0  -0.39266  -0.656164  0  2.292086  0
O  O86  1  0.69773901  0.02622657  0.54570049  1  0  -0.744687  0  2.022659  0  0  -0.693469  0  2.269106  0  0  -0.731465  0  2.253253  0  0  -0.405559  -0.675288  0  2.276476  0
O  O87  1  0.30225986  0.97377688  0.04569481  1  0  -0.744674  0  2.022608  0  0  -0.693464  0  2.269026  0  0  -0.731465  0  2.253179  0  0  -0.405606  -0.675283  0  2.276398  0
O  O88  1  0.13790444  0.98506217  0.82869275  1  0  -0.711263  0  2.023079  0  0  -0.651918  0  2.251934  0  0  -0.688006  0  2.23795  0  0  -0.353166  -0.633331  0  2.258877  0
O  O89  1  0.86209532  0.01493348  0.32869393  1  0  -0.711181  0  2.023025  0  0  -0.651875  0  2.251867  0  0  -0.68796  0  2.237876  0  0  -0.353165  -0.633291  0  2.258797  0
O  O90  1  0.29636826  0.84557962  0.82563627  1  0  -0.788215  0  2.148865  0  0  -0.730286  0  2.405946  0  0  -0.774627  0  2.394815  0  0  -0.406904  -0.711295  0  2.412155  0
O  O91  1  0.70365442  0.15443345  0.32563432  1  0  -0.788187  0  2.148727  0  0  -0.730263  0  2.405787  0  0  -0.774613  0  2.394652  0  0  -0.406861  -0.711282  0  2.411986  0
O  O92  1  0.60538631  0.37449348  0.20613615  1  0  -0.87052  0  1.883526  0  0  -0.825889  0  2.079855  0  0  -0.853348  0  2.046808  0  0  -0.606035  -0.813406  0  2.096299  0
O  O93  1  0.39461777  0.62551283  0.70613780  1  0  -0.870568  0  1.883565  0  0  -0.825895  0  2.079918  0  0  -0.853333  0  2.046914  0  0  -0.606065  -0.813406  0  2.096365  0
O  O94  1  0.36839812  0.20557581  0.32374798  1  0  -0.904479  0  1.849071  0  0  -0.862595  0  2.049589  0  0  -0.889999  0  2.009537  0  0  -0.625417  -0.849763  0  2.073229  0
O  O95  1  0.63160352  0.79442274  0.82374528  1  0  -0.904472  0  1.849163  0  0  -0.862591  0  2.049629  0  0  -0.889999  0  2.009584  0  0  -0.625382  -0.849758  0  2.073259  0
O  O96  1  0.94605420  0.08699388  0.69899674  1  0  -0.897498  0  1.840994  0  0  -0.852599  0  2.038157  0  0  -0.881887  0  2.004566  0  0  -0.629444  -0.83891  0  2.057204  0
O  O97  1  0.05394295  0.91301243  0.19899444  1  0  -0.897431  0  1.841054  0  0  -0.852526  0  2.038239  0  0  -0.881822  0  2.004643  0  0  -0.629392  -0.838838  0  2.057286  0
O  O98  1  0.17322208  0.25371284  0.58812794  1  0  -0.895362  0  1.84711  0  0  -0.850235  0  2.048911  0  0  -0.879235  0  2.013224  0  0  -0.622601  -0.83737  0  2.069084  0
O  O99  1  0.82677426  0.74628866  0.08811923  1  0  -0.89536  0  1.847295  0  0  -0.850233  0  2.049189  0  0  -0.879241  0  2.0134  0  0  -0.622597  -0.837364  0  2.06936  0
