# generated using pymatgen
data_CuH18C28(NO3)4
_symmetry_space_group_name_H-M   'P 1'
_cell_length_a   10.76589763
_cell_length_b   11.30160966
_cell_length_c   11.70431176
_cell_angle_alpha   90.18939954
_cell_angle_beta   100.96757149
_cell_angle_gamma   105.52431854
_symmetry_Int_Tables_number   1
_chemical_formula_structural   CuH18C28(NO3)4
_chemical_formula_sum   'Cu2 H36 C56 N8 O24'
_cell_volume   1344.85440472
_cell_formula_units_Z   2
loop_
 _symmetry_equiv_pos_site_id
 _symmetry_equiv_pos_as_xyz
  1  'x, y, z'
loop_
 _atom_site_type_symbol
 _atom_site_label
 _atom_site_symmetry_multiplicity
 _atom_site_fract_x
 _atom_site_fract_y
 _atom_site_fract_z
 _atom_site_occupancy
 _atom_site_hle17_ddec_charge
 _atom_site_hle17_ddec_spin_density
 _atom_site_hle17_ddec_sum_bond_order
 _atom_site_hle17_magmom
 _atom_site_hse06_10hf_ddec_charge
 _atom_site_hse06_10hf_ddec_spin_density
 _atom_site_hse06_10hf_ddec_sum_bond_order
 _atom_site_hse06_10hf_magmom
 _atom_site_hse06_ddec_charge
 _atom_site_hse06_ddec_spin_density
 _atom_site_hse06_ddec_sum_bond_order
 _atom_site_hse06_magmom
 _atom_site_pbe_cm5_charge
 _atom_site_pbe_ddec_charge
 _atom_site_pbe_ddec_spin_density
 _atom_site_pbe_ddec_sum_bond_order
 _atom_site_pbe_magmom
Cu  Cu0  1  0.56878906  0.87012696  0.91613927  1  0.880149  -0.742997  1.759599  -0.515  0.858239  -0.813873  2.144288  -0.63  0.951852  -0.891554  2.073278  -0.719  0.744109  0.800593  -0.756847  2.191475  -0.572
Cu  Cu1  1  0.43117238  0.12990493  0.08383150  1  0.880452  0.743032  1.759092  0.515  0.858506  0.813924  2.143789  0.63  0.951435  0.8916  2.073124  0.719  0.744186  0.800753  0.756888  2.191135  0.572
H  H2  1  0.00018516  0.61521115  0.34071824  1  0.39738  2e-06  0.894864  0.0  0.364301  -0.0  0.97514  0.0  0.377402  1e-06  0.961437  0.0  0.306319  0.355158  -1e-06  0.984597  0.0
H  H3  1  0.99983852  0.38479418  0.65929760  1  0.397424  -2e-06  0.89456  0.0  0.364316  1e-06  0.974885  0.0  0.377422  -1e-06  0.961173  0.0  0.306438  0.355172  0.0  0.984344  0.0
H  H4  1  0.87419239  0.33983230  0.47595161  1  0.401368  -8e-06  0.886272  0.0  0.369771  -4e-06  0.964414  0.0  0.382975  -3e-06  0.95045  0.0  0.305743  0.36058  -4e-06  0.973989  0.0
H  H5  1  0.12581103  0.66017484  0.52404528  1  0.40123  6e-06  0.88639  0.0  0.369625  5e-06  0.964514  0.0  0.38283  3e-06  0.950552  0.0  0.305714  0.360435  3e-06  0.974084  0.0
H  H6  1  0.63514073  0.04288655  0.37353119  1  0.142309  -1.3e-05  0.919246  0.0  0.147569  -8e-06  0.981812  0.0  0.152908  -8e-06  0.976107  0.0  0.124886  0.143513  -5e-06  0.986309  0.0
H  H7  1  0.36484897  0.95711231  0.62645213  1  0.142409  2.1e-05  0.919247  0.0  0.147544  8e-06  0.981884  0.0  0.152885  9e-06  0.976171  0.0  0.12492  0.143493  8e-06  0.986369  0.0
H  H8  1  0.92319935  0.89265510  0.58698305  1  0.129376  -2.5e-05  0.933353  0.0  0.134699  3e-06  0.996707  0.0  0.139554  2e-06  0.99243  0.0  0.119849  0.131183  3e-06  0.999867  0.0
H  H9  1  0.07679155  0.10735112  0.41299368  1  0.129388  1.9e-05  0.933502  0.0  0.134863  -3e-06  0.996674  0.0  0.139666  -2e-06  0.992462  0.0  0.119949  0.131342  -4e-06  0.999843  0.0
H  H10  1  0.78693482  0.77719620  0.22205085  1  0.129347  -0.000223  0.921885  0.0  0.136621  -0.000166  0.983746  0.0  0.141125  -9.5e-05  0.979653  0.0  0.119356  0.133424  -0.00024  0.986564  0.0
H  H11  1  0.21307521  0.22278799  0.77794455  1  0.129347  0.000229  0.921958  0.0  0.13664  0.000167  0.983801  0.0  0.141127  9.6e-05  0.979742  0.0  0.119358  0.133445  0.000238  0.986618  0.0
H  H12  1  0.79356323  0.60689531  0.73097449  1  0.123023  -2.8e-05  0.927762  0.0  0.129478  -2e-06  0.991586  0.0  0.134278  -1e-06  0.986794  0.0  0.117052  0.125986  -6e-06  0.995064  0.0
H  H13  1  0.20644093  0.39309804  0.26902504  1  0.122987  2.6e-05  0.927807  0.0  0.129414  2e-06  0.991651  0.0  0.1342  1e-06  0.986879  0.0  0.117063  0.125924  7e-06  0.995132  0.0
H  H14  1  0.65781574  0.50490321  0.36297849  1  0.13942  -5.8e-05  0.926561  0.0  0.144377  -1.2e-05  0.989676  0.0  0.149232  -1.1e-05  0.985233  0.0  0.124488  0.140837  -1.4e-05  0.992941  0.0
H  H15  1  0.34218330  0.49508554  0.63702096  1  0.139526  6.2e-05  0.926447  0.0  0.144472  1.2e-05  0.989571  0.0  0.149331  1.1e-05  0.985123  0.0  0.12456  0.140935  1.4e-05  0.992831  0.0
H  H16  1  0.50226716  0.75940474  0.52873150  1  0.141042  -0.000335  0.921286  0.0  0.145738  -0.00029  0.985903  0.0  0.150984  -0.000179  0.980516  0.0  0.122896  0.141868  -0.000394  0.989931  0.0
H  H17  1  0.49774068  0.24058495  0.47126524  1  0.141038  0.000341  0.921229  0.0  0.14564  0.000291  0.985944  0.0  0.150943  0.000179  0.9805  0.0  0.122874  0.141772  0.000395  0.989966  0.0
H  H18  1  0.83463529  0.94194082  0.05732706  1  0.082259  -0.00092  0.946343  -0.002  0.092235  -0.00068  1.007344  -0.001  0.093741  -0.000482  1.006082  -0.001  0.118622  0.090793  -0.000808  1.008592  -0.001
H  H19  1  0.16536806  0.05805622  0.94266465  1  0.082273  0.000918  0.94625  0.002  0.092284  0.000681  1.007205  0.001  0.093796  0.000483  1.005901  0.001  0.11861  0.090835  0.000808  1.008471  0.001
H  H20  1  0.03096370  0.12467010  0.08752742  1  0.115274  -0.000481  0.946428  0.0  0.126494  -0.000419  1.002438  0.0  0.129516  -0.000299  1.00224  0.0  0.109204  0.124294  -0.000519  1.002775  -0.001
H  H21  1  0.96905044  0.87532510  0.91248071  1  0.115223  0.000472  0.946653  0.0  0.126427  0.000419  1.002681  0.0  0.129452  0.000299  1.002468  0.0  0.109135  0.124228  0.000518  1.003015  0.001
H  H22  1  0.80690137  0.29926931  0.82708192  1  0.110937  -0.000507  0.953873  0.0  0.11864  -0.000458  1.018784  0.0  0.122136  -0.000315  1.016992  0.0  0.106926  0.116141  -0.000553  1.020239  -0.001
H  H23  1  0.19310690  0.70074152  0.17291926  1  0.111005  0.000515  0.953925  0.0  0.118706  0.000458  1.018804  0.0  0.122197  0.000315  1.017027  0.0  0.106953  0.116207  0.000553  1.020262  0.001
H  H24  1  0.62426771  0.11180873  0.80893584  1  0.090134  -0.001144  0.950909  -0.002  0.098186  -0.00088  1.014813  -0.001  0.09979  -0.000648  1.012955  -0.001  0.118804  0.09684  -0.00107  1.016299  -0.002
H  H25  1  0.37574366  0.88819657  0.19108125  1  0.090183  0.001143  0.950782  0.002  0.098212  0.000879  1.014738  0.001  0.09981  0.000647  1.012863  0.001  0.118782  0.096866  0.001069  1.016224  0.002
H  H26  1  0.14336249  0.31695296  0.02946965  1  0.116233  -4.5e-05  0.981981  0.0  0.127602  1e-06  1.043242  0.0  0.131269  -0.0  1.040824  0.0  0.105677  0.124847  4e-06  1.045192  0.0
H  H27  1  0.85663909  0.68304130  0.97053284  1  0.116275  4.3e-05  0.981856  0.0  0.127698  -1e-06  1.043067  0.0  0.131386  1e-06  1.040618  0.0  0.105675  0.124944  -4e-06  1.045015  0.0
H  H28  1  0.97905347  0.44849514  0.85526354  1  0.092981  -0.00012  0.964209  0.0  0.104411  -5.8e-05  1.026211  0.0  0.10712  -4.5e-05  1.024903  0.0  0.103432  0.10237  -7e-05  1.027393  0.0
H  H29  1  0.02096176  0.55149731  0.14474649  1  0.09298  0.000118  0.963904  0.0  0.104373  5.8e-05  1.025959  0.0  0.107058  4.5e-05  1.024708  0.0  0.103388  0.102348  7e-05  1.027104  0.0
H  H30  1  0.29965703  0.79504405  0.77590782  1  0.091809  -0.001242  0.949452  -0.002  0.102019  -0.000947  1.008042  -0.002  0.103922  -0.000687  1.005793  -0.001  0.118623  0.1003  -0.001106  1.009871  -0.002
H  H31  1  0.70035017  0.20495020  0.22411361  1  0.092061  0.001239  0.9492  0.002  0.102096  0.000946  1.007967  0.002  0.103983  0.000686  1.005735  0.001  0.118689  0.100372  0.001104  1.009796  0.002
H  H32  1  0.09327889  0.62732607  0.77573694  1  0.113028  -0.000531  0.946467  -0.001  0.124242  -0.000483  1.003819  -0.001  0.127528  -0.000339  1.002842  0.0  0.1067  0.121846  -0.000599  1.00474  -0.001
H  H33  1  0.90671565  0.37267001  0.22426432  1  0.113017  0.000525  0.946532  0.001  0.12421  0.000483  1.00393  0.001  0.12749  0.000339  1.002961  0.0  0.106731  0.121815  0.000599  1.004852  0.001
H  H34  1  0.31944824  0.46504019  0.04597666  1  0.121456  -0.000446  0.958187  0.0  0.130143  -0.000394  1.020104  0.0  0.133329  -0.000273  1.019219  0.0  0.110374  0.127759  -0.000475  1.02108  -0.001
H  H35  1  0.68055634  0.53494488  0.95402888  1  0.12145  0.000436  0.958301  0.0  0.130082  0.000393  1.020258  0.0  0.133273  0.000273  1.01937  0.0  0.110349  0.127696  0.000474  1.021232  0.001
H  H36  1  0.51194904  0.64035600  0.03601086  1  0.093648  -0.000992  0.953412  -0.002  0.099807  -0.000681  1.019755  -0.001  0.102193  -0.00047  1.01683  -0.001  0.1184  0.097884  -0.000876  1.022048  -0.002
H  H37  1  0.48805349  0.35963827  0.96398753  1  0.093613  0.000987  0.953444  0.002  0.099832  0.00068  1.019769  0.001  0.102208  0.00047  1.016844  0.001  0.118435  0.097906  0.000875  1.022066  0.002
C  C38  1  0.95159474  0.74267975  0.41989283  1  0.659678  -7e-06  3.815108  0.0  0.602463  -4e-06  4.12183  0.0  0.636449  0.0  4.114488  0.0  0.234568  0.579373  -1.4e-05  4.126453  0.0
C  C39  1  0.04840336  0.25732551  0.58012447  1  0.660007  1.2e-05  3.815117  0.0  0.602653  4e-06  4.121945  0.0  0.636646  2e-06  4.114584  0.0  0.234695  0.579563  1.5e-05  4.126563  0.0
C  C40  1  0.62513625  0.92667068  0.16728429  1  0.636727  0.003552  3.934516  0.007  0.595024  -7e-05  4.237018  0.003  0.634277  0.000302  4.228712  0.002  0.207223  0.568518  -0.000528  4.241687  0.003
C  C41  1  0.37480988  0.07338689  0.83269754  1  0.636394  -0.003553  3.933363  -0.007  0.594506  7.3e-05  4.236188  -0.003  0.633824  -0.000303  4.227737  -0.002  0.206903  0.568002  0.000528  4.240844  -0.003
C  C42  1  0.70396549  0.91173766  0.28524400  1  -0.049284  -0.009271  3.708515  -0.01  -0.025462  -0.005187  3.944849  -0.006  -0.03684  -0.003623  3.967196  -0.004  -0.010819  -0.018278  -0.006367  3.92993  -0.007
C  C43  1  0.29600071  0.08827130  0.71470445  1  -0.048835  0.009294  3.707941  0.01  -0.025015  0.005187  3.944343  0.006  -0.036428  0.003629  3.966725  0.004  -0.010738  -0.017831  0.006358  3.929428  0.007
C  C44  1  0.69907616  0.98190472  0.38222286  1  -0.056357  0.000475  3.62249  0.0  -0.095311  -0.000633  3.874306  -0.001  -0.089727  -0.000303  3.887883  0.0  -0.052377  -0.098732  -0.001015  3.865525  -0.001
C  C45  1  0.30091140  0.01809322  0.61775154  1  -0.057071  -0.000524  3.623002  0.0  -0.0958  0.000628  3.874825  0.001  -0.090215  0.000298  3.888384  0.0  -0.052716  -0.099223  0.001013  3.866052  0.001
C  C46  1  0.77816238  0.97284880  0.48887277  1  0.067417  -0.001133  3.713966  -0.001  0.055548  -0.000351  3.970956  0.0  0.050576  -0.000266  3.993293  0.0  0.075573  0.058402  -0.000454  3.956128  0.0
C  C47  1  0.22182771  0.02715466  0.51110893  1  0.068058  0.001128  3.713882  0.001  0.055962  0.000348  3.970774  0.0  0.050994  0.000264  3.993102  0.0  0.075905  0.058802  0.000448  3.95597  0.0
C  C48  1  0.86211826  0.89702601  0.50260544  1  -0.081296  0.001154  3.697528  0.001  -0.122151  0.000134  3.957987  0.0  -0.118351  0.00016  3.975965  0.0  -0.06485  -0.124339  0.000128  3.946009  0.0
C  C49  1  0.13787085  0.10298388  0.49737355  1  -0.081444  -0.001137  3.697528  -0.001  -0.1225  -0.000135  3.95816  0.0  -0.118661  -0.000163  3.97616  0.0  -0.065035  -0.124691  -0.000126  3.946194  0.0
C  C50  1  0.86449865  0.82576709  0.40584844  1  -0.082049  -0.000643  3.783621  -0.001  -0.056691  -3e-06  4.025386  0.0  -0.069133  -4.8e-05  4.050946  0.0  -0.016378  -0.04862  -6e-06  4.00824  0.0
C  C51  1  0.13548793  0.17423728  0.59412922  1  -0.081785  0.000642  3.783744  0.001  -0.056295  4e-06  4.025433  0.0  -0.068731  4.8e-05  4.050961  0.0  -0.01625  -0.048229  3e-06  4.008295  0.0
C  C52  1  0.78525779  0.83282593  0.29753133  1  -0.02856  0.001315  3.622111  0.001  -0.072126  7.8e-05  3.875173  0.0  -0.065115  0.000142  3.889384  0.0  -0.059109  -0.076276  4.2e-05  3.865306  0.0
C  C53  1  0.21470985  0.16717840  0.70244043  1  -0.028844  -0.001341  3.622569  -0.001  -0.072472  -8e-05  3.875747  0.0  -0.065485  -0.000144  3.890023  0.0  -0.059142  -0.076623  -3.4e-05  3.865877  0.0
C  C54  1  0.64384356  0.75639992  0.75307624  1  0.615105  0.005012  3.948506  0.008  0.572757  0.000763  4.2519  0.003  0.608744  0.00104  4.248625  0.003  0.190671  0.548539  0.00038  4.253017  0.003
C  C55  1  0.35615408  0.24358419  0.24694516  1  0.615481  -0.005019  3.948113  -0.008  0.573153  -0.000763  4.251432  -0.003  0.609082  -0.001042  4.247997  -0.003  0.190947  0.548931  -0.00038  4.252549  -0.003
C  C56  1  0.64915213  0.69119155  0.64158899  1  -0.040958  -0.009405  3.698693  -0.01  -0.012555  -0.005082  3.930714  -0.006  -0.022934  -0.003485  3.95272  -0.004  -0.007796  -0.006205  -0.006269  3.916318  -0.007
C  C57  1  0.35084073  0.30881187  0.35842140  1  -0.041008  0.009395  3.698773  0.01  -0.012536  0.005081  3.930712  0.006  -0.023005  0.003481  3.952833  0.004  -0.007787  -0.00616  0.006265  3.916274  0.007
C  C58  1  0.73292821  0.61491112  0.64718929  1  -0.02366  0.00123  3.628322  0.001  -0.069741  -0.000169  3.883185  0.0  -0.063839  4.4e-05  3.898761  0.0  -0.05717  -0.073239  -0.000312  3.872564  0.0
C  C59  1  0.26707104  0.38509142  0.35280855  1  -0.023555  -0.00121  3.628496  -0.001  -0.069619  0.000167  3.883349  0.0  -0.06374  -4.2e-05  3.898971  0.0  -0.057177  -0.073128  0.000312  3.872748  0.0
C  C60  1  0.73678395  0.54732474  0.54805070  1  -0.084614  -0.001387  3.771908  -0.001  -0.062213  -0.00036  4.019072  0.0  -0.074769  -0.000301  4.044275  0.0  -0.018554  -0.054303  -0.000424  4.002224  0.0
C  C61  1  0.26320358  0.45267319  0.45193651  1  -0.084593  0.001388  3.772013  0.001  -0.062238  0.000361  4.019285  0.0  -0.074787  0.000297  4.044482  0.0  -0.018568  -0.054343  0.000425  4.002442  0.0
C  C62  1  0.65678864  0.55634532  0.44124589  1  -0.081907  0.001591  3.686985  0.001  -0.124787  0.000279  3.94987  0.0  -0.12014  0.000293  3.966742  0.0  -0.066225  -0.127301  0.000248  3.938296  0.0
C  C63  1  0.34319080  0.44364431  0.55873985  1  -0.081942  -0.001596  3.687262  -0.001  -0.124837  -0.000278  3.950131  0.0  -0.120203  -0.00029  3.967019  0.0  -0.066227  -0.127367  -0.000248  3.938532  0.0
C  C64  1  0.57494113  0.63354704  0.43711037  1  0.054009  -0.000847  3.735039  -0.001  0.044192  -4.5e-05  3.989603  0.0  0.037435  -0.000104  4.015647  0.0  0.072154  0.048348  -1.7e-05  3.972134  0.0
C  C65  1  0.42504287  0.36645179  0.56287878  1  0.053863  0.000864  3.735961  0.001  0.044215  4.9e-05  3.990234  0.0  0.037446  0.000104  4.016312  0.0  0.072242  0.048438  1.4e-05  3.972685  0.0
C  C66  1  0.56888545  0.70116162  0.53492455  1  -0.071656  0.001512  3.645858  0.002  -0.111787  4.7e-05  3.902468  0.0  -0.106549  0.000149  3.917778  0.0  -0.059308  -0.114972  -5.1e-05  3.892378  0.0
C  C67  1  0.43112126  0.29883081  0.46508311  1  -0.07163  -0.001532  3.645915  -0.002  -0.11175  -4.9e-05  3.902494  0.0  -0.106588  -0.000148  3.917828  0.0  -0.059302  -0.114967  5.6e-05  3.892404  0.0
C  C68  1  0.82463730  0.46497019  0.55795056  1  0.671622  -0.000112  3.787443  0.0  0.614878  -8.3e-05  4.091469  0.0  0.649756  -4.9e-05  4.082154  0.0  0.24281  0.591398  -0.000109  4.097202  0.0
C  C69  1  0.17535266  0.53502314  0.44204304  1  0.671655  9e-05  3.788067  0.0  0.614845  8.1e-05  4.09212  0.0  0.649715  4.9e-05  4.082811  0.0  0.242894  0.591394  0.000106  4.097816  0.0
C  C70  1  0.83342067  0.02425717  0.00958861  1  0.121653  0.007921  3.723816  0.008  0.094653  0.000996  3.975649  0.002  0.104116  0.001956  3.995942  0.003  0.04027  0.08917  0.00024  3.961862  0.001
C  C71  1  0.16657606  0.97573341  0.99040788  1  0.12155  -0.007951  3.723679  -0.008  0.094529  -0.001  3.975553  -0.002  0.103966  -0.00196  3.995736  -0.003  0.040225  0.089053  -0.000243  3.961752  -0.001
C  C72  1  0.94173444  0.12618347  0.02580672  1  -0.171424  -0.009924  3.699451  -0.01  -0.184581  -0.003382  3.93709  -0.004  -0.194093  -0.003106  3.958429  -0.004  -0.082778  -0.178715  -0.003514  3.922432  -0.004
C  C73  1  0.05826443  0.87380802  0.97419870  1  -0.171299  0.009973  3.699812  0.01  -0.184484  0.003382  3.937401  0.004  -0.194041  0.003106  3.958784  0.004  -0.082623  -0.178617  0.003513  3.922739  0.004
C  C74  1  0.93790703  0.22993979  0.96032738  1  0.142259  0.007949  3.794237  0.008  0.156502  0.002377  4.025497  0.002  0.163455  0.002536  4.047016  0.003  0.008659  0.152541  0.002174  4.010127  0.002
C  C75  1  0.06210384  0.77006368  0.03967765  1  0.142356  -0.007965  3.794632  -0.008  0.156706  -0.002378  4.025718  -0.002  0.163644  -0.002537  4.047278  -0.003  0.008611  0.152744  -0.002174  4.010354  -0.002
C  C76  1  0.81931227  0.22448627  0.88256436  1  -0.144402  -0.010866  3.668981  -0.011  -0.165272  -0.003815  3.922618  -0.004  -0.173046  -0.003557  3.941279  -0.004  -0.077824  -0.160565  -0.004033  3.909867  -0.005
C  C77  1  0.18069281  0.77551352  0.11743620  1  -0.144694  0.010863  3.669128  0.011  -0.165601  0.003816  3.922758  0.004  -0.173431  0.003557  3.941475  0.004  -0.077907  -0.160901  0.004033  3.910025  0.005
C  C78  1  0.71509067  0.11927009  0.87127218  1  0.146623  0.006984  3.674324  0.007  0.110357  0.000214  3.942369  0.001  0.121163  0.001305  3.959567  0.002  0.047743  0.103888  -0.000672  3.930807  0.0
C  C79  1  0.28491885  0.88072879  0.12873515  1  0.146831  -0.006994  3.673656  -0.007  0.11059  -0.000208  3.941662  -0.001  0.121377  -0.001302  3.958712  -0.002  0.047883  0.104123  0.000677  3.930109  0.0
C  C80  1  0.05683945  0.33134031  0.97153216  1  -0.110469  0.001613  3.677338  0.001  -0.13015  0.000675  3.922821  0.0  -0.134071  0.000648  3.941428  0.0  -0.082717  -0.127679  0.000692  3.910209  0.0
C  C81  1  0.94317438  0.66866041  0.02847936  1  -0.110693  -0.001598  3.677492  -0.001  -0.130457  -0.000677  3.922899  0.0  -0.13437  -0.000648  3.941481  0.0  -0.082777  -0.127985  -0.000692  3.910287  0.0
C  C82  1  0.06628875  0.43469707  0.91206795  1  -0.087421  0.001555  3.716829  0.001  -0.107992  0.000613  3.970645  0.0  -0.110001  0.000613  3.990314  0.0  -0.08076  -0.106743  0.000578  3.957223  0.0
C  C83  1  0.93371419  0.56529536  0.08793478  1  -0.087332  -0.001563  3.716717  -0.001  -0.107895  -0.000611  3.970466  0.0  -0.109909  -0.000614  3.99013  0.0  -0.080697  -0.106645  -0.000576  3.957053  0.0
C  C84  1  0.29796289  0.71949945  0.83351554  1  0.135864  0.007164  3.690011  0.007  0.108282  0.000188  3.940716  0.001  0.118542  0.001387  3.959536  0.002  0.044097  0.102318  -0.000734  3.927689  0.0
C  C85  1  0.70204719  0.28049482  0.16649529  1  0.135511  -0.007148  3.689802  -0.007  0.108095  -0.000184  3.940536  -0.001  0.118314  -0.001382  3.959242  -0.002  0.044003  0.102136  0.000739  3.927509  0.0
C  C86  1  0.18438929  0.62630634  0.83481616  1  -0.164689  -0.010796  3.690891  -0.011  -0.181816  -0.003926  3.936982  -0.005  -0.190783  -0.00356  3.957377  -0.004  -0.084895  -0.176148  -0.004135  3.922828  -0.005
C  C87  1  0.81561646  0.37369253  0.16518538  1  -0.164391  0.010809  3.691277  0.011  -0.181613  0.003926  3.937283  0.005  -0.190627  0.00356  3.957738  0.004  -0.084892  -0.175945  0.004135  3.923133  0.005
C  C88  1  0.18684898  0.53118071  0.91193720  1  0.138807  0.00821  3.790936  0.008  0.1526  0.002493  4.022483  0.003  0.158944  0.002649  4.044513  0.003  0.008635  0.14894  0.002295  4.006884  0.002
C  C89  1  0.81315694  0.46880896  0.08806775  1  0.138715  -0.008214  3.791795  -0.008  0.152744  -0.002493  4.022966  -0.003  0.159068  -0.002648  4.045039  -0.003  0.008704  0.149081  -0.002296  4.007367  -0.002
C  C90  1  0.30870791  0.53521064  0.98401241  1  -0.156821  -0.010926  3.666494  -0.011  -0.170879  -0.003721  3.904799  -0.004  -0.179767  -0.003448  3.925009  -0.004  -0.079189  -0.165462  -0.003947  3.891227  -0.005
C  C91  1  0.69131569  0.46479104  0.01598974  1  -0.156886  0.010937  3.666833  0.011  -0.170918  0.00372  3.905013  0.004  -0.179852  0.003446  3.925269  0.004  -0.079188  -0.165497  0.003948  3.891435  0.005
C  C92  1  0.41756459  0.63231543  0.97879713  1  0.132961  0.007844  3.693217  0.008  0.101407  0.000907  3.950703  0.002  0.111746  0.001964  3.968862  0.003  0.04463  0.095308  -3e-06  3.938411  0.001
C  C93  1  0.58245161  0.36768349  0.02119429  1  0.132841  -0.007828  3.692902  -0.008  0.101224  -0.000912  3.950421  -0.002  0.111522  -0.001968  3.968473  -0.003  0.0445  0.095131  -0.0  3.938109  -0.001
N  N94  1  0.72106996  0.02004901  0.93348003  1  -0.300497  -0.081313  3.325874  -0.098  -0.253191  -0.052211  3.622704  -0.068  -0.285977  -0.043038  3.646124  -0.059  -0.348823  -0.23387  -0.056476  3.608508  -0.071
N  N95  1  0.27892970  0.97995169  0.06651788  1  -0.300511  0.081343  3.325438  0.098  -0.253213  0.052212  3.622288  0.068  -0.285586  0.043038  3.645272  0.059  -0.3488  -0.233887  0.056481  3.608108  0.071
N  N96  1  0.41260510  0.72414301  0.90616782  1  -0.295367  -0.08513  3.315704  -0.102  -0.244878  -0.055107  3.603591  -0.071  -0.277666  -0.045287  3.627236  -0.062  -0.346837  -0.225509  -0.059704  3.588954  -0.075
N  N97  1  0.58739697  0.27585952  0.09383736  1  -0.295267  0.085098  3.315317  0.102  -0.244852  0.055102  3.603297  0.071  -0.277223  0.045282  3.626524  0.062  -0.346727  -0.225459  0.059699  3.58865  0.075
N  N98  1  0.48962765  0.64029903  0.32448104  1  0.457773  5.3e-05  3.968282  0.0  0.515329  2e-06  4.228518  0.0  0.535593  8e-06  4.239356  0.0  0.055981  0.501825  -1.1e-05  4.221134  0.0
N  N99  1  0.51036514  0.35973660  0.67550127  1  0.457397  -3.5e-05  3.968662  0.0  0.514978  -4e-06  4.228963  0.0  0.535237  -1e-05  4.239817  0.0  0.055664  0.501456  1.1e-05  4.221562  0.0
N  N100  1  0.77674776  0.04845759  0.59091479  1  0.473669  -2.5e-05  3.946342  0.0  0.529199  -8.8e-05  4.203828  0.0  0.550144  -3.6e-05  4.212539  0.0  0.05842  0.51516  -0.000193  4.197991  0.0
N  N101  1  0.22328934  0.95150916  0.40910925  1  0.473182  3.1e-05  3.947828  0.0  0.529416  9.4e-05  4.204314  0.0  0.550347  3.7e-05  4.213056  0.0  0.058391  0.515364  0.000195  4.198512  0.0
O  O102  1  0.61782981  0.84577418  0.08722055  1  -0.601386  -0.088424  2.104916  -0.114  -0.579766  -0.057609  2.395929  -0.082  -0.621769  -0.043173  2.386294  -0.066  -0.316187  -0.551522  -0.066695  2.402351  -0.091
O  O103  1  0.38211910  0.15426040  0.91277279  1  -0.601579  0.088386  2.105459  0.114  -0.579806  0.057572  2.396542  0.082  -0.621337  0.043153  2.386473  0.066  -0.316409  -0.551546  0.066653  2.402969  0.091
O  O104  1  0.57758828  0.01652485  0.15690732  1  -0.617774  0.000766  2.077101  0.001  -0.595999  0.001132  2.355815  0.001  -0.624899  0.001231  2.342369  0.002  -0.310262  -0.576033  0.001025  2.365021  0.001
O  O105  1  0.42239726  0.98353545  0.84316181  1  -0.617623  -0.00077  2.075559  -0.001  -0.595965  -0.001127  2.354593  -0.001  -0.625192  -0.001236  2.341281  -0.002  -0.310097  -0.576015  -0.001016  2.36381  -0.001
O  O106  1  0.69670771  0.11050274  0.58045258  1  -0.327138  -8.9e-05  1.745638  0.0  -0.3219  -2.5e-05  1.933039  0.0  -0.333761  1.2e-05  1.929434  0.0  -0.11769  -0.31417  -9.9e-05  1.935962  0.0
O  O107  1  0.30328683  0.88941878  0.41961844  1  -0.327125  8.1e-05  1.745942  0.0  -0.322117  2.2e-05  1.933043  0.0  -0.333995  -7e-06  1.929445  0.0  -0.117715  -0.314359  9.9e-05  1.935946  0.0
O  O108  1  0.85851241  0.04716550  0.68125667  1  -0.346078  -0.000246  1.751203  0.0  -0.336663  -0.000146  1.935631  0.0  -0.35004  -8.7e-05  1.93485  0.0  -0.126312  -0.327819  -0.000286  1.936437  0.0
O  O109  1  0.14159592  0.95284102  0.31873398  1  -0.345781  0.000263  1.752397  0.0  -0.336685  0.000147  1.936663  0.0  -0.350016  8.5e-05  1.935843  0.0  -0.126181  -0.3278  0.000284  1.937418  0.0
O  O110  1  0.93371925  0.66769049  0.32853446  1  -0.526764  -2.2e-05  2.136251  0.0  -0.474412  2e-06  2.360474  0.0  -0.49796  -2e-06  2.349384  0.0  -0.311492  -0.458097  1.2e-05  2.367689  0.0
O  O111  1  0.06633062  0.33233331  0.67147498  1  -0.526927  1.3e-05  2.136062  0.0  -0.474481  -4e-06  2.360344  0.0  -0.498031  1e-06  2.349242  0.0  -0.311677  -0.458162  -1e-05  2.36755  0.0
O  O112  1  0.03338531  0.74501020  0.51206446  1  -0.56962  -9.3e-05  1.975365  0.0  -0.521024  -2e-05  2.191576  0.0  -0.544193  -2.2e-05  2.184268  0.0  -0.288029  -0.505061  -1.3e-05  2.196347  0.0
O  O113  1  0.96659758  0.25497202  0.48796544  1  -0.569712  0.000101  1.975208  0.0  -0.521114  2.1e-05  2.191519  0.0  -0.544278  2.4e-05  2.184194  0.0  -0.287996  -0.505149  1.3e-05  2.196287  0.0
O  O114  1  0.70698298  0.73153509  0.84739210  1  -0.615939  0.000908  1.938608  0.0  -0.588458  0.000684  2.179413  0.0  -0.614596  0.001296  2.169427  0.001  -0.323978  -0.570173  7.3e-05  2.185827  -0.001
O  O115  1  0.29300530  0.26840675  0.15260613  1  -0.616291  -0.0009  1.938258  0.0  -0.588783  -0.000686  2.179005  0.0  -0.614753  -0.001297  2.168824  -0.001  -0.324271  -0.570487  -7.5e-05  2.185423  0.001
O  O116  1  0.57161911  0.83135969  0.74337432  1  -0.579047  -0.095433  1.968478  -0.121  -0.560756  -0.057721  2.23083  -0.082  -0.603903  -0.042205  2.22756  -0.063  -0.325051  -0.53129  -0.067611  2.232074  -0.091
O  O117  1  0.42839095  0.16864102  0.25663312  1  -0.57911  0.095441  1.968575  0.121  -0.560849  0.05772  2.230905  0.082  -0.603703  0.042199  2.227472  0.063  -0.325007  -0.531358  0.067614  2.232138  0.091
O  O118  1  0.90476920  0.46435271  0.65020822  1  -0.56448  -0.000132  2.01922  0.0  -0.516149  -6e-05  2.245159  0.0  -0.538621  -5e-05  2.234983  0.0  -0.277677  -0.500527  -7.4e-05  2.251636  0.0
O  O119  1  0.09519842  0.53560283  0.34980435  1  -0.564497  0.000141  2.019594  0.0  -0.516108  6e-05  2.245435  0.0  -0.538568  5e-05  2.23527  0.0  -0.277737  -0.500502  7.4e-05  2.251899  0.0
O  O120  1  0.81116585  0.39575691  0.46321517  1  -0.524014  -6.1e-05  2.093624  0.0  -0.472435  -3.3e-05  2.31011  0.0  -0.495063  -2e-05  2.29636  0.0  -0.313826  -0.456814  -4.9e-05  2.319116  0.0
O  O121  1  0.18885610  0.60426502  0.53676370  1  -0.523914  7e-05  2.094034  0.0  -0.472276  3.3e-05  2.310565  0.0  -0.494903  2e-05  2.296817  0.0  -0.313776  -0.456661  5.1e-05  2.31955  0.0
O  O122  1  0.50154251  0.58233577  0.23894930  1  -0.329528  -0.000176  1.77806  0.0  -0.32079  -3.9e-05  1.972059  0.0  -0.333229  -4.7e-05  1.970307  0.0  -0.110868  -0.312466  -5.6e-05  1.973315  0.0
O  O123  1  0.49842361  0.41766669  0.76103670  1  -0.329143  0.000184  1.777815  0.0  -0.320586  4.5e-05  1.971995  0.0  -0.333027  3.9e-05  1.970246  0.0  -0.110777  -0.312283  5.8e-05  1.973275  0.0
O  O124  1  0.41015071  0.70250626  0.32196147  1  -0.332218  -4.9e-05  1.78122  0.0  -0.327816  3.2e-05  1.981275  0.0  -0.341026  3e-05  1.979393  0.0  -0.115173  -0.319015  4e-05  1.982805  0.0
O  O125  1  0.58987291  0.29755425  0.67803322  1  -0.332165  1.6e-05  1.781232  0.0  -0.327705  -3.8e-05  1.981193  0.0  -0.340925  -2.3e-05  1.979335  0.0  -0.115124  -0.318889  -4e-05  1.982708  0.0
