# generated using pymatgen
data_CsH7C7O4
_symmetry_space_group_name_H-M   'P 1'
_cell_length_a   5.63950970
_cell_length_b   11.83395846
_cell_length_c   13.50356909
_cell_angle_alpha   99.87268945
_cell_angle_beta   90.00003134
_cell_angle_gamma   90.00034367
_symmetry_Int_Tables_number   1
_chemical_formula_structural   CsH7C7O4
_chemical_formula_sum   'Cs4 H28 C28 O16'
_cell_volume   887.85177723
_cell_formula_units_Z   4
loop_
 _symmetry_equiv_pos_site_id
 _symmetry_equiv_pos_as_xyz
  1  'x, y, z'
loop_
 _atom_site_type_symbol
 _atom_site_label
 _atom_site_symmetry_multiplicity
 _atom_site_fract_x
 _atom_site_fract_y
 _atom_site_fract_z
 _atom_site_occupancy
 _atom_site_hle17_bader_spin_density
 _atom_site_hle17_ddec_charge
 _atom_site_hle17_ddec_spin_density
 _atom_site_hle17_ddec_sum_bond_order
 _atom_site_hle17_magmom
 _atom_site_hse06_10hf_bader_spin_density
 _atom_site_hse06_10hf_ddec_charge
 _atom_site_hse06_10hf_ddec_spin_density
 _atom_site_hse06_10hf_ddec_sum_bond_order
 _atom_site_hse06_10hf_magmom
 _atom_site_hse06_bader_spin_density
 _atom_site_hse06_ddec_charge
 _atom_site_hse06_ddec_spin_density
 _atom_site_hse06_ddec_sum_bond_order
 _atom_site_hse06_magmom
 _atom_site_pbe_bader_spin_density
 _atom_site_pbe_cm5_charge
 _atom_site_pbe_ddec_charge
 _atom_site_pbe_ddec_spin_density
 _atom_site_pbe_ddec_sum_bond_order
 _atom_site_pbe_magmom
Cs  Cs0  1  0.73135633  0.60639966  0.44165628  1  0  0.964731  0  0.574837  0  0  0.913244  0  0.814699  0  0  0.92768  0  0.791216  0  0  0.846942  0.90258  0  0.831346  0
Cs  Cs1  1  0.23136110  0.39359691  0.05834634  1  0  0.964697  0  0.574877  0  0  0.913209  0  0.81473  0  0  0.927648  0  0.791229  0  0  0.846932  0.902542  0  0.831379  0
Cs  Cs2  1  0.26863760  0.39359938  0.55834046  1  0  0.964695  0  0.574855  0  0  0.913225  0  0.814698  0  0  0.927667  0  0.791229  0  0  0.846914  0.902569  0  0.831326  0
Cs  Cs3  1  0.76863993  0.60640043  0.94166792  1  0  0.964702  0  0.574902  0  0  0.913255  0  0.814722  0  0  0.927694  0  0.79122  0  0  0.846971  0.90258  0  0.831382  0
H  H4  1  0.66191083  0.93296822  0.69574104  1  0  0.110875  0  0.959255  0  0  0.121125  0  1.021464  0  0  0.123547  0  1.022564  0  0  0.103312  0.119388  0  1.02088  0
H  H5  1  0.16194212  0.06702353  0.80425722  1  0  0.110946  0  0.959238  0  0  0.121205  0  1.021446  0  0  0.123601  0  1.022561  0  0  0.103314  0.119464  0  1.02086  0
H  H6  1  0.33806892  0.06702225  0.30425738  1  0  0.110856  0  0.959323  0  0  0.121168  0  1.02148  0  0  0.123565  0  1.022588  0  0  0.103307  0.119428  0  1.02089  0
H  H7  1  0.83806778  0.93298410  0.19574378  1  0  0.110965  0  0.959114  0  0  0.121199  0  1.021359  0  0  0.123603  0  1.022475  0  0  0.10328  0.119461  0  1.020773  0
H  H8  1  0.28227770  0.77665885  0.89709547  1  0  0.091456  0  0.958893  0  0  0.102362  0  1.021227  0  0  0.105868  0  1.018307  0  0  0.108415  0.099799  0  1.023352  0
H  H9  1  0.78228943  0.22333928  0.60289712  1  0  0.091406  0  0.959003  0  0  0.102325  0  1.02129  0  0  0.105834  0  1.018376  0  0  0.108382  0.099762  0  1.023413  0
H  H10  1  0.71770559  0.22333247  0.10290012  1  0  0.091429  0  0.958911  0  0  0.102337  0  1.02123  0  0  0.105849  0  1.018313  0  0  0.108392  0.099773  0  1.023355  0
H  H11  1  0.21770805  0.77666920  0.39710771  1  0  0.091471  0  0.958776  0  0  0.10238  0  1.021082  0  0  0.105897  0  1.018166  0  0  0.108416  0.099816  0  1.023209  0
H  H12  1  0.64721662  0.97577213  0.88280888  1  0  0.095685  0  0.945944  0  0  0.108032  0  1.001996  0  0  0.110742  0  1.000378  0  0  0.104178  0.106046  0  1.003198  0
H  H13  1  0.14725434  0.02421528  0.61719316  1  0  0.095678  0  0.945853  0  0  0.108022  0  1.001887  0  0  0.110733  0  1.000267  0  0  0.104163  0.106037  0  1.003089  0
H  H14  1  0.35276313  0.02422778  0.11719318  1  0  0.095706  0  0.945827  0  0  0.108038  0  1.001895  0  0  0.110751  0  1.000271  0  0  0.104173  0.106053  0  1.003098  0
H  H15  1  0.85275733  0.97578548  0.38281199  1  0  0.095751  0  0.945952  0  0  0.10808  0  1.001993  0  0  0.110792  0  1.00037  0  0  0.104183  0.106094  0  1.003196  0
H  H16  1  0.96059098  0.89993976  0.98419694  1  0  0.09821  0  0.962699  0  0  0.108365  0  1.024024  0  0  0.11169  0  1.022855  0  0  0.102048  0.105987  0  1.024944  0
H  H17  1  0.46059936  0.10004694  0.51579398  1  0  0.098266  0  0.962503  0  0  0.108431  0  1.023848  0  0  0.111756  0  1.022679  0  0  0.102104  0.106057  0  1.024772  0
H  H18  1  0.03939232  0.10004899  0.01579456  1  0  0.098263  0  0.962472  0  0  0.108449  0  1.023782  0  0  0.111759  0  1.022636  0  0  0.102079  0.106078  0  1.024703  0
H  H19  1  0.53940876  0.89994353  0.48420370  1  0  0.098289  0  0.962428  0  0  0.10846  0  1.023758  0  0  0.111781  0  1.022602  0  0  0.102113  0.106088  0  1.024681  0
H  H20  1  0.66704205  0.55843126  0.67841937  1  0  0.406648  0  0.909629  0  0  0.374565  0  0.977018  0  0  0.386425  0  0.959522  0  0  0.276539  0.366193  0  0.989346  0
H  H21  1  0.16705647  0.44157423  0.82158910  1  0  0.406489  0  0.909841  0  0  0.374468  0  0.97715  0  0  0.386333  0  0.959646  0  0  0.276497  0.366095  0  0.989479  0
H  H22  1  0.33296252  0.44157465  0.32157767  1  0  0.406539  0  0.909756  0  0  0.374436  0  0.977178  0  0  0.386298  0  0.959678  0  0  0.276514  0.366062  0  0.989508  0
H  H23  1  0.83295697  0.55842825  0.17841335  1  0  0.406593  0  0.909732  0  0  0.374547  0  0.977079  0  0  0.386413  0  0.959573  0  0  0.276553  0.366174  0  0.989406  0
H  H24  1  0.82136332  0.44655214  0.68104127  1  0  0.397012  0  0.923331  0  0  0.367589  0  0.987294  0  0  0.377694  0  0.972394  0  0  0.275826  0.360489  0  0.997747  0
H  H25  1  0.32137019  0.55345813  0.81896870  1  0  0.397056  0  0.923289  0  0  0.36761  0  0.98729  0  0  0.377718  0  0.972384  0  0  0.275847  0.360509  0  0.997744  0
H  H26  1  0.17863416  0.55345120  0.31895982  1  0  0.397018  0  0.923307  0  0  0.367588  0  0.987284  0  0  0.377697  0  0.972377  0  0  0.275835  0.360488  0  0.997738  0
H  H27  1  0.67864325  0.44654434  0.18103745  1  0  0.397056  0  0.923262  0  0  0.367641  0  0.987215  0  0  0.377751  0  0.972309  0  0  0.275875  0.360541  0  0.997669  0
H  H28  1  0.14002219  0.75910804  0.57618550  1  0  0.368944  0  0.934961  0  0  0.342445  0  1.009869  0  0  0.354691  0  0.997251  0  0  0.294247  0.333907  0  1.018486  0
H  H29  1  0.64003439  0.24088878  0.92382388  1  0  0.368978  0  0.935  0  0  0.342449  0  1.009937  0  0  0.354694  0  0.997323  0  0  0.29426  0.333911  0  1.018552  0
H  H30  1  0.85997884  0.24087986  0.42381846  1  0  0.368983  0  0.934954  0  0  0.342439  0  1.009925  0  0  0.354683  0  0.997313  0  0  0.294246  0.333901  0  1.01854  0
H  H31  1  0.35998259  0.75911970  0.07618095  1  0  0.368918  0  0.935013  0  0  0.342404  0  1.00994  0  0  0.354647  0  0.99733  0  0  0.294257  0.333867  0  1.018554  0
C  C32  1  0.15166703  0.78209383  0.74872341  1  0  -0.226324  0  3.773627  0  0  -0.206969  0  4.010724  0  0  -0.220846  0  4.034113  0  0  -0.040072  -0.197945  0  3.995007  0
C  C33  1  0.65170896  0.21789531  0.75127667  1  0  -0.22637  0  3.773783  0  0  -0.207175  0  4.011085  0  0  -0.221058  0  4.034481  0  0  -0.040143  -0.198155  0  3.995382  0
C  C34  1  0.84830917  0.21789492  0.25127623  1  0  -0.226431  0  3.773675  0  0  -0.20715  0  4.010843  0  0  -0.221034  0  4.03425  0  0  -0.040092  -0.198126  0  3.995132  0
C  C35  1  0.34829384  0.78210888  0.24872011  1  0  -0.226508  0  3.773523  0  0  -0.207378  0  4.010894  0  0  -0.221265  0  4.034303  0  0  -0.040157  -0.198352  0  3.995179  0
C  C36  1  0.79590634  0.89862629  0.74061592  1  0  -0.185793  0  3.703123  0  0  -0.205684  0  3.956386  0  0  -0.213633  0  3.976721  0  0  -0.101576  -0.200551  0  3.942784  0
C  C37  1  0.29593799  0.10135302  0.75937902  1  0  -0.185813  0  3.702774  0  0  -0.205794  0  3.956114  0  0  -0.213714  0  3.976449  0  0  -0.101528  -0.200653  0  3.942505  0
C  C38  1  0.20407696  0.10136246  0.25937928  1  0  -0.18591  0  3.703128  0  0  -0.205917  0  3.956447  0  0  -0.21383  0  3.976775  0  0  -0.10162  -0.200774  0  3.942837  0
C  C39  1  0.70405772  0.89865203  0.24062307  1  0  -0.185862  0  3.70298  0  0  -0.205817  0  3.956348  0  0  -0.213751  0  3.976678  0  0  -0.101531  -0.200678  0  3.94274  0
C  C40  1  0.14380485  0.81024973  0.85394586  1  0  -0.069153  0  3.821128  0  0  -0.093849  0  4.07516  0  0  -0.089964  0  4.094523  0  0  -0.101606  -0.096036  0  4.061815  0
C  C41  1  0.64383041  0.18974624  0.64604932  1  0  -0.069124  0  3.820957  0  0  -0.093761  0  4.07502  0  0  -0.089886  0  4.094407  0  0  -0.101527  -0.09595  0  4.061678  0
C  C42  1  0.85617667  0.18974073  0.14605108  1  0  -0.069064  0  3.821075  0  0  -0.093725  0  4.075118  0  0  -0.089857  0  4.094502  0  0  -0.101546  -0.095913  0  4.06178  0
C  C43  1  0.35617594  0.81026395  0.35394762  1  0  -0.069081  0  3.821006  0  0  -0.093684  0  4.07508  0  0  -0.089813  0  4.094458  0  0  -0.101598  -0.095873  0  4.061739  0
C  C44  1  0.78921977  0.92239748  0.84510902  1  0  -0.023991  0  3.76276  0  0  -0.042134  0  4.019979  0  0  -0.038285  0  4.037905  0  0  -0.082274  -0.044348  0  4.007589  0
C  C45  1  0.28925105  0.07759724  0.65488676  1  0  -0.024068  0  3.762846  0  0  -0.042136  0  4.020025  0  0  -0.038282  0  4.03794  0  0  -0.082291  -0.044349  0  4.007632  0
C  C46  1  0.21075288  0.07759727  0.15488634  1  0  -0.023984  0  3.762897  0  0  -0.042082  0  4.020091  0  0  -0.038226  0  4.037995  0  0  -0.08229  -0.044301  0  4.007715  0
C  C47  1  0.71076061  0.92241038  0.34511794  1  0  -0.024135  0  3.762596  0  0  -0.042182  0  4.019745  0  0  -0.038322  0  4.037649  0  0  -0.082224  -0.044401  0  4.007369  0
C  C48  1  0.96492276  0.87953314  0.90245418  1  0  -0.150127  0  3.838886  0  0  -0.166851  0  4.10154  0  0  -0.172905  0  4.122461  0  0  -0.127847  -0.162926  0  4.087264  0
C  C49  1  0.46495095  0.12045357  0.59753971  1  0  -0.150054  0  3.838756  0  0  -0.166798  0  4.101383  0  0  -0.172854  0  4.122316  0  0  -0.127875  -0.162882  0  4.087116  0
C  C50  1  0.03505167  0.12045390  0.09754224  1  0  -0.150144  0  3.838963  0  0  -0.166887  0  4.101579  0  0  -0.172934  0  4.122526  0  0  -0.127876  -0.162972  0  4.087315  0
C  C51  1  0.53504476  0.87954633  0.40245717  1  0  -0.150065  0  3.838787  0  0  -0.166818  0  4.101387  0  0  -0.172873  0  4.122333  0  0  -0.127858  -0.162902  0  4.087121  0
C  C52  1  0.97770895  0.82948422  0.69165059  1  0  0.341658  0  3.789317  0  0  0.330668  0  4.044106  0  0  0.345323  0  4.058603  0  0  0.092795  0.320742  0  4.034174  0
C  C53  1  0.47776451  0.17050768  0.80834631  1  0  0.341545  0  3.789208  0  0  0.330605  0  4.04406  0  0  0.345262  0  4.058554  0  0  0.092688  0.320678  0  4.034124  0
C  C54  1  0.02226725  0.17050711  0.30834500  1  0  0.3417  0  3.789208  0  0  0.330753  0  4.044013  0  0  0.34541  0  4.058504  0  0  0.092771  0.320827  0  4.03408  0
C  C55  1  0.52225957  0.82950509  0.19165398  1  0  0.341613  0  3.78939  0  0  0.330658  0  4.044303  0  0  0.345314  0  4.058795  0  0  0.09263  0.320734  0  4.034365  0
C  C56  1  0.33196944  0.70112605  0.69681637  1  0  0.668107  0  3.8978  0  0  0.617092  0  4.193108  0  0  0.652051  0  4.184115  0  0  0.205266  0.59346  0  4.198551  0
C  C57  1  0.83197158  0.29888168  0.80319249  1  0  0.667934  0  3.898157  0  0  0.616971  0  4.193481  0  0  0.65193  0  4.184493  0  0  0.205151  0.593339  0  4.198914  0
C  C58  1  0.66805287  0.29887471  0.30319249  1  0  0.667924  0  3.898104  0  0  0.616942  0  4.193396  0  0  0.651898  0  4.184399  0  0  0.205175  0.593313  0  4.198837  0
C  C59  1  0.16804540  0.70112508  0.19679727  1  0  0.667914  0  3.898218  0  0  0.617018  0  4.19346  0  0  0.651975  0  4.184468  0  0  0.205262  0.593387  0  4.198899  0
O  O60  1  0.34455553  0.68847387  0.60031529  1  0  -0.680885  0  1.974579  0  0  -0.625712  0  2.201194  0  0  -0.6504  0  2.19159  0  0  -0.40898  -0.608677  0  2.207344  0
O  O61  1  0.84455435  0.31153218  0.89968813  1  0  -0.680742  0  1.974747  0  0  -0.625523  0  2.201292  0  0  -0.650206  0  2.191682  0  0  -0.408902  -0.608488  0  2.207438  0
O  O62  1  0.65546855  0.31152775  0.39968925  1  0  -0.680803  0  1.974756  0  0  -0.625632  0  2.2014  0  0  -0.650314  0  2.191801  0  0  -0.408902  -0.6086  0  2.20755  0
O  O63  1  0.15545909  0.68847716  0.10030498  1  0  -0.680706  0  1.975067  0  0  -0.625549  0  2.201656  0  0  -0.650228  0  2.192046  0  0  -0.40897  -0.608516  0  2.207804  0
O  O64  1  0.46227301  0.64419764  0.74820597  1  0  -0.689194  0  2.0399  0  0  -0.621561  0  2.262012  0  0  -0.647777  0  2.252307  0  0  -0.368937  -0.603304  0  2.268158  0
O  O65  1  0.96230415  0.35580708  0.75180025  1  0  -0.689103  0  2.039819  0  0  -0.621503  0  2.261884  0  0  -0.647726  0  2.2522  0  0  -0.368882  -0.603241  0  2.268019  0
O  O66  1  0.53774221  0.35580226  0.25179683  1  0  -0.689032  0  2.03989  0  0  -0.621399  0  2.261968  0  0  -0.647617  0  2.252268  0  0  -0.368908  -0.603139  0  2.268108  0
O  O67  1  0.03771107  0.64419626  0.24819195  1  0  -0.689085  0  2.039601  0  0  -0.621492  0  2.261646  0  0  -0.647712  0  2.251951  0  0  -0.368921  -0.603231  0  2.267787  0
O  O68  1  0.77081312  0.50046363  0.63640353  1  0  -0.950976  0  1.813989  0  0  -0.905843  0  1.988607  0  0  -0.924332  0  1.957984  0  0  -0.772392  -0.892695  0  2.009974  0
O  O69  1  0.27083003  0.49953876  0.86360450  1  0  -0.950879  0  1.814121  0  0  -0.905781  0  1.988637  0  0  -0.924277  0  1.95799  0  0  -0.772397  -0.892631  0  2.010004  0
O  O70  1  0.22918968  0.49953971  0.36359534  1  0  -0.950876  0  1.814099  0  0  -0.905691  0  1.988688  0  0  -0.924179  0  1.958051  0  0  -0.772371  -0.892547  0  2.010067  0
O  O71  1  0.72916568  0.50046715  0.13640216  1  0  -0.951014  0  1.814047  0  0  -0.905914  0  1.988563  0  0  -0.924408  0  1.957906  0  0  -0.772494  -0.892765  0  2.009939  0
O  O72  1  0.98635315  0.80815970  0.58992786  1  0  -0.566872  0  2.097009  0  0  -0.516899  0  2.310648  0  0  -0.537588  0  2.301891  0  0  -0.405899  -0.502124  0  2.316112  0
O  O73  1  0.48638067  0.19182794  0.91006691  1  0  -0.566822  0  2.097176  0  0  -0.516817  0  2.310839  0  0  -0.5375  0  2.302071  0  0  -0.405784  -0.502039  0  2.316298  0
O  O74  1  0.01363901  0.19182562  0.41006608  1  0  -0.566872  0  2.097024  0  0  -0.51687  0  2.310693  0  0  -0.537558  0  2.301941  0  0  -0.405814  -0.502094  0  2.316152  0
O  O75  1  0.51362568  0.80818912  0.08993476  1  0  -0.566842  0  2.097259  0  0  -0.516821  0  2.310892  0  0  -0.537511  0  2.302143  0  0  -0.405768  -0.502043  0  2.316347  0
