# generated using pymatgen
data_Al2H14C21O10
_symmetry_space_group_name_H-M   'P 1'
_cell_length_a   6.81783773
_cell_length_b   11.14926209
_cell_length_c   11.04356454
_cell_angle_alpha   79.07439379
_cell_angle_beta   73.94546193
_cell_angle_gamma   71.44647138
_symmetry_Int_Tables_number   1
_chemical_formula_structural   Al2H14C21O10
_chemical_formula_sum   'Al2 H14 C21 O10'
_cell_volume   760.03115826
_cell_formula_units_Z   1
loop_
 _symmetry_equiv_pos_site_id
 _symmetry_equiv_pos_as_xyz
  1  'x, y, z'
loop_
 _atom_site_type_symbol
 _atom_site_label
 _atom_site_symmetry_multiplicity
 _atom_site_fract_x
 _atom_site_fract_y
 _atom_site_fract_z
 _atom_site_occupancy
 _atom_site_pbe_bader_charge
 _atom_site_pbe_bader_spin_density
 _atom_site_pbe_cm5_charge
 _atom_site_pbe_ddec_charge
 _atom_site_pbe_ddec_spin_density
 _atom_site_pbe_ddec_sum_bond_order
 _atom_site_pbe_magmom
Al  Al0  1  0.49152370  0.49855070  0.50601224  1  2.506728  0  0.403711  1.643062  0  2.564298  0
Al  Al1  1  0.99244814  0.49952127  0.49996856  1  2.503581  0  0.403692  1.632959  0  2.57068  0
H  H2  1  0.28178009  0.34592727  0.58219276  1  0.594325  0  0.347016  0.422017  0  0.865909  0
H  H3  1  0.69765552  0.65289653  0.42627729  1  0.603451  0  0.338874  0.410778  0  0.894496  0
H  H4  1  0.12805635  0.49468908  0.10285309  1  0.067833  0  0.104927  0.104834  0  1.026024  0
H  H5  1  0.73261133  0.50098804  0.14073147  1  0.097734  0  0.10891  0.11936  0  1.001849  0
H  H6  1  0.28024703  0.49078582  0.86673072  1  0.120695  0  0.106624  0.110019  0  1.076909  0
H  H7  1  0.24642804  0.24547911  0.32817899  1  0.110251  0  0.106138  0.113681  0  1.03733  0
H  H8  1  0.59774909  0.13523143  0.20557141  1  0.066658  0  0.104836  0.10225  0  0.989064  0
H  H9  1  0.45901462  0.77507402  0.32794064  1  0.052898  0  0.107304  0.107457  0  1.035167  0
H  H10  1  0.70425348  0.89874068  0.20451075  1  0.07147  0  0.105519  0.102809  0  0.984642  0
H  H11  1  0.75071607  0.87623388  0.58831230  1  0.09574  0  0.113733  0.11994  0  0.981301  0
H  H12  1  0.63710719  0.11337984  0.58101903  1  0.102093  0  0.109966  0.112371  0  0.991328  0
H  H13  1  0.96432034  0.58167011  0.92774128  1  0.036221  0  0.098212  0.137417  0  0.988584  0
H  H14  1  0.00740649  0.49048619  0.80217816  1  0.102663  0  0.103126  0.158859  0  1.034555  0
H  H15  1  0.04042794  0.41376364  0.95523255  1  0.037484  0  0.096886  0.134981  0  0.996916  0
C  C16  1  0.86282077  0.27398596  0.48652622  1  1.574493  0  0.275566  0.659324  0  4.065757  0
C  C17  1  0.65005770  0.49292803  0.73107253  1  1.551772  0  0.272642  0.652418  0  4.067146  0
C  C18  1  0.13076607  0.72567400  0.49882474  1  1.535449  0  0.274786  0.65504  0  4.074985  0
C  C19  1  0.34210408  0.50395807  0.27552132  1  1.570356  0  0.265252  0.635547  0  4.096367  0
C  C20  1  0.58468835  0.49441606  0.87246025  1  -0.008591  0  -0.013783  -0.104171  0  3.916364  0
C  C21  1  0.42252711  0.49891815  0.13591707  1  -0.079659  0  -0.015755  -0.033018  0  4.006847  0
C  C22  1  0.71759688  0.49654920  0.94912682  1  -0.009359  0  0.00621  0.177756  0  3.948241  0
C  C23  1  0.29190487  0.49522731  0.05944218  1  0.015858  0  -0.089257  -0.11132  0  4.002292  0
C  C24  1  0.63242507  0.49898090  0.07981054  1  -0.016385  0  -0.083038  -0.157822  0  3.920799  0
C  C25  1  0.37455470  0.49314913  0.92994297  1  -0.075545  0  -0.088588  -0.10326  0  4.018318  0
C  C26  1  0.93969390  0.13463223  0.47403614  1  -0.036846  0  -0.00579  -0.083629  0  3.930127  0
C  C27  1  0.14978004  0.07362829  0.40615724  1  -0.024516  0  0.000759  0.061748  0  3.940163  0
C  C28  1  0.79791206  0.06411765  0.53370050  1  -0.047071  0  -0.079013  -0.089697  0  4.00436  0
C  C29  1  0.29390916  0.14235296  0.33146622  1  -0.009989  0  -0.090628  -0.134514  0  3.968021  0
C  C30  1  0.49040201  0.08029868  0.26224830  1  -0.095394  0  -0.090182  -0.075612  0  4.034597  0
C  C31  1  0.06712006  0.86764916  0.48029915  1  -0.024631  0  -0.003394  -0.077322  0  3.937797  0
C  C32  1  0.86129837  0.93108831  0.53751159  1  0.008478  0  -0.0815  -0.09524  0  4.003107  0
C  C33  1  0.21351021  0.93711422  0.40815758  1  0.042645  0  -0.00013  0.061817  0  3.943022  0
C  C34  1  0.41502209  0.87716675  0.33264576  1  -0.081847  0  -0.092299  -0.140871  0  3.987863  0
C  C35  1  0.55093118  0.94686984  0.26207016  1  0.028101  0  -0.091077  -0.080255  0  4.043651  0
C  C36  1  0.94532922  0.49540604  0.90368725  1  -0.067088  0  -0.248341  -0.438431  0  3.975015  0
O  O37  1  0.66731684  0.32841622  0.48727897  1  -1.264002  0  -0.23358  -0.595539  0  2.340758  0
O  O38  1  0.83461449  0.50260735  0.67280954  1  -1.266776  0  -0.233877  -0.586349  0  2.389585  0
O  O39  1  0.99445496  0.67162753  0.49397425  1  -1.261482  0  -0.231985  -0.592264  0  2.335935  0
O  O40  1  0.46999099  0.51787698  0.33339240  1  -1.265147  0  -0.238647  -0.601406  0  2.385047  0
O  O41  1  0.31434751  0.66927102  0.52008642  1  -1.264983  0  -0.233114  -0.59094  0  2.349427  0
O  O42  1  0.15342290  0.49559694  0.32548907  1  -1.253874  0  -0.237886  -0.592004  0  2.332707  0
O  O43  1  0.99416432  0.32747212  0.49999056  1  -1.265491  0  -0.232529  -0.596235  0  2.355102  0
O  O44  1  0.51335482  0.48126580  0.67807478  1  -1.261517  0  -0.238418  -0.598341  0  2.347145  0
O  O45  1  0.24772884  0.43721455  0.55836363  1  -1.402175  0  -0.448819  -0.977042  0  2.136953  0
O  O46  1  0.73411351  0.56108944  0.44708683  1  -1.414607  0  -0.453062  -0.981159  0  2.1541  0
