# generated using pymatgen
data_CuH24C25(NO)4
_symmetry_space_group_name_H-M   'P 1'
_cell_length_a   9.42969297
_cell_length_b   9.42927193
_cell_length_c   22.97986122
_cell_angle_alpha   90.00173563
_cell_angle_beta   90.00119624
_cell_angle_gamma   90.05421577
_symmetry_Int_Tables_number   1
_chemical_formula_structural   CuH24C25(NO)4
_chemical_formula_sum   'Cu2 H48 C50 N8 O8'
_cell_volume   2043.25664492
_cell_formula_units_Z   2
loop_
 _symmetry_equiv_pos_site_id
 _symmetry_equiv_pos_as_xyz
  1  'x, y, z'
loop_
 _atom_site_type_symbol
 _atom_site_label
 _atom_site_symmetry_multiplicity
 _atom_site_fract_x
 _atom_site_fract_y
 _atom_site_fract_z
 _atom_site_occupancy
 _atom_site_pbe_bader_charge
 _atom_site_pbe_bader_spin_density
 _atom_site_pbe_cm5_charge
 _atom_site_pbe_ddec_charge
 _atom_site_pbe_ddec_spin_density
 _atom_site_pbe_ddec_sum_bond_order
 _atom_site_pbe_magmom
Cu  Cu0  1  0.49993150  0.00007450  0.75001193  1  0.728007  0.00929  0.569142  0.308821  0.017412  2.337938  0.01
Cu  Cu1  1  0.00003409  0.50003927  0.24999150  1  0.727899  0.009688  0.571639  0.309104  0.018121  2.347595  0.01
H  H2  1  0.01259436  0.83068828  0.93623760  1  0.062411  -0.00053  0.106039  0.078093  -0.000366  0.975765  0.0
H  H3  1  0.87967814  0.80574872  0.99118136  1  0.06505  -0.00059  0.104473  0.073798  -0.000481  0.985357  0.0
H  H4  1  0.83104855  0.65597973  0.91664522  1  0.06839  -0.003085  0.099554  0.109821  -0.003018  1.026797  0.0
H  H5  1  0.67619972  0.52907694  0.84430493  1  0.073857  -0.001186  0.100028  0.102368  -0.00066  1.00495  0.0
H  H6  1  0.51816359  0.66797049  0.77890027  1  0.056515  -0.001524  0.104918  0.074688  -0.001258  1.004728  0.0
H  H7  1  0.65295693  0.04869241  0.85239853  1  0.099467  -0.002001  0.107499  0.089639  -0.002214  1.027799  0.0
H  H8  1  0.98746477  0.16928167  0.93621758  1  0.062375  -0.000531  0.105963  0.078  -0.000367  0.975744  0.0
H  H9  1  0.12024670  0.19433221  0.99120964  1  0.065456  -0.000589  0.104426  0.073689  -0.00048  0.985555  0.0
H  H10  1  0.16879549  0.34406261  0.91662129  1  0.069742  -0.00307  0.099597  0.109918  -0.003019  1.026841  0.0
H  H11  1  0.32363486  0.47098759  0.84428665  1  0.073467  -0.001177  0.100031  0.102221  -0.000654  1.005128  0.0
H  H12  1  0.48178525  0.33211408  0.77892463  1  0.056188  -0.001517  0.1051  0.07492  -0.00125  1.004864  0.0
H  H13  1  0.34724647  0.95137969  0.85248948  1  0.100435  -0.00199  0.107411  0.089168  -0.002211  1.027794  0.0
H  H14  1  0.82993207  0.98674304  0.06363050  1  0.058121  -0.00052  0.105799  0.077662  -0.000352  0.97484  0.0
H  H15  1  0.80634810  0.12111083  0.00924984  1  0.065833  -0.000604  0.104427  0.073326  -0.0005  0.986149  0.0
H  H16  1  0.65622424  0.16846675  0.08335559  1  0.074098  -0.003021  0.099671  0.109735  -0.003008  1.027299  0.0
H  H17  1  0.52892958  0.32494230  0.15489519  1  0.072588  -0.001172  0.100102  0.102565  -0.000648  1.005523  0.0
H  H18  1  0.66758342  0.48315561  0.22043258  1  0.059968  -0.001556  0.10475  0.074222  -0.001284  1.005509  0.0
H  H19  1  0.04882175  0.34552455  0.14850438  1  0.097368  -0.00208  0.107206  0.088808  -0.002277  1.027576  0.0
H  H20  1  0.16998951  0.01326024  0.06366401  1  0.057148  -0.00052  0.105787  0.07759  -0.000352  0.974765  0.0
H  H21  1  0.19363904  0.87894381  0.00926115  1  0.066646  -0.000603  0.10435  0.073211  -0.0005  0.986322  0.0
H  H22  1  0.34369622  0.83159990  0.08336734  1  0.069621  -0.003055  0.099748  0.109909  -0.003003  1.02735  0.0
H  H23  1  0.47103312  0.67509250  0.15487648  1  0.073271  -0.001163  0.100185  0.102754  -0.000645  1.005468  0.0
H  H24  1  0.33240180  0.51680509  0.22038906  1  0.059658  -0.001552  0.104927  0.07418  -0.001281  1.005774  0.0
H  H25  1  0.95114758  0.65435234  0.14845216  1  0.097233  -0.00208  0.107219  0.088839  -0.002272  1.027718  0.0
H  H26  1  0.51328789  0.66998564  0.43635207  1  0.056764  -0.00052  0.105871  0.077605  -0.000353  0.974692  0.0
H  H27  1  0.37892262  0.69359064  0.49073795  1  0.066568  -0.000604  0.104327  0.07312  -0.0005  0.986225  0.0
H  H28  1  0.33160970  0.84369226  0.41662828  1  0.069689  -0.003059  0.099718  0.109789  -0.003008  1.027432  0.0
H  H29  1  0.17508623  0.97102243  0.34512436  1  0.073425  -0.001163  0.100113  0.102635  -0.000645  1.005544  0.0
H  H30  1  0.01683311  0.83238646  0.27959307  1  0.060135  -0.00155  0.104838  0.074233  -0.001279  1.005746  0.0
H  H31  1  0.15443067  0.45112993  0.35150822  1  0.097252  -0.002084  0.107131  0.088637  -0.002277  1.027793  0.0
H  H32  1  0.48679664  0.32989560  0.43636643  1  0.058344  -0.00052  0.105845  0.077786  -0.000351  0.974668  0.0
H  H33  1  0.62118129  0.30635166  0.49074578  1  0.065824  -0.000604  0.104399  0.073386  -0.0005  0.986035  0.0
H  H34  1  0.66851848  0.15625182  0.41664568  1  0.073042  -0.003035  0.099733  0.109753  -0.003006  1.027135  0.0
H  H35  1  0.82494879  0.02893866  0.34509521  1  0.072678  -0.001172  0.100089  0.102574  -0.000649  1.00541  0.0
H  H36  1  0.98312421  0.16759464  0.27954520  1  0.059585  -0.001556  0.104867  0.074263  -0.001282  1.005558  0.0
H  H37  1  0.84552759  0.54883953  0.35148472  1  0.0975  -0.002082  0.107195  0.088722  -0.002277  1.02785  0.0
H  H38  1  0.33075238  0.51252365  0.56377669  1  0.056759  -0.000533  0.105955  0.07803  -0.000367  0.975684  0.0
H  H39  1  0.30572703  0.37970864  0.50879594  1  0.064655  -0.000589  0.104478  0.07367  -0.00048  0.98556  0.0
H  H40  1  0.15598970  0.33119607  0.58339038  1  0.070316  -0.003063  0.099588  0.109925  -0.003018  1.026722  0.0
H  H41  1  0.02906441  0.17639405  0.65573373  1  0.073807  -0.001177  0.100047  0.102282  -0.000655  1.004973  0.0
H  H42  1  0.16792157  0.01825935  0.72110444  1  0.056334  -0.001518  0.105074  0.07487  -0.001252  1.004782  0.0
H  H43  1  0.54866195  0.15276807  0.64753394  1  0.099729  -0.001996  0.107624  0.089509  -0.002211  1.027605  0.0
H  H44  1  0.66937063  0.48743262  0.56375710  1  0.062215  -0.000531  0.105985  0.078038  -0.000367  0.975605  0.0
H  H45  1  0.69427806  0.62033178  0.50880725  1  0.065503  -0.00059  0.104486  0.073751  -0.00048  0.985461  0.0
H  H46  1  0.84404007  0.66897733  0.58335339  1  0.068276  -0.003084  0.099563  0.109796  -0.003019  1.02676  0.0
H  H47  1  0.97093456  0.82379852  0.65570326  1  0.073703  -0.001186  0.100099  0.10242  -0.00066  1.00477  0.0
H  H48  1  0.83202455  0.98180395  0.72112054  1  0.056274  -0.001525  0.10484  0.074617  -0.001259  1.004841  0.0
H  H49  1  0.45130717  0.84700863  0.64761705  1  0.099505  -0.002  0.107504  0.08943  -0.002215  1.027766  0.0
C  C50  1  0.93120453  0.88439854  0.96266552  1  0.41201  -0.000598  -0.06269  -0.023998  -0.000484  3.868929  0.0
C  C51  1  0.75337246  0.86350599  0.88887961  1  0.364285  0.000411  0.073104  0.217002  0.000878  4.103953  0.007
C  C52  1  0.76149192  0.71495036  0.88771511  1  0.033324  -0.0828  -0.12281  -0.227455  -0.084332  4.015234  -0.048
C  C53  1  0.67507468  0.64451664  0.84697204  1  -0.080729  -0.013578  -0.103772  -0.118459  -0.014204  4.075026  -0.004
C  C54  1  0.58578799  0.72087727  0.81073597  1  0.411285  -0.01994  0.00697  0.025413  -0.020009  4.028583  -0.007
C  C55  1  0.66150364  0.93336971  0.85106389  1  0.489209  -0.06497  0.000354  -0.072649  -0.067577  3.966721  -0.036
C  C56  1  0.06881917  0.11563364  0.96268380  1  0.412219  -0.000599  -0.062516  -0.023218  -0.000484  3.8687  0.0
C  C57  1  0.24669996  0.13655347  0.88892530  1  0.366474  0.000392  0.0729  0.216727  0.000854  4.103866  0.007
C  C58  1  0.23844676  0.28510892  0.88772468  1  0.029539  -0.082856  -0.122655  -0.227363  -0.084358  4.014825  -0.048
C  C59  1  0.32483547  0.35555147  0.84697814  1  -0.080551  -0.013504  -0.10383  -0.117952  -0.014124  4.075419  -0.004
C  C60  1  0.41418423  0.27920140  0.81076295  1  0.412669  -0.020002  0.006727  0.024876  -0.020079  4.029121  -0.007
C  C61  1  0.33862857  0.06670008  0.85113351  1  0.487537  -0.064913  0.000688  -0.071281  -0.067513  3.966015  -0.036
C  C62  1  0.88445294  0.06854999  0.03764383  1  0.415396  -0.000611  -0.062366  -0.022613  -0.000496  3.867937  0.0
C  C63  1  0.86365858  0.24563708  0.11165559  1  0.356487  0.000421  0.073059  0.217314  0.000934  4.102618  0.007
C  C64  1  0.71503276  0.23822086  0.11230616  1  0.014062  -0.0826  -0.122261  -0.226811  -0.084077  4.014611  -0.048
C  C65  1  0.64442892  0.32542679  0.15265714  1  -0.062194  -0.01353  -0.104063  -0.118983  -0.014111  4.076261  -0.004
C  C66  1  0.72067478  0.41483196  0.18893935  1  0.403486  -0.019982  0.007529  0.026127  -0.020131  4.029437  -0.007
C  C67  1  0.93340513  0.33758233  0.14951613  1  0.492274  -0.064929  0.000986  -0.07126  -0.067483  3.966071  -0.036
C  C68  1  0.11550736  0.93146642  0.03765340  1  0.415629  -0.000611  -0.062119  -0.02195  -0.000495  3.867587  0.0
C  C69  1  0.13628693  0.75431815  0.11163079  1  0.355669  0.000401  0.073386  0.218027  0.000923  4.102329  0.007
C  C70  1  0.28490757  0.76179280  0.11229789  1  0.019165  -0.082486  -0.122628  -0.22754  -0.08401  4.014921  -0.048
C  C71  1  0.35553672  0.67457798  0.15263452  1  -0.062667  -0.013471  -0.104096  -0.119088  -0.014049  4.076201  -0.004
C  C72  1  0.27930723  0.58513681  0.18890454  1  0.403547  -0.019998  0.00753  0.026526  -0.020151  4.029312  -0.007
C  C73  1  0.06656010  0.66232865  0.14947436  1  0.494825  -0.064843  0.000917  -0.07137  -0.067408  3.966174  -0.036
C  C74  1  0.43147676  0.61548386  0.46234352  1  0.415783  -0.000612  -0.062133  -0.021877  -0.000496  3.867392  0.0
C  C75  1  0.25437131  0.63627216  0.38834221  1  0.355537  0.000415  0.073351  0.217843  0.000929  4.102624  0.007
C  C76  1  0.26182180  0.78489765  0.38768903  1  0.019249  -0.082574  -0.122582  -0.227277  -0.084095  4.015065  -0.048
C  C77  1  0.17459529  0.85552370  0.34735458  1  -0.062195  -0.013506  -0.10403  -0.119082  -0.014086  4.076468  -0.004
C  C78  1  0.08517270  0.77929664  0.31107499  1  0.402631  -0.020008  0.007562  0.026395  -0.020157  4.029512  -0.007
C  C79  1  0.16240010  0.56654284  0.35049037  1  0.494254  -0.06494  0.000983  -0.071295  -0.067491  3.966399  -0.036
C  C80  1  0.56859242  0.38444153  0.46235310  1  0.414359  -0.000612  -0.062281  -0.022801  -0.000496  3.867939  0.0
C  C81  1  0.74566067  0.36367623  0.38833829  1  0.356423  0.000431  0.073116  0.217341  0.00094  4.103057  0.007
C  C82  1  0.73825572  0.21504958  0.38768816  1  0.015942  -0.082554  -0.122418  -0.226921  -0.084053  4.014843  -0.048
C  C83  1  0.82543466  0.14443878  0.34733108  1  -0.062363  -0.013531  -0.103984  -0.118953  -0.014114  4.076085  -0.004
C  C84  1  0.91481539  0.22068380  0.31104235  1  0.403157  -0.019972  0.007313  0.02591  -0.020124  4.029591  -0.007
C  C85  1  0.83758139  0.43342222  0.35047209  1  0.49161  -0.064939  0.000947  -0.0713  -0.067486  3.966569  -0.036
C  C86  1  0.38441599  0.43115695  0.53731961  1  0.418499  -0.000597  -0.062424  -0.023226  -0.000484  3.868716  0.0
C  C87  1  0.36349788  0.25331720  0.61109333  1  0.366377  0.000398  0.073017  0.217122  0.000858  4.103628  0.007
C  C88  1  0.21494842  0.26157137  0.61229569  1  0.029776  -0.08288  -0.122699  -0.227667  -0.084382  4.014874  -0.048
C  C89  1  0.14449849  0.17519016  0.65304267  1  -0.080584  -0.013506  -0.103794  -0.117975  -0.014125  4.075174  -0.004
C  C90  1  0.22083929  0.08584867  0.68926265  1  0.41201  -0.020009  0.006608  0.02485  -0.020086  4.029196  -0.007
C  C91  1  0.43334511  0.16139557  0.64888991  1  0.48815  -0.064935  0.000335  -0.072155  -0.067538  3.966369  -0.036
C  C92  1  0.61563753  0.56880178  0.53732744  1  0.411611  -0.000598  -0.062471  -0.023499  -0.000484  3.868158  0.0
C  C93  1  0.63650692  0.74662062  0.61112684  1  0.364889  0.000413  0.073063  0.217004  0.000875  4.103539  0.007
C  C94  1  0.78506194  0.73851297  0.61229047  1  0.033152  -0.082832  -0.122788  -0.227465  -0.084363  4.015299  -0.048
C  C95  1  0.85549270  0.82491718  0.65303963  1  -0.080346  -0.013572  -0.104015  -0.118531  -0.014201  4.075008  -0.004
C  C96  1  0.77912371  0.91418447  0.68928267  1  0.411192  -0.01996  0.007134  0.025355  -0.020028  4.02874  -0.007
C  C97  1  0.56663271  0.83846618  0.64895257  1  0.489091  -0.064991  0.000321  -0.072372  -0.067591  3.966534  -0.036
C  C98  1  0.99999334  0.00001380  0.00014447  1  0.081418  -0.000122  -0.019441  0.048075  -3.4e-05  3.820422  0.0
C  C99  1  0.50002802  0.49996970  0.49985289  1  0.081747  -0.000122  -0.019481  0.04804  -3.4e-05  3.820317  0.0
N  N100  1  0.57613476  0.86455666  0.81278646  1  -1.17176  -0.061597  -0.367  -0.217165  -0.061106  3.647879  -0.046
N  N101  1  0.42392464  0.13552125  0.81283041  1  -1.17096  -0.061573  -0.36743  -0.218108  -0.061094  3.648158  -0.046
N  N102  1  0.86444506  0.42383148  0.18734317  1  -1.164452  -0.061588  -0.368594  -0.218251  -0.061072  3.650596  -0.046
N  N103  1  0.13553571  0.57610629  0.18730487  1  -1.165823  -0.061501  -0.368583  -0.218266  -0.060991  3.650792  -0.046
N  N104  1  0.07616265  0.63551996  0.31266333  1  -1.166235  -0.061591  -0.368598  -0.218103  -0.061075  3.650937  -0.046
N  N105  1  0.92381712  0.36445543  0.31264288  1  -1.16411  -0.061571  -0.36846  -0.217913  -0.061047  3.650302  -0.046
N  N106  1  0.36451651  0.07611288  0.68719649  1  -1.171839  -0.061599  -0.367245  -0.217645  -0.061116  3.648369  -0.046
N  N107  1  0.63544513  0.92383088  0.68723348  1  -1.171852  -0.061634  -0.366934  -0.217119  -0.061141  3.647815  -0.046
O  O108  1  0.82881809  0.94998201  0.92551038  1  -1.085245  -0.000503  -0.183924  -0.200281  0.000204  2.570082  0.0
O  O109  1  0.17132381  0.05007756  0.92557870  1  -1.086947  -0.000508  -0.183886  -0.201001  0.000197  2.570542  0.0
O  O110  1  0.95027490  0.16973455  0.07532987  1  -1.085683  -0.000481  -0.184347  -0.201196  0.000214  2.570033  0.0
O  O111  1  0.04966798  0.83023546  0.07531029  1  -1.08619  -0.000484  -0.18469  -0.201895  0.000209  2.569787  0.0
O  O112  1  0.33029156  0.54965518  0.42466096  1  -1.08555  -0.000481  -0.184707  -0.201766  0.000213  2.569696  0.0
O  O113  1  0.66976002  0.45028373  0.42466880  1  -1.084829  -0.000479  -0.18438  -0.201092  0.000217  2.569975  0.0
O  O114  1  0.44997417  0.32868089  0.57443602  1  -1.086134  -0.00051  -0.184056  -0.200973  0.000196  2.57028  0.0
O  O115  1  0.55004274  0.67118576  0.57448432  1  -1.085402  -0.000503  -0.184079  -0.200673  0.000202  2.569941  0.0
