# generated using pymatgen
data_ErH8C5O9
_symmetry_space_group_name_H-M   'P 1'
_cell_length_a   6.63060930
_cell_length_b   11.50411821
_cell_length_c   11.59171829
_cell_angle_alpha   97.09316158
_cell_angle_beta   90.00047728
_cell_angle_gamma   90.00001123
_symmetry_Int_Tables_number   1
_chemical_formula_structural   ErH8C5O9
_chemical_formula_sum   'Er4 H32 C20 O36'
_cell_volume   877.44118291
_cell_formula_units_Z   4
loop_
 _symmetry_equiv_pos_site_id
 _symmetry_equiv_pos_as_xyz
  1  'x, y, z'
loop_
 _atom_site_type_symbol
 _atom_site_label
 _atom_site_symmetry_multiplicity
 _atom_site_fract_x
 _atom_site_fract_y
 _atom_site_fract_z
 _atom_site_occupancy
 _atom_site_hle17_bader_spin_density
 _atom_site_hle17_ddec_charge
 _atom_site_hle17_ddec_spin_density
 _atom_site_hle17_ddec_sum_bond_order
 _atom_site_hle17_magmom
 _atom_site_hse06_10hf_bader_spin_density
 _atom_site_hse06_10hf_ddec_charge
 _atom_site_hse06_10hf_ddec_spin_density
 _atom_site_hse06_10hf_ddec_sum_bond_order
 _atom_site_hse06_10hf_magmom
 _atom_site_hse06_bader_spin_density
 _atom_site_hse06_ddec_charge
 _atom_site_hse06_ddec_spin_density
 _atom_site_hse06_ddec_sum_bond_order
 _atom_site_hse06_magmom
 _atom_site_pbe_bader_spin_density
 _atom_site_pbe_cm5_charge
 _atom_site_pbe_ddec_charge
 _atom_site_pbe_ddec_spin_density
 _atom_site_pbe_ddec_sum_bond_order
 _atom_site_pbe_magmom
Er  Er0  1  0.98424113  0.30361340  0.16705166  1  0  2.240882  0  1.631822  0  0  2.082712  0  2.120051  0  0  2.220448  0  1.909727  0  0  1.49475  2.047972  0  2.148578  0
Er  Er1  1  0.48425065  0.69638981  0.33294139  1  0  2.240794  0  1.631829  0  0  2.082646  0  2.120065  0  0  2.220427  0  1.909719  0  0  1.494757  2.047917  0  2.148552  0
Er  Er2  1  0.01576191  0.69639199  0.83294102  1  0  2.240773  0  1.631961  0  0  2.082621  0  2.120245  0  0  2.220399  0  1.909876  0  0  1.494731  2.047884  0  2.148762  0
Er  Er3  1  0.51575692  0.30361562  0.66706164  1  0  2.240891  0  1.631815  0  0  2.082706  0  2.120046  0  0  2.220448  0  1.909703  0  0  1.494729  2.047972  0  2.148577  0
H  H4  1  0.10383179  0.47930494  0.36110688  1  0  0.455245  0  0.839756  0  0  0.42441  0  0.901911  0  0  0.436223  0  0.88482  0  0  0.30831  0.416322  0  0.913679  0
H  H5  1  0.60382193  0.52070587  0.13888440  1  0  0.455254  0  0.839732  0  0  0.424376  0  0.901956  0  0  0.43619  0  0.884865  0  0  0.308295  0.41629  0  0.913719  0
H  H6  1  0.89619237  0.52070133  0.63889021  1  0  0.455246  0  0.839772  0  0  0.424364  0  0.901988  0  0  0.436179  0  0.884895  0  0  0.308337  0.416273  0  0.913764  0
H  H7  1  0.39619016  0.47931353  0.86110994  1  0  0.455179  0  0.839861  0  0  0.424299  0  0.902081  0  0  0.436117  0  0.884984  0  0  0.308277  0.41621  0  0.913855  0
H  H8  1  0.82328544  0.11420149  0.28938045  1  0  0.443148  0  0.856608  0  0  0.408731  0  0.924632  0  0  0.421013  0  0.907069  0  0  0.294668  0.400173  0  0.936974  0
H  H9  1  0.32328420  0.88579812  0.21061573  1  0  0.443103  0  0.856677  0  0  0.408687  0  0.924697  0  0  0.420974  0  0.907126  0  0  0.294659  0.400124  0  0.937048  0
H  H10  1  0.17669045  0.88579427  0.71061195  1  0  0.443109  0  0.856673  0  0  0.408715  0  0.924649  0  0  0.420992  0  0.907094  0  0  0.294711  0.400156  0  0.936994  0
H  H11  1  0.67668718  0.11419942  0.78938637  1  0  0.443148  0  0.85661  0  0  0.408739  0  0.924618  0  0  0.421019  0  0.907057  0  0  0.294711  0.400183  0  0.936957  0
H  H12  1  0.22722886  0.02149764  0.94602501  1  0  0.090506  0  0.932628  0  0  0.099927  0  0.998628  0  0  0.102463  0  0.995778  0  0  0.111384  0.09829  0  1.000477  0
H  H13  1  0.72723300  0.97849611  0.55397874  1  0  0.090539  0  0.93251  0  0  0.099941  0  0.998554  0  0  0.102462  0  0.995698  0  0  0.111357  0.09831  0  1.000407  0
H  H14  1  0.77276665  0.97849113  0.05397260  1  0  0.090406  0  0.9326  0  0  0.09986  0  0.998604  0  0  0.102388  0  0.995751  0  0  0.11133  0.098229  0  1.000454  0
H  H15  1  0.27276401  0.02150583  0.44602647  1  0  0.090396  0  0.932601  0  0  0.099846  0  0.998643  0  0  0.102358  0  0.995785  0  0  0.111323  0.098213  0  1.000487  0
H  H16  1  0.27412757  0.15248543  0.88201695  1  0  0.117026  0  0.940152  0  0  0.12635  0  1.002846  0  0  0.129329  0  1.00061  0  0  0.121166  0.124309  0  1.004649  0
H  H17  1  0.77413260  0.84750308  0.61798381  1  0  0.117066  0  0.940148  0  0  0.126377  0  1.002839  0  0  0.129342  0  1.000593  0  0  0.121229  0.124357  0  1.004626  0
H  H18  1  0.72586039  0.84750510  0.11798345  1  0  0.117072  0  0.94013  0  0  0.126427  0  1.002801  0  0  0.129404  0  1.000555  0  0  0.121224  0.124378  0  1.004621  0
H  H19  1  0.22585234  0.15249447  0.38201915  1  0  0.117088  0  0.940126  0  0  0.126457  0  1.002798  0  0  0.129422  0  1.000547  0  0  0.121213  0.124424  0  1.004595  0
H  H20  1  0.50706060  0.24036393  0.00923208  1  0  0.120113  0  0.910253  0  0  0.128149  0  0.973187  0  0  0.131943  0  0.968972  0  0  0.124969  0.125555  0  0.976173  0
H  H21  1  0.00706943  0.75963200  0.49077423  1  0  0.120076  0  0.910183  0  0  0.128234  0  0.973051  0  0  0.132024  0  0.96884  0  0  0.124983  0.12563  0  0.976045  0
H  H22  1  0.49293038  0.75963012  0.99077133  1  0  0.120103  0  0.910218  0  0  0.128243  0  0.973075  0  0  0.132044  0  0.968869  0  0  0.124992  0.12565  0  0.976072  0
H  H23  1  0.99292457  0.24036993  0.50922925  1  0  0.120072  0  0.910187  0  0  0.128212  0  0.97308  0  0  0.132021  0  0.968872  0  0  0.124972  0.125613  0  0.976071  0
H  H24  1  0.52380920  0.11380294  0.08336052  1  0  0.093404  0  0.91612  0  0  0.103951  0  0.979352  0  0  0.106529  0  0.976255  0  0  0.112077  0.102195  0  0.981523  0
H  H25  1  0.02381850  0.88619386  0.41664339  1  0  0.093417  0  0.9161  0  0  0.104013  0  0.979322  0  0  0.106598  0  0.976226  0  0  0.112096  0.10225  0  0.981495  0
H  H26  1  0.47619535  0.88619197  0.91663954  1  0  0.093441  0  0.916153  0  0  0.104037  0  0.979343  0  0  0.106634  0  0.97625  0  0  0.112122  0.102284  0  0.98152  0
H  H27  1  0.97617851  0.11380805  0.58335664  1  0  0.093377  0  0.916128  0  0  0.104015  0  0.979307  0  0  0.106613  0  0.976221  0  0  0.112101  0.102257  0  0.981483  0
H  H28  1  0.01422653  0.05772947  0.21700223  1  0  0.437293  0  0.865576  0  0  0.40296  0  0.93441  0  0  0.4147  0  0.917608  0  0  0.294027  0.394792  0  0.946204  0
H  H29  1  0.51422194  0.94226556  0.28299797  1  0  0.437311  0  0.865555  0  0  0.402967  0  0.934406  0  0  0.414709  0  0.917605  0  0  0.294039  0.394798  0  0.946199  0
H  H30  1  0.98575691  0.94226194  0.78299914  1  0  0.437219  0  0.865706  0  0  0.402893  0  0.934528  0  0  0.414627  0  0.917735  0  0  0.294019  0.394722  0  0.946329  0
H  H31  1  0.48575849  0.05773459  0.71699840  1  0  0.4372  0  0.865715  0  0  0.402892  0  0.934517  0  0  0.414622  0  0.917719  0  0  0.294017  0.394723  0  0.946314  0
H  H32  1  0.86700144  0.48911174  0.35662627  1  0  0.450474  0  0.842409  0  0  0.422619  0  0.899792  0  0  0.433009  0  0.884874  0  0  0.312596  0.415515  0  0.910121  0
H  H33  1  0.36699305  0.51089753  0.14337040  1  0  0.450415  0  0.842486  0  0  0.422546  0  0.899904  0  0  0.432932  0  0.884992  0  0  0.312536  0.415435  0  0.910247  0
H  H34  1  0.13302272  0.51089805  0.64337470  1  0  0.450606  0  0.842233  0  0  0.42271  0  0.899698  0  0  0.433094  0  0.88479  0  0  0.312606  0.415605  0  0.910035  0
H  H35  1  0.63301301  0.48911927  0.85662881  1  0  0.45053  0  0.842341  0  0  0.422647  0  0.899776  0  0  0.433033  0  0.884863  0  0  0.312588  0.415542  0  0.910109  0
C  C36  1  0.46992661  0.27472603  0.19500935  1  0  0.731385  0  3.833326  0  0  0.684125  0  4.133864  0  0  0.720077  0  4.12604  0  0  0.227226  0.66017  0  4.141579  0
C  C37  1  0.96993131  0.72527020  0.30499057  1  0  0.731077  0  3.833739  0  0  0.683969  0  4.13418  0  0  0.71995  0  4.126311  0  0  0.227101  0.659989  0  4.141912  0
C  C38  1  0.53007644  0.72526450  0.80498846  1  0  0.731307  0  3.833409  0  0  0.684182  0  4.133865  0  0  0.720179  0  4.125993  0  0  0.227213  0.660237  0  4.141576  0
C  C39  1  0.03007023  0.27472736  0.69501412  1  0  0.731389  0  3.83365  0  0  0.684232  0  4.134106  0  0  0.720236  0  4.126242  0  0  0.227258  0.66025  0  4.141867  0
C  C40  1  0.96480952  0.12946341  0.92681372  1  0  0.714997  0  3.83587  0  0  0.658239  0  4.148432  0  0  0.692191  0  4.141803  0  0  0.226502  0.635344  0  4.154223  0
C  C41  1  0.46482134  0.87052699  0.57318818  1  0  0.715169  0  3.835721  0  0  0.658504  0  4.148108  0  0  0.692474  0  4.141413  0  0  0.226497  0.635596  0  4.153935  0
C  C42  1  0.03517694  0.87052890  0.07319380  1  0  0.714935  0  3.835816  0  0  0.658313  0  4.148185  0  0  0.692256  0  4.14155  0  0  0.226566  0.635427  0  4.153979  0
C  C43  1  0.53516813  0.12947228  0.42680723  1  0  0.715287  0  3.835562  0  0  0.658627  0  4.14802  0  0  0.692579  0  4.141343  0  0  0.226569  0.635727  0  4.153838  0
C  C44  1  0.18774233  0.11497342  0.94975653  1  0  -0.086113  0  3.624868  0  0  -0.138732  0  3.882526  0  0  -0.13666  0  3.885045  0  0  -0.067584  -0.140468  0  3.882757  0
C  C45  1  0.68774036  0.88501854  0.55024596  1  0  -0.086267  0  3.625027  0  0  -0.138949  0  3.882778  0  0  -0.136809  0  3.8852  0  0  -0.067637  -0.14073  0  3.88305  0
C  C46  1  0.81225016  0.88501360  0.05024087  1  0  -0.08608  0  3.624999  0  0  -0.138844  0  3.882796  0  0  -0.136731  0  3.885272  0  0  -0.06764  -0.1406  0  3.883046  0
C  C47  1  0.31224459  0.11498426  0.44975849  1  0  -0.086222  0  3.624758  0  0  -0.13904  0  3.882674  0  0  -0.136877  0  3.885066  0  0  -0.067668  -0.140795  0  3.882912  0
C  C48  1  0.44290562  0.19700183  0.08032775  1  0  -0.078567  0  3.616238  0  0  -0.133505  0  3.87832  0  0  -0.130591  0  3.878783  0  0  -0.064881  -0.135999  0  3.880398  0
C  C49  1  0.94292258  0.80299262  0.41967270  1  0  -0.078426  0  3.615962  0  0  -0.133622  0  3.878211  0  0  -0.130714  0  3.878685  0  0  -0.0649  -0.136097  0  3.880273  0
C  C50  1  0.55708235  0.80298958  0.91967276  1  0  -0.078608  0  3.615914  0  0  -0.13371  0  3.878026  0  0  -0.13086  0  3.878561  0  0  -0.064966  -0.136228  0  3.880146  0
C  C51  1  0.05707896  0.19700930  0.58032906  1  0  -0.078489  0  3.616083  0  0  -0.13372  0  3.8784  0  0  -0.130904  0  3.878976  0  0  -0.064944  -0.136195  0  3.880479  0
C  C52  1  0.88587648  0.50767230  0.00480897  1  0  0.592486  0  3.880392  0  0  0.543047  0  4.177115  0  0  0.574268  0  4.171764  0  0  0.23889  0.52162  0  4.185628  0
C  C53  1  0.38587321  0.49233348  0.49518824  1  0  0.592267  0  3.880063  0  0  0.542975  0  4.176629  0  0  0.574193  0  4.171282  0  0  0.238819  0.521545  0  4.185151  0
C  C54  1  0.11414316  0.49234186  0.99518734  1  0  0.592665  0  3.879458  0  0  0.543055  0  4.176459  0  0  0.574261  0  4.171125  0  0  0.238721  0.521629  0  4.184975  0
C  C55  1  0.61414492  0.50766934  0.50481967  1  0  0.592682  0  3.879262  0  0  0.543044  0  4.17622  0  0  0.574255  0  4.170874  0  0  0.238802  0.521607  0  4.184752  0
O  O56  1  0.64806583  0.30201854  0.22712921  1  0  -0.707061  0  1.991141  0  0  -0.655444  0  2.24925  0  0  -0.693359  0  2.233128  0  0  -0.386486  -0.637086  0  2.256246  0
O  O57  1  0.14806995  0.69798184  0.27287140  1  0  -0.706849  0  1.991198  0  0  -0.655391  0  2.249388  0  0  -0.693318  0  2.233257  0  0  -0.386443  -0.63703  0  2.256391  0
O  O58  1  0.35193872  0.69797283  0.77286094  1  0  -0.706968  0  1.9911  0  0  -0.655485  0  2.249288  0  0  -0.693409  0  2.233146  0  0  -0.386483  -0.637126  0  2.256277  0
O  O59  1  0.85192706  0.30200962  0.72714119  1  0  -0.707125  0  1.99116  0  0  -0.655568  0  2.249322  0  0  -0.693499  0  2.23318  0  0  -0.386529  -0.637197  0  2.256338  0
O  O60  1  0.31056459  0.30754020  0.25100824  1  0  -0.7  0  1.969355  0  0  -0.648298  0  2.21815  0  0  -0.684754  0  2.204025  0  0  -0.377475  -0.630144  0  2.224466  0
O  O61  1  0.81057149  0.69245767  0.24899112  1  0  -0.69983  0  1.969501  0  0  -0.648218  0  2.218286  0  0  -0.684706  0  2.204166  0  0  -0.377442  -0.630055  0  2.224582  0
O  O62  1  0.68944298  0.69245036  0.74899648  1  0  -0.699818  0  1.969323  0  0  -0.648303  0  2.218214  0  0  -0.684795  0  2.204102  0  0  -0.377526  -0.630151  0  2.224514  0
O  O63  1  0.18942704  0.30754252  0.75101389  1  0  -0.699994  0  1.96957  0  0  -0.648304  0  2.218296  0  0  -0.684766  0  2.20414  0  0  -0.377491  -0.630172  0  2.224696  0
O  O64  1  0.98113097  0.44089733  0.32358382  1  0  -0.931098  0  1.848738  0  0  -0.882186  0  2.058217  0  0  -0.91491  0  2.014529  0  0  -0.669615  -0.868747  0  2.081736  0
O  O65  1  0.48112610  0.55911723  0.17640281  1  0  -0.931021  0  1.848733  0  0  -0.882064  0  2.058241  0  0  -0.914788  0  2.01453  0  0  -0.669545  -0.868642  0  2.081786  0
O  O66  1  0.01888414  0.55910195  0.67641590  1  0  -0.931231  0  1.848606  0  0  -0.882258  0  2.058155  0  0  -0.914981  0  2.014451  0  0  -0.669707  -0.868816  0  2.08167  0
O  O67  1  0.51888298  0.44090479  0.82359012  1  0  -0.931119  0  1.848694  0  0  -0.882183  0  2.058268  0  0  -0.914899  0  2.014552  0  0  -0.669638  -0.868737  0  2.081786  0
O  O68  1  0.95234419  0.13430390  0.25030040  1  0  -0.964826  0  1.889655  0  0  -0.916021  0  2.108278  0  0  -0.950607  0  2.065837  0  0  -0.668391  -0.901357  0  2.13235  0
O  O69  1  0.45233747  0.86569844  0.24970016  1  0  -0.964757  0  1.889625  0  0  -0.915903  0  2.108232  0  0  -0.950512  0  2.065777  0  0  -0.668381  -0.901242  0  2.132298  0
O  O70  1  0.04764980  0.86569365  0.74970256  1  0  -0.964747  0  1.889844  0  0  -0.915909  0  2.108431  0  0  -0.950504  0  2.066009  0  0  -0.668419  -0.901244  0  2.132506  0
O  O71  1  0.54764898  0.13430083  0.75029610  1  0  -0.964753  0  1.889778  0  0  -0.915946  0  2.108347  0  0  -0.950519  0  2.065941  0  0  -0.668418  -0.901275  0  2.132417  0
O  O72  1  0.23200782  0.17552691  0.06195767  1  0  -0.359553  0  2.493792  0  0  -0.28294  0  2.741868  0  0  -0.309607  0  2.74763  0  0  -0.27467  -0.270824  0  2.738589  0
O  O73  1  0.73200545  0.82447354  0.43804507  1  0  -0.359645  0  2.493737  0  0  -0.282927  0  2.741822  0  0  -0.309631  0  2.747583  0  0  -0.274683  -0.270801  0  2.738531  0
O  O74  1  0.76800428  0.82446804  0.93805102  1  0  -0.359516  0  2.49371  0  0  -0.282844  0  2.741879  0  0  -0.309515  0  2.747661  0  0  -0.274603  -0.270711  0  2.738603  0
O  O75  1  0.26798252  0.17552926  0.56195766  1  0  -0.359392  0  2.493492  0  0  -0.282695  0  2.741692  0  0  -0.309371  0  2.747468  0  0  -0.274534  -0.270571  0  2.738406  0
O  O76  1  0.79671323  0.44929089  0.07493817  1  0  -0.644705  0  2.113666  0  0  -0.587896  0  2.352759  0  0  -0.622498  0  2.340712  0  0  -0.327008  -0.570859  0  2.358727  0
O  O77  1  0.29671650  0.55071740  0.42504338  1  0  -0.644629  0  2.113335  0  0  -0.587866  0  2.35231  0  0  -0.622492  0  2.340294  0  0  -0.327067  -0.570825  0  2.358278  0
O  O78  1  0.20331998  0.55073455  0.92503446  1  0  -0.644718  0  2.112301  0  0  -0.587812  0  2.351379  0  0  -0.622439  0  2.339362  0  0  -0.326939  -0.570767  0  2.357351  0
O  O79  1  0.70331068  0.44927142  0.57496545  1  0  -0.644757  0  2.112599  0  0  -0.587865  0  2.351718  0  0  -0.622471  0  2.339668  0  0  -0.327022  -0.570821  0  2.357689  0
O  O80  1  0.88875100  0.06802441  0.83898013  1  0  -0.618217  0  1.986502  0  0  -0.545005  0  2.193054  0  0  -0.571128  0  2.181845  0  0  -0.295084  -0.52598  0  2.19905  0
O  O81  1  0.38875658  0.93195367  0.66101735  1  0  -0.618229  0  1.986788  0  0  -0.545083  0  2.193337  0  0  -0.571203  0  2.18208  0  0  -0.295067  -0.526063  0  2.199363  0
O  O82  1  0.11122942  0.93195129  0.16103145  1  0  -0.618243  0  1.98698  0  0  -0.545033  0  2.193443  0  0  -0.571163  0  2.182229  0  0  -0.295092  -0.526006  0  2.199436  0
O  O83  1  0.61122535  0.06804822  0.33897750  1  0  -0.618347  0  1.986981  0  0  -0.545114  0  2.193477  0  0  -0.571252  0  2.182259  0  0  -0.295032  -0.526091  0  2.199495  0
O  O84  1  0.86793508  0.20316922  0.99612797  1  0  -0.724896  0  2.049248  0  0  -0.678286  0  2.319114  0  0  -0.716424  0  2.305293  0  0  -0.390835  -0.660664  0  2.3255  0
O  O85  1  0.36794586  0.79681847  0.50387056  1  0  -0.725017  0  2.048864  0  0  -0.678381  0  2.318595  0  0  -0.71654  0  2.304765  0  0  -0.390858  -0.660747  0  2.324983  0
O  O86  1  0.13206948  0.79682831  0.00387154  1  0  -0.724932  0  2.04896  0  0  -0.678352  0  2.318733  0  0  -0.7165  0  2.30492  0  0  -0.390885  -0.660732  0  2.325119  0
O  O87  1  0.63204662  0.20318518  0.49612709  1  0  -0.725108  0  2.048625  0  0  -0.678484  0  2.318373  0  0  -0.716634  0  2.304543  0  0  -0.390948  -0.660863  0  2.324781  0
O  O88  1  0.19389973  0.42332498  0.05936934  1  0  -0.67183  0  2.095464  0  0  -0.616781  0  2.335384  0  0  -0.651508  0  2.32275  0  0  -0.344353  -0.599994  0  2.341548  0
O  O89  1  0.69391088  0.57669559  0.44063734  1  0  -0.671818  0  2.095037  0  0  -0.616766  0  2.334923  0  0  -0.651486  0  2.322254  0  0  -0.344303  -0.599968  0  2.341073  0
O  O90  1  0.80610633  0.57670574  0.94060909  1  0  -0.672088  0  2.095144  0  0  -0.61694  0  2.334806  0  0  -0.651671  0  2.322129  0  0  -0.344466  -0.600155  0  2.34098  0
O  O91  1  0.30611177  0.42330115  0.55938365  1  0  -0.671955  0  2.09515  0  0  -0.616916  0  2.334804  0  0  -0.651641  0  2.322145  0  0  -0.344404  -0.600122  0  2.340975  0
