# generated using pymatgen
data_CdH8C15N4O5
_symmetry_space_group_name_H-M   'P 1'
_cell_length_a   11.95525510
_cell_length_b   12.96039286
_cell_length_c   13.04292950
_cell_angle_alpha   94.45505053
_cell_angle_beta   111.85374233
_cell_angle_gamma   110.45432569
_symmetry_Int_Tables_number   1
_chemical_formula_structural   CdH8C15N4O5
_chemical_formula_sum   'Cd4 H32 C60 N16 O20'
_cell_volume   1706.55075054
_cell_formula_units_Z   4
loop_
 _symmetry_equiv_pos_site_id
 _symmetry_equiv_pos_as_xyz
  1  'x, y, z'
loop_
 _atom_site_type_symbol
 _atom_site_label
 _atom_site_symmetry_multiplicity
 _atom_site_fract_x
 _atom_site_fract_y
 _atom_site_fract_z
 _atom_site_occupancy
 _atom_site_hle17_bader_spin_density
 _atom_site_hle17_ddec_charge
 _atom_site_hle17_ddec_spin_density
 _atom_site_hle17_ddec_sum_bond_order
 _atom_site_hle17_magmom
 _atom_site_hse06_10hf_bader_spin_density
 _atom_site_hse06_10hf_ddec_charge
 _atom_site_hse06_10hf_ddec_spin_density
 _atom_site_hse06_10hf_ddec_sum_bond_order
 _atom_site_hse06_10hf_magmom
 _atom_site_hse06_bader_spin_density
 _atom_site_hse06_ddec_charge
 _atom_site_hse06_ddec_spin_density
 _atom_site_hse06_ddec_sum_bond_order
 _atom_site_hse06_magmom
 _atom_site_pbe_bader_spin_density
 _atom_site_pbe_cm5_charge
 _atom_site_pbe_ddec_charge
 _atom_site_pbe_ddec_spin_density
 _atom_site_pbe_ddec_sum_bond_order
 _atom_site_pbe_magmom
Cd  Cd0  1  0.52427326  0.32232652  0.32510813  1  0  1.18262  0  1.742002  0  0  0.989626  0  2.218758  0  0  1.041405  0  2.162825  0  0  0.828446  0.951875  0  2.257698  0
Cd  Cd1  1  0.47572680  0.67767197  0.67489004  1  0  1.182633  0  1.741959  0  0  0.98963  0  2.218712  0  0  1.041416  0  2.16277  0  0  0.82847  0.951884  0  2.257652  0
Cd  Cd2  1  0.85575729  0.54650153  0.52850603  1  0  1.082545  0  1.771699  0  0  0.876514  0  2.243809  0  0  0.931808  0  2.192654  0  0  0.806724  0.837084  0  2.278933  0
Cd  Cd3  1  0.14424367  0.45349698  0.47149476  1  0  1.082587  0  1.771632  0  0  0.876536  0  2.243786  0  0  0.931833  0  2.192626  0  0  0.806744  0.837113  0  2.278911  0
H  H4  1  0.73758974  0.69575220  0.90957149  1  0  0.358161  0  0.942636  0  0  0.316258  0  1.041897  0  0  0.329452  0  1.028569  0  0  0.293974  0.307164  0  1.050885  0
H  H5  1  0.26241293  0.30424800  0.09043000  1  0  0.358173  0  0.942582  0  0  0.31625  0  1.041894  0  0  0.329444  0  1.028568  0  0  0.29396  0.307156  0  1.050881  0
H  H6  1  0.44770780  0.57906848  0.29358072  1  0  0.135944  0  0.915299  0  0  0.14508  0  0.974645  0  0  0.149045  0  0.972127  0  0  0.116992  0.142245  0  0.976502  0
H  H7  1  0.55229437  0.42093257  0.70642066  1  0  0.135947  0  0.915332  0  0  0.14509  0  0.974661  0  0  0.149053  0  0.972144  0  0  0.11699  0.142253  0  0.976521  0
H  H8  1  0.74489881  0.65461005  0.16558031  1  0  0.120175  0  0.941429  0  0  0.125285  0  1.010579  0  0  0.129882  0  1.006428  0  0  0.110352  0.122021  0  1.013487  0
H  H9  1  0.25510296  0.34539015  0.83441934  1  0  0.120191  0  0.941454  0  0  0.125328  0  1.010574  0  0  0.129926  0  1.006423  0  0  0.110361  0.122056  0  1.013489  0
H  H10  1  0.36675384  0.65569271  0.96330562  1  0  0.124342  0  0.953804  0  0  0.131033  0  1.018163  0  0  0.135263  0  1.015306  0  0  0.108498  0.127965  0  1.020264  0
H  H11  1  0.63324662  0.34430664  0.03669429  1  0  0.124383  0  0.953779  0  0  0.131074  0  1.018131  0  0  0.135303  0  1.015277  0  0  0.108514  0.128006  0  1.02023  0
H  H12  1  0.94798198  0.27339718  0.65366616  1  0  0.140221  0  0.925074  0  0  0.148593  0  0.98585  0  0  0.153091  0  0.98197  0  0  0.116075  0.145275  0  0.988844  0
H  H13  1  0.05201628  0.72660131  0.34633293  1  0  0.140212  0  0.92504  0  0  0.148584  0  0.985822  0  0  0.153081  0  0.981943  0  0  0.116076  0.145267  0  0.988812  0
H  H14  1  0.80937932  0.97099755  0.76936372  1  0  0.12981  0  0.932197  0  0  0.137053  0  0.993566  0  0  0.141368  0  0.990518  0  0  0.113716  0.133878  0  0.995907  0
H  H15  1  0.19061853  0.02900010  0.23063364  1  0  0.1298  0  0.932206  0  0  0.137064  0  0.993557  0  0  0.141379  0  0.990509  0  0  0.113723  0.133888  0  0.995897  0
H  H16  1  0.54295533  0.12434279  0.60712075  1  0  0.122361  0  0.92783  0  0  0.130576  0  0.989784  0  0  0.134617  0  0.986581  0  0  0.113334  0.127669  0  0.992145  0
H  H17  1  0.45704373  0.87565742  0.39288104  1  0  0.122359  0  0.927839  0  0  0.130575  0  0.989805  0  0  0.13461  0  0.9866  0  0  0.113343  0.127668  0  0.992165  0
H  H18  1  0.26755284  0.92797540  0.86018571  1  0  0.10144  0  0.931381  0  0  0.112601  0  0.986242  0  0  0.115717  0  0.984491  0  0  0.108307  0.110401  0  0.987514  0
H  H19  1  0.73244752  0.07202564  0.13981428  1  0  0.101466  0  0.931356  0  0  0.112602  0  0.986243  0  0  0.115719  0  0.984492  0  0  0.108302  0.110404  0  0.987516  0
H  H20  1  0.20822179  0.08981209  0.89692211  1  0  0.122074  0  0.941097  0  0  0.132218  0  0.998282  0  0  0.135625  0  0.996784  0  0  0.108732  0.129844  0  0.99935  0
H  H21  1  0.79177857  0.91018895  0.10307712  1  0  0.122085  0  0.941082  0  0  0.132223  0  0.998272  0  0  0.13563  0  0.996772  0  0  0.108732  0.12985  0  0.99934  0
H  H22  1  0.87944428  0.95970254  0.56560549  1  0  0.118106  0  0.933734  0  0  0.132036  0  0.983784  0  0  0.13481  0  0.983808  0  0  0.111444  0.130047  0  0.983957  0
H  H23  1  0.12055909  0.04030103  0.43439111  1  0  0.11811  0  0.933722  0  0  0.13199  0  0.983805  0  0  0.134774  0  0.983832  0  0  0.1114  0.13  0  0.983981  0
H  H24  1  0.93822724  0.80026325  0.52778284  1  0  0.109708  0  0.971337  0  0  0.119138  0  1.033688  0  0  0.122426  0  1.031172  0  0  0.104097  0.116808  0  1.035458  0
H  H25  1  0.06177492  0.19973777  0.47221394  1  0  0.109701  0  0.971369  0  0  0.119158  0  1.033683  0  0  0.12245  0  1.031161  0  0  0.104111  0.116828  0  1.035454  0
H  H26  1  0.95354616  0.49444813  0.76461978  1  0  0.108557  0  0.978486  0  0  0.117491  0  1.042016  0  0  0.121008  0  1.039508  0  0  0.102428  0.11494  0  1.043866  0
H  H27  1  0.04645741  0.50555207  0.23538125  1  0  0.108555  0  0.978477  0  0  0.117482  0  1.042009  0  0  0.121  0  1.0395  0  0  0.102443  0.114929  0  1.043865  0
H  H28  1  0.39012442  0.89786644  0.70609991  1  0  0.362487  0  0.928813  0  0  0.322289  0  1.026967  0  0  0.334897  0  1.014281  0  0  0.298203  0.313354  0  1.035917  0
H  H29  1  0.60987514  0.10213291  0.29389892  1  0  0.362372  0  0.929003  0  0  0.322247  0  1.027035  0  0  0.334856  0  1.014349  0  0  0.298175  0.313311  0  1.035984  0
H  H30  1  0.00685591  0.78955503  0.98726888  1  0  0.10091  0  0.934886  0  0  0.113348  0  0.988986  0  0  0.116308  0  0.9875  0  0  0.107284  0.111205  0  0.990099  0
H  H31  1  0.99314495  0.21044516  0.01273123  1  0  0.100919  0  0.934889  0  0  0.113365  0  0.988981  0  0  0.116323  0  0.987501  0  0  0.107281  0.111223  0  0.990094  0
H  H32  1  0.14285415  0.47885513  0.91703221  1  0  0.119784  0  0.928401  0  0  0.133733  0  0.980072  0  0  0.136662  0  0.979319  0  0  0.111716  0.131653  0  0.98069  0
H  H33  1  0.85714892  0.52114592  0.08296948  1  0  0.119732  0  0.928452  0  0  0.133709  0  0.980101  0  0  0.136618  0  0.979373  0  0  0.111706  0.131628  0  0.980718  0
H  H34  1  0.19685655  0.77250744  0.13969915  1  0  0.103991  0  0.992703  0  0  0.110909  0  1.060485  0  0  0.11229  0  1.062641  0  0  0.099723  0.109912  0  1.059085  0
H  H35  1  0.80314471  0.22749360  0.86030116  1  0  0.104025  0  0.992664  0  0  0.110935  0  1.060457  0  0  0.112318  0  1.062612  0  0  0.099742  0.109942  0  1.059048  0
C  C36  1  0.56546241  0.95195306  0.71358665  1  0  0.671134  0  3.805146  0  0  0.621469  0  4.094746  0  0  0.65635  0  4.085394  0  0  0.236892  0.597588  0  4.100758  0
C  C37  1  0.43453585  0.04804543  0.28641167  1  0  0.671477  0  3.805073  0  0  0.621652  0  4.094901  0  0  0.656531  0  4.085553  0  0  0.23697  0.597771  0  4.100913  0
C  C38  1  0.14964696  0.76413576  0.67168729  1  0  0.309555  0  3.755882  0  0  0.278061  0  4.027317  0  0  0.291016  0  4.043323  0  0  0.23263  0.269325  0  4.016543  0
C  C39  1  0.85035350  0.23586360  0.32831338  1  0  0.30955  0  3.75585  0  0  0.27805  0  4.027303  0  0  0.291005  0  4.043308  0  0  0.232628  0.269313  0  4.01653  0
C  C40  1  0.60475984  0.61362669  0.23908895  1  0  -0.036604  0  3.780193  0  0  -0.007946  0  4.014297  0  0  -0.015701  0  4.036922  0  0  -0.013681  -0.00329  0  3.999782  0
C  C41  1  0.39524193  0.38637351  0.76091147  1  0  -0.036574  0  3.780072  0  0  -0.007923  0  4.014183  0  0  -0.015669  0  4.036794  0  0  -0.013639  -0.003269  0  3.999665  0
C  C42  1  0.47923212  0.60102018  0.22684130  1  0  -0.147363  0  3.645723  0  0  -0.188467  0  3.903218  0  0  -0.188552  0  3.918868  0  0  -0.082139  -0.188298  0  3.892814  0
C  C43  1  0.52076964  0.39898002  0.77315835  1  0  -0.147315  0  3.645726  0  0  -0.188435  0  3.90319  0  0  -0.188521  0  3.918837  0  0  -0.082149  -0.188263  0  3.892787  0
C  C44  1  0.64629736  0.64350873  0.15449694  1  0  -0.078906  0  3.688565  0  0  -0.124987  0  3.946365  0  0  -0.122946  0  3.965001  0  0  -0.081394  -0.126175  0  3.933765  0
C  C45  1  0.35370401  0.35649062  0.84550404  1  0  -0.079035  0  3.688535  0  0  -0.125147  0  3.946363  0  0  -0.123107  0  3.964995  0  0  -0.081446  -0.12632  0  3.933773  0
C  C46  1  0.69554801  0.59218215  0.34087962  1  0  0.662616  0  3.870357  0  0  0.611119  0  4.153734  0  0  0.646419  0  4.146943  0  0  0.208012  0.58716  0  4.157417  0
C  C47  1  0.30445295  0.40781635  0.65912039  1  0  0.662563  0  3.870458  0  0  0.611091  0  4.153804  0  0  0.64639  0  4.147015  0  0  0.207949  0.587133  0  4.157485  0
C  C48  1  0.59376618  0.67248307  0.95775186  1  0  0.669043  0  3.80738  0  0  0.622245  0  4.093764  0  0  0.656664  0  4.085189  0  0  0.237021  0.598871  0  4.099004  0
C  C49  1  0.40623558  0.32751713  0.04224932  1  0  0.669231  0  3.807179  0  0  0.62244  0  4.093546  0  0  0.65686  0  4.084969  0  0  0.237185  0.599075  0  4.098787  0
C  C50  1  0.55815062  0.65501721  0.05466676  1  0  -0.057862  0  3.80305  0  0  -0.032177  0  4.040123  0  0  -0.041398  0  4.06555  0  0  -0.018635  -0.026187  0  4.022865  0
C  C51  1  0.44185065  0.34498384  0.94533431  1  0  -0.057769  0  3.802975  0  0  -0.032103  0  4.040074  0  0  -0.041323  0  4.065501  0  0  -0.018634  -0.026139  0  4.022846  0
C  C52  1  0.43238754  0.64462696  0.04160800  1  0  -0.184474  0  3.703487  0  0  -0.220331  0  3.953055  0  0  -0.221936  0  3.971232  0  0  -0.094673  -0.218785  0  3.940638  0
C  C53  1  0.56761422  0.35537323  0.95839088  1  0  -0.18454  0  3.703663  0  0  -0.220389  0  3.953204  0  0  -0.221996  0  3.971382  0  0  -0.09467  -0.218833  0  3.94079  0
C  C54  1  0.71844845  0.29949443  0.56742696  1  0  0.676045  0  3.891267  0  0  0.620057  0  4.18889  0  0  0.656399  0  4.1804  0  0  0.211934  0.59538  0  4.193777  0
C  C55  1  0.28155151  0.70050577  0.43257360  1  0  0.676137  0  3.890992  0  0  0.620053  0  4.188745  0  0  0.656401  0  4.180252  0  0  0.211927  0.595372  0  4.193632  0
C  C56  1  0.86826828  0.20743052  0.66303123  1  0  -0.142247  0  3.649728  0  0  -0.182278  0  3.902  0  0  -0.181363  0  3.917007  0  0  -0.078314  -0.182962  0  3.892386  0
C  C57  1  0.13173178  0.79256799  0.33696925  1  0  -0.142196  0  3.649695  0  0  -0.182252  0  3.901948  0  0  -0.181333  0  3.916958  0  0  -0.078326  -0.182936  0  3.892333  0
C  C58  1  0.89145024  0.12161576  0.71362601  1  0  0.263994  0  3.811112  0  0  0.258065  0  4.079946  0  0  0.265371  0  4.096197  0  0  0.086989  0.252546  0  4.069097  0
C  C59  1  0.10854801  0.87838273  0.28637308  1  0  0.264052  0  3.811084  0  0  0.258169  0  4.079857  0  0  0.265478  0  4.096101  0  0  0.087019  0.252651  0  4.069005  0
C  C60  1  0.79177487  0.03745830  0.72832769  1  0  -0.165899  0  3.697027  0  0  -0.20242  0  3.947032  0  0  -0.20277  0  3.964219  0  0  -0.082616  -0.201518  0  3.935236  0
C  C61  1  0.20822338  0.96254020  0.27167140  1  0  -0.165933  0  3.697125  0  0  -0.202487  0  3.947119  0  0  -0.202839  0  3.964304  0  0  -0.082645  -0.201585  0  3.935319  0
C  C62  1  0.66680529  0.03986343  0.69136193  1  0  -0.065835  0  3.797252  0  0  -0.037529  0  4.031735  0  0  -0.047287  0  4.055973  0  0  -0.017067  -0.031101  0  4.015229  0
C  C63  1  0.33319296  0.96013507  0.30863639  1  0  -0.06593  0  3.797301  0  0  -0.037563  0  4.031826  0  0  -0.047321  0  4.05606  0  0  -0.017061  -0.031135  0  4.015317  0
C  C64  1  0.64057168  0.12349691  0.63726851  1  0  -0.066372  0  3.67545  0  0  -0.11178  0  3.931903  0  0  -0.10858  0  3.949285  0  0  -0.074613  -0.113984  0  3.92042  0
C  C65  1  0.35942788  0.87650244  0.36273185  1  0  -0.06628  0  3.675494  0  0  -0.111712  0  3.93196  0  0  -0.108497  0  3.949333  0  0  -0.074604  -0.113917  0  3.920475  0
C  C66  1  0.74202675  0.20747951  0.62388781  1  0  -0.043891  0  3.748652  0  0  -0.018498  0  3.99091  0  0  -0.026556  0  4.012448  0  0  -0.01374  -0.013431  0  3.976765  0
C  C67  1  0.25797321  0.79252068  0.37611122  1  0  -0.044046  0  3.748764  0  0  -0.018588  0  3.991013  0  0  -0.026663  0  4.012565  0  0  -0.013713  -0.013518  0  3.976866  0
C  C68  1  0.85173384  0.65135297  0.77909765  1  0  0.306727  0  3.753581  0  0  0.273595  0  4.027368  0  0  0.286548  0  4.042963  0  0  0.229234  0.26496  0  4.016815  0
C  C69  1  0.14826833  0.34864807  0.22090220  1  0  0.30671  0  3.753543  0  0  0.273595  0  4.027328  0  0  0.286546  0  4.042926  0  0  0.229244  0.264961  0  4.016773  0
C  C70  1  0.39494729  0.62015758  0.12930090  1  0  0.279512  0  3.792712  0  0  0.272329  0  4.061073  0  0  0.281415  0  4.076026  0  0  0.089509  0.265778  0  4.050956  0
C  C71  1  0.60505577  0.37984346  0.87070002  1  0  0.279452  0  3.792828  0  0  0.272323  0  4.061123  0  0  0.28141  0  4.076076  0  0  0.08951  0.265768  0  4.051005  0
C  C72  1  0.18278949  0.93543379  0.79579533  1  0  -0.065354  0  3.753718  0  0  -0.088497  0  4.003574  0  0  -0.087439  0  4.023392  0  0  -0.08218  -0.088829  0  3.989821  0
C  C73  1  0.81721177  0.06456726  0.20420497  1  0  -0.06535  0  3.753712  0  0  -0.088469  0  4.003562  0  0  -0.087411  0  4.023379  0  0  -0.082172  -0.088801  0  3.98981  0
C  C74  1  0.15035606  0.02526925  0.81708059  1  0  -0.173881  0  3.745588  0  0  -0.194553  0  3.996472  0  0  -0.200624  0  4.016549  0  0  -0.099175  -0.190451  0  3.982755  0
C  C75  1  0.84964521  0.97473179  0.18291894  1  0  -0.173923  0  3.745604  0  0  -0.194566  0  3.996504  0  0  -0.200638  0  4.016575  0  0  -0.09915  -0.190463  0  3.982788  0
C  C76  1  0.96321559  0.95163199  0.63057863  1  0  -0.182822  0  3.74931  0  0  -0.202755  0  3.999676  0  0  -0.209539  0  4.020973  0  0  -0.098953  -0.198235  0  3.985337  0
C  C77  1  0.03678738  0.04837074  0.36942008  1  0  -0.182747  0  3.749201  0  0  -0.202597  0  3.999553  0  0  -0.2094  0  4.020861  0  0  -0.098878  -0.198078  0  3.98521  0
C  C78  1  0.99620296  0.86167115  0.60991821  1  0  -0.065188  0  3.735058  0  0  -0.089965  0  3.987335  0  0  -0.088967  0  4.007076  0  0  -0.084562  -0.090392  0  3.973777  0
C  C79  1  0.00379910  0.13833159  0.39008096  1  0  -0.065231  0  3.735072  0  0  -0.090021  0  3.987324  0  0  -0.089022  0  4.007065  0  0  -0.084572  -0.090445  0  3.973764  0
C  C80  1  0.10633839  0.85279538  0.69216973  1  0  -0.031897  0  3.821801  0  0  -0.015455  0  4.064608  0  0  -0.020689  0  4.089373  0  0  -0.019603  -0.012045  0  4.0477  0
C  C81  1  0.89366247  0.14720482  0.30783037  1  0  -0.031961  0  3.821856  0  0  -0.015528  0  4.064684  0  0  -0.020763  0  4.089449  0  0  -0.019634  -0.012119  0  4.047778  0
C  C82  1  0.96805269  0.64409007  0.86489526  1  0  -0.014457  0  3.798815  0  0  -3.4e-05  0  4.045786  0  0  -0.003377  0  4.068384  0  0  -0.012064  0.001957  0  4.030564  0
C  C83  1  0.03194948  0.35591098  0.13510612  1  0  -0.014401  0  3.798741  0  0  -6e-06  0  4.045747  0  0  -0.003347  0  4.068345  0  0  -0.012059  0.001983  0  4.030523  0
C  C84  1  0.18114796  0.62608570  0.03654601  1  0  0.269672  0  3.789951  0  0  0.261116  0  4.050717  0  0  0.270734  0  4.067701  0  0  0.085129  0.254613  0  4.039099  0
C  C85  1  0.81885381  0.37391450  0.96345517  1  0  0.269689  0  3.78985  0  0  0.261117  0  4.050657  0  0  0.270739  0  4.067633  0  0  0.08511  0.254611  0  4.03904  0
C  C86  1  0.00878338  0.55791556  0.84536365  1  0  -0.063916  0  3.706829  0  0  -0.090886  0  3.962375  0  0  -0.090797  0  3.982012  0  0  -0.084621  -0.090677  0  3.94901  0
C  C87  1  0.99121789  0.44208548  0.15463589  1  0  -0.063854  0  3.70682  0  0  -0.090804  0  3.962385  0  0  -0.090714  0  3.982013  0  0  -0.084581  -0.090597  0  3.949016  0
C  C88  1  0.04082479  0.03330751  0.73395016  1  0  0.284028  0  3.792529  0  0  0.273546  0  4.055103  0  0  0.284709  0  4.071342  0  0  0.090583  0.265897  0  4.043952  0
C  C89  1  0.95917558  0.96669352  0.26604831  1  0  0.284084  0  3.792477  0  0  0.273522  0  4.055144  0  0  0.284694  0  4.071372  0  0  0.090558  0.265874  0  4.04399  0
C  C90  1  0.03698834  0.72193601  0.97133908  1  0  -0.070304  0  3.744125  0  0  -0.093517  0  3.993262  0  0  -0.093659  0  4.013328  0  0  -0.083583  -0.093127  0  3.979488  0
C  C91  1  0.96301382  0.27806504  0.02866077  1  0  -0.070396  0  3.744119  0  0  -0.093608  0  3.993266  0  0  -0.093751  0  4.013332  0  0  -0.08361  -0.093218  0  3.979496  0
C  C92  1  0.11488853  0.54846271  0.93095470  1  0  -0.171055  0  3.737553  0  0  -0.190544  0  3.989703  0  0  -0.196284  0  4.010808  0  0  -0.093413  -0.186756  0  3.975409  0
C  C93  1  0.88511273  0.45153833  0.06904561  1  0  -0.171052  0  3.73761  0  0  -0.190554  0  3.98976  0  0  -0.196278  0  4.010868  0  0  -0.093427  -0.186761  0  3.97546  0
C  C94  1  0.14340394  0.71330857  0.05664737  1  0  -0.168549  0  3.75577  0  0  -0.188667  0  4.005391  0  0  -0.194022  0  4.027535  0  0  -0.098496  -0.185136  0  3.990393  0
C  C95  1  0.85659732  0.28669248  0.94335370  1  0  -0.168525  0  3.755729  0  0  -0.188624  0  4.005341  0  0  -0.193979  0  4.02748  0  0  -0.098464  -0.185092  0  3.990348  0
N  N96  1  0.27827161  0.78440728  0.70817853  1  0  -0.296388  0  3.044756  0  0  -0.25755  0  3.305608  0  0  -0.269837  0  3.318392  0  0  -0.205408  -0.249421  0  3.29714  0
N  N97  1  0.72172795  0.21559207  0.29182183  1  0  -0.296278  0  3.044772  0  0  -0.257461  0  3.305615  0  0  -0.269749  0  3.318403  0  0  -0.205392  -0.249332  0  3.297145  0
N  N98  1  0.28128685  0.68556217  0.67531822  1  0  -0.091247  0  3.18715  0  0  -0.049711  0  3.476391  0  0  -0.055683  0  3.490781  0  0  -0.102519  -0.045086  0  3.466351  0
N  N99  1  0.71871271  0.31443718  0.32468214  1  0  -0.091402  0  3.187247  0  0  -0.049888  0  3.476534  0  0  -0.055861  0  3.490925  0  0  -0.102584  -0.045264  0  3.466495  0
N  N100  1  0.16087812  0.60676390  0.62077562  1  0  -0.090969  0  3.083515  0  0  -0.063863  0  3.368142  0  0  -0.066667  0  3.383419  0  0  -0.097092  -0.061667  0  3.357538  0
N  N101  1  0.83912275  0.39323629  0.37922448  1  0  -0.090861  0  3.08344  0  0  -0.063736  0  3.368038  0  0  -0.066541  0  3.383317  0  0  -0.097031  -0.061539  0  3.357431  0
N  N102  1  0.07586836  0.65367181  0.61687907  1  0  -0.322786  0  3.148573  0  0  -0.260228  0  3.440881  0  0  -0.279466  0  3.456193  0  0  -0.231765  -0.247055  0  3.430374  0
N  N103  1  0.92413120  0.34632754  0.38312206  1  0  -0.32276  0  3.148549  0  0  -0.260197  0  3.440846  0  0  -0.279436  0  3.456164  0  0  -0.231736  -0.247025  0  3.430339  0
N  N104  1  0.80973627  0.62705053  0.66474739  1  0  -0.340971  0  3.136504  0  0  -0.277463  0  3.430016  0  0  -0.29755  0  3.445529  0  0  -0.230301  -0.263648  0  3.419242  0
N  N105  1  0.19026640  0.37294967  0.33525333  1  0  -0.340944  0  3.136503  0  0  -0.277431  0  3.430003  0  0  -0.297517  0  3.445515  0  0  -0.230283  -0.263617  0  3.419231  0
N  N106  1  0.69929054  0.64466932  0.61920648  1  0  -0.036364  0  2.939776  0  0  -0.040486  0  3.216887  0  0  -0.035735  0  3.230314  0  0  -0.088837  -0.043454  0  3.20748  0
N  N107  1  0.30071172  0.35533003  0.38079405  1  0  -0.036441  0  2.939974  0  0  -0.040571  0  3.217104  0  0  -0.03582  0  3.23053  0  0  -0.088902  -0.043539  0  3.207698  0
N  N108  1  0.67511767  0.67841572  0.70287141  1  0  -0.135579  0  3.240677  0  0  -0.082916  0  3.544926  0  0  -0.093612  0  3.559436  0  0  -0.117187  -0.075045  0  3.534675  0
N  N109  1  0.32488370  0.32158363  0.29712804  1  0  -0.13554  0  3.240918  0  0  -0.082886  0  3.545179  0  0  -0.093582  0  3.559687  0  0  -0.117149  -0.075014  0  3.534927  0
N  N110  1  0.76769204  0.68406600  0.80379703  1  0  -0.294818  0  3.067767  0  0  -0.252978  0  3.325926  0  0  -0.265684  0  3.340652  0  0  -0.207373  -0.244591  0  3.31589  0
N  N111  1  0.23230932  0.31593335  0.19620319  1  0  -0.294855  0  3.067786  0  0  -0.25301  0  3.325963  0  0  -0.265714  0  3.340689  0  0  -0.207408  -0.24462  0  3.315924  0
O  O112  1  0.58736488  0.87348837  0.75455601  1  0  -0.605171  0  2.025901  0  0  -0.550322  0  2.268909  0  0  -0.574281  0  2.255545  0  0  -0.311678  -0.533892  0  2.278065  0
O  O113  1  0.41263347  0.12650841  0.24543839  1  0  -0.605311  0  2.025904  0  0  -0.550413  0  2.268992  0  0  -0.574372  0  2.255633  0  0  -0.311727  -0.533982  0  2.278145  0
O  O114  1  0.81900468  0.64827037  0.37990499  1  0  -0.604085  0  1.93054  0  0  -0.54764  0  2.16176  0  0  -0.574595  0  2.151289  0  0  -0.314301  -0.528818  0  2.168232  0
O  O115  1  0.18099579  0.35172898  0.62009415  1  0  -0.604023  0  1.930592  0  0  -0.547594  0  2.161804  0  0  -0.574554  0  2.15134  0  0  -0.314266  -0.528769  0  2.168269  0
O  O116  1  0.64543501  0.51549682  0.38783967  1  0  -0.68418  0  2.109759  0  0  -0.606471  0  2.388227  0  0  -0.638153  0  2.372658  0  0  -0.338424  -0.58393  0  2.397744  0
O  O117  1  0.35456545  0.48450253  0.61215947  1  0  -0.684192  0  2.109763  0  0  -0.606477  0  2.388208  0  0  -0.638161  0  2.372639  0  0  -0.338415  -0.583943  0  2.397734  0
O  O118  1  0.71886284  0.69599797  0.98216558  1  0  -0.536926  0  2.120782  0  0  -0.487063  0  2.348513  0  0  -0.508851  0  2.333474  0  0  -0.322659  -0.471947  0  2.358122  0
O  O119  1  0.28113852  0.30400138  0.01783387  1  0  -0.537053  0  2.120646  0  0  -0.487187  0  2.34841  0  0  -0.508978  0  2.333373  0  0  -0.322759  -0.47207  0  2.35801  0
O  O120  1  0.50842610  0.66283022  0.86221012  1  0  -0.600367  0  2.04975  0  0  -0.546332  0  2.301669  0  0  -0.571923  0  2.290715  0  0  -0.30162  -0.528578  0  2.308819  0
O  O121  1  0.49157787  0.33717082  0.13779034  1  0  -0.600435  0  2.049805  0  0  -0.546403  0  2.301736  0  0  -0.571985  0  2.29076  0  0  -0.301675  -0.528649  0  2.308885  0
O  O122  1  0.82235931  0.38904483  0.59283115  1  0  -0.648071  0  2.087208  0  0  -0.577576  0  2.347995  0  0  -0.607947  0  2.336282  0  0  -0.329285  -0.556237  0  2.355218  0
O  O123  1  0.17764376  0.61095624  0.40717285  1  0  -0.648116  0  2.087102  0  0  -0.577593  0  2.347944  0  0  -0.607963  0  2.336228  0  0  -0.329318  -0.556259  0  2.355178  0
O  O124  1  0.60103594  0.28070366  0.49998905  1  0  -0.651529  0  1.985836  0  0  -0.588676  0  2.235036  0  0  -0.617029  0  2.221679  0  0  -0.333919  -0.568577  0  2.24337  0
O  O125  1  0.39896673  0.71929653  0.50000937  1  0  -0.651539  0  1.985664  0  0  -0.588659  0  2.234916  0  0  -0.617013  0  2.221555  0  0  -0.333915  -0.568557  0  2.24325  0
O  O126  1  0.27781392  0.61451383  0.12939630  1  0  -0.291884  0  2.348869  0  0  -0.225885  0  2.572859  0  0  -0.243472  0  2.575585  0  0  -0.151806  -0.213345  0  2.570505  0
O  O127  1  0.72218914  0.38548722  0.87060462  1  0  -0.291871  0  2.348796  0  0  -0.22592  0  2.572815  0  0  -0.243507  0  2.575536  0  0  -0.151805  -0.213375  0  2.57046  0
O  O128  1  0.01923499  0.12850666  0.75702877  1  0  -0.286476  0  2.345204  0  0  -0.220533  0  2.56785  0  0  -0.237867  0  2.569018  0  0  -0.14885  -0.207804  0  2.566447  0
O  O129  1  0.98076497  0.87149354  0.24297179  1  0  -0.286528  0  2.345242  0  0  -0.220571  0  2.567899  0  0  -0.237912  0  2.569059  0  0  -0.148854  -0.207845  0  2.566495  0
O  O130  1  0.45410026  0.96458049  0.68912371  1  0  -0.520899  0  2.086388  0  0  -0.468413  0  2.297045  0  0  -0.490481  0  2.283378  0  0  -0.321461  -0.452959  0  2.306184  0
O  O131  1  0.54589619  0.03541801  0.31087476  1  0  -0.520961  0  2.086524  0  0  -0.468468  0  2.297194  0  0  -0.490534  0  2.283523  0  0  -0.321488  -0.453014  0  2.306339  0
