# generated using pymatgen
data_TbAg3H18(C7O8)3
_symmetry_space_group_name_H-M   'P 1'
_cell_length_a   8.82578025
_cell_length_b   10.58776672
_cell_length_c   16.57672940
_cell_angle_alpha   100.36724543
_cell_angle_beta   103.61476590
_cell_angle_gamma   96.91119004
_symmetry_Int_Tables_number   1
_chemical_formula_structural   TbAg3H18(C7O8)3
_chemical_formula_sum   'Tb2 Ag6 H36 C42 O48'
_cell_volume   1459.31246985
_cell_formula_units_Z   2
loop_
 _symmetry_equiv_pos_site_id
 _symmetry_equiv_pos_as_xyz
  1  'x, y, z'
loop_
 _atom_site_type_symbol
 _atom_site_label
 _atom_site_symmetry_multiplicity
 _atom_site_fract_x
 _atom_site_fract_y
 _atom_site_fract_z
 _atom_site_occupancy
 _atom_site_hle17_bader_spin_density
 _atom_site_hle17_ddec_charge
 _atom_site_hle17_ddec_spin_density
 _atom_site_hle17_ddec_sum_bond_order
 _atom_site_hle17_magmom
 _atom_site_hse06_10hf_bader_spin_density
 _atom_site_hse06_10hf_ddec_charge
 _atom_site_hse06_10hf_ddec_spin_density
 _atom_site_hse06_10hf_ddec_sum_bond_order
 _atom_site_hse06_10hf_magmom
 _atom_site_hse06_bader_spin_density
 _atom_site_hse06_ddec_charge
 _atom_site_hse06_ddec_spin_density
 _atom_site_hse06_ddec_sum_bond_order
 _atom_site_hse06_magmom
 _atom_site_pbe_bader_spin_density
 _atom_site_pbe_cm5_charge
 _atom_site_pbe_ddec_charge
 _atom_site_pbe_ddec_spin_density
 _atom_site_pbe_ddec_sum_bond_order
 _atom_site_pbe_magmom
Tb  Tb0  1  0.33522128  0.81404694  0.57988968  1  0  2.355451  0  1.548048  0  0  2.289201  0  1.87436  0  0  2.328431  0  1.833842  0  0  1.49067  2.260752  0  1.902857  0
Tb  Tb1  1  0.66477912  0.18595059  0.42010880  1  0  2.355436  0  1.547992  0  0  2.289174  0  1.87431  0  0  2.328404  0  1.83379  0  0  1.490621  2.260729  0  1.902825  0
Ag  Ag2  1  0.39767368  0.08660271  0.95521086  1  0  0.555916  0  1.541437  0  0  0.440425  0  2.040858  0  0  0.473823  0  1.97017  0  0  0.421568  0.418841  0  2.087156  0
Ag  Ag3  1  0.60232833  0.91339674  0.04478866  1  0  0.555922  0  1.541406  0  0  0.440423  0  2.040831  0  0  0.473822  0  1.970143  0  0  0.421577  0.418833  0  2.087137  0
Ag  Ag4  1  0.60647053  0.29823835  0.06957440  1  0  0.547402  0  1.459002  0  0  0.417493  0  1.946026  0  0  0.458253  0  1.872317  0  0  0.389639  0.390378  0  1.99495  0
Ag  Ag5  1  0.39352705  0.70176708  0.93042348  1  0  0.547445  0  1.458957  0  0  0.417504  0  1.945993  0  0  0.458261  0  1.872291  0  0  0.389637  0.390392  0  1.994916  0
Ag  Ag6  1  0.38882862  0.40138777  0.94072131  1  0  0.520424  0  1.586265  0  0  0.418405  0  2.071513  0  0  0.451633  0  1.999474  0  0  0.405908  0.396645  0  2.119239  0
Ag  Ag7  1  0.61117827  0.59861259  0.05927834  1  0  0.520492  0  1.586238  0  0  0.418464  0  2.071478  0  0  0.45169  0  1.99944  0  0  0.405921  0.3967  0  2.119203  0
H  H8  1  0.03143855  0.25777240  0.94528065  1  0  0.166676  0  0.938725  0  0  0.171557  0  1.002679  0  0  0.176882  0  0.999557  0  0  0.118843  0.167814  0  1.005092  0
H  H9  1  0.96856997  0.74222496  0.05472005  1  0  0.166681  0  0.938769  0  0  0.171587  0  1.002692  0  0  0.176888  0  0.999598  0  0  0.118843  0.167836  0  1.005119  0
H  H10  1  0.06070031  0.05332987  0.69780508  1  0  0.162887  0  0.923898  0  0  0.172555  0  0.978311  0  0  0.177872  0  0.975163  0  0  0.126822  0.168724  0  0.980844  0
H  H11  1  0.93930498  0.94666857  0.30219353  1  0  0.162891  0  0.923963  0  0  0.172558  0  0.978372  0  0  0.177878  0  0.975214  0  0  0.126827  0.168731  0  0.980915  0
H  H12  1  0.94765201  0.62581410  0.31947201  1  0  0.161639  0  0.901806  0  0  0.173966  0  0.950273  0  0  0.179454  0  0.947143  0  0  0.127444  0.170003  0  0.952854  0
H  H13  1  0.05235605  0.37417636  0.68053141  1  0  0.161604  0  0.901736  0  0  0.173917  0  0.950225  0  0  0.179416  0  0.947081  0  0  0.127445  0.169945  0  0.952825  0
H  H14  1  0.96470933  0.42015365  0.06941824  1  0  0.164225  0  0.938323  0  0  0.169947  0  1.002036  0  0  0.175078  0  0.99912  0  0  0.117467  0.166334  0  1.004344  0
H  H15  1  0.03529199  0.57984780  0.93057962  1  0  0.16426  0  0.938333  0  0  0.169979  0  1.002042  0  0  0.175111  0  0.999124  0  0  0.117467  0.166365  0  1.004351  0
H  H16  1  0.10992416  0.72069850  0.69937013  1  0  0.149884  0  0.949691  0  0  0.157042  0  1.012172  0  0  0.161981  0  1.009461  0  0  0.129522  0.153521  0  1.014218  0
H  H17  1  0.89007268  0.27930886  0.30062970  1  0  0.149908  0  0.949619  0  0  0.157074  0  1.012082  0  0  0.162011  0  1.009373  0  0  0.129528  0.153558  0  1.014124  0
H  H18  1  0.03483409  0.91726787  0.93719285  1  0  0.165585  0  0.926556  0  0  0.170372  0  0.989726  0  0  0.175468  0  0.986952  0  0  0.121515  0.166752  0  0.992068  0
H  H19  1  0.96516997  0.08273543  0.06280861  1  0  0.165564  0  0.926655  0  0  0.170364  0  0.989778  0  0  0.17546  0  0.987005  0  0  0.121516  0.166746  0  0.992121  0
H  H20  1  0.41758603  0.59006877  0.46438445  1  0  0.436041  0  0.860976  0  0  0.406467  0  0.921214  0  0  0.417427  0  0.905198  0  0  0.298505  0.398666  0  0.932627  0
H  H21  1  0.58241247  0.40993069  0.53561703  1  0  0.43601  0  0.861002  0  0  0.406401  0  0.921266  0  0  0.417353  0  0.905268  0  0  0.298481  0.398602  0  0.932673  0
H  H22  1  0.53963475  0.62137088  0.55583965  1  0  0.42938  0  0.874261  0  0  0.400176  0  0.935019  0  0  0.410006  0  0.920606  0  0  0.300284  0.393284  0  0.945124  0
H  H23  1  0.46036304  0.37863056  0.44416199  1  0  0.429389  0  0.874244  0  0  0.400197  0  0.934981  0  0  0.410027  0  0.920569  0  0  0.300303  0.393302  0  0.94509  0
H  H24  1  0.30301069  0.04961765  0.50266022  1  0  0.446147  0  0.849663  0  0  0.41611  0  0.910408  0  0  0.42714  0  0.894118  0  0  0.301803  0.408305  0  0.921939  0
H  H25  1  0.69698897  0.95038180  0.49734141  1  0  0.44616  0  0.849646  0  0  0.416122  0  0.91039  0  0  0.427153  0  0.8941  0  0  0.301795  0.40832  0  0.921919  0
H  H26  1  0.46556166  0.08713823  0.57812424  1  0  0.449784  0  0.850521  0  0  0.417233  0  0.916153  0  0  0.429167  0  0.89856  0  0  0.300414  0.408788  0  0.928607  0
H  H27  1  0.53443683  0.91286122  0.42187785  1  0  0.449788  0  0.850511  0  0  0.417225  0  0.916161  0  0  0.429159  0  0.898569  0  0  0.300401  0.408777  0  0.928621  0
H  H28  1  0.35826658  0.61256456  0.67908719  1  0  0.453518  0  0.799246  0  0  0.435179  0  0.850792  0  0  0.44433  0  0.837172  0  0  0.32948  0.428552  0  0.860546  0
H  H29  1  0.64173122  0.38743689  0.32091384  1  0  0.453495  0  0.79919  0  0  0.435159  0  0.850797  0  0  0.444308  0  0.83718  0  0  0.329455  0.428534  0  0.860479  0
H  H30  1  0.47714425  0.72164136  0.75294292  1  0  0.461607  0  0.823481  0  0  0.428823  0  0.887828  0  0  0.440084  0  0.871286  0  0  0.30612  0.420817  0  0.899604  0
H  H31  1  0.52285261  0.27836107  0.24705811  1  0  0.461678  0  0.823401  0  0  0.4289  0  0.887732  0  0  0.44016  0  0.87119  0  0  0.306145  0.420895  0  0.899507  0
H  H32  1  0.02260015  0.81489549  0.48735356  1  0  0.447776  0  0.808237  0  0  0.429909  0  0.857839  0  0  0.439207  0  0.844141  0  0  0.32859  0.423218  0  0.867757  0
H  H33  1  0.97739242  0.18509831  0.51264105  1  0  0.447755  0  0.808327  0  0  0.429871  0  0.857911  0  0  0.43917  0  0.844211  0  0  0.328527  0.423182  0  0.867825  0
H  H34  1  0.97881308  0.88268821  0.57028114  1  0  0.462033  0  0.827808  0  0  0.429031  0  0.892972  0  0  0.440072  0  0.876841  0  0  0.302594  0.421267  0  0.904293  0
H  H35  1  0.02118342  0.11730748  0.42971420  1  0  0.461981  0  0.827884  0  0  0.429109  0  0.892859  0  0  0.440151  0  0.876727  0  0  0.302644  0.421346  0  0.904178  0
H  H36  1  0.31154343  0.92741964  0.76039100  1  0  0.43986  0  0.857066  0  0  0.409383  0  0.919847  0  0  0.420182  0  0.904108  0  0  0.300026  0.401733  0  0.930998  0
H  H37  1  0.68845533  0.07258086  0.23960763  1  0  0.439822  0  0.857105  0  0  0.409347  0  0.919885  0  0  0.420145  0  0.904147  0  0  0.300002  0.401697  0  0.931036  0
H  H38  1  0.39821328  0.03974996  0.72897641  1  0  0.46805  0  0.775655  0  0  0.447155  0  0.832127  0  0  0.456375  0  0.81857  0  0  0.337176  0.440527  0  0.841008  0
H  H39  1  0.60177692  0.96024876  0.27101910  1  0  0.468115  0  0.775444  0  0  0.447205  0  0.832028  0  0  0.456425  0  0.818472  0  0  0.337195  0.440577  0  0.840819  0
H  H40  1  0.06768469  0.60005950  0.57080011  1  0  0.434202  0  0.871518  0  0  0.402163  0  0.937254  0  0  0.413331  0  0.920786  0  0  0.295078  0.394279  0  0.948877  0
H  H41  1  0.93231709  0.39993897  0.42919987  1  0  0.43418  0  0.871539  0  0  0.402142  0  0.937273  0  0  0.413308  0  0.920808  0  0  0.295059  0.394256  0  0.948896  0
H  H42  1  0.16431471  0.53875363  0.50739234  1  0  0.437333  0  0.864583  0  0  0.403888  0  0.931576  0  0  0.415954  0  0.913818  0  0  0.294105  0.395356  0  0.94413  0
H  H43  1  0.83568982  0.46124671  0.49261002  1  0  0.437396  0  0.864503  0  0  0.403968  0  0.93148  0  0  0.416038  0  0.913717  0  0  0.294104  0.395437  0  0.944039  0
C  C44  1  0.82574186  0.13485453  0.86186888  1  0  0.187631  0  3.644491  0  0  0.174021  0  3.912575  0  0  0.184229  0  3.922329  0  0  0.105337  0.167023  0  3.90611  0
C  C45  1  0.17426128  0.86514484  0.13813379  1  0  0.187629  0  3.644601  0  0  0.174104  0  3.912575  0  0  0.184306  0  3.922329  0  0  0.105436  0.167114  0  3.906098  0
C  C46  1  0.98089086  0.19090706  0.88398726  1  0  -0.266262  0  3.631603  0  0  -0.296729  0  3.889982  0  0  -0.30918  0  3.906346  0  0  -0.097322  -0.289102  0  3.879699  0
C  C47  1  0.01910816  0.80908952  0.11601093  1  0  -0.266284  0  3.63153  0  0  -0.296815  0  3.889897  0  0  -0.30924  0  3.906276  0  0  -0.097387  -0.289181  0  3.879617  0
C  C48  1  0.07811736  0.16247010  0.82610820  1  0  0.460071  0  3.838341  0  0  0.444813  0  4.099255  0  0  0.470915  0  4.10346  0  0  0.119918  0.427882  0  4.095433  0
C  C49  1  0.92187467  0.83752656  0.17389092  1  0  0.459998  0  3.83849  0  0  0.444696  0  4.099471  0  0  0.470791  0  4.103683  0  0  0.119832  0.427767  0  4.095643  0
C  C50  1  0.99588721  0.07654831  0.74530683  1  0  -0.265168  0  3.666699  0  0  -0.295576  0  3.923718  0  0  -0.308369  0  3.940728  0  0  -0.094106  -0.287185  0  3.912628  0
C  C51  1  0.00411042  0.92344730  0.25469166  1  0  -0.265104  0  3.666618  0  0  -0.295521  0  3.923607  0  0  -0.308308  0  3.940623  0  0  -0.094064  -0.28714  0  3.912529  0
C  C52  1  0.84044002  0.02507982  0.72885647  1  0  0.153028  0  3.690487  0  0  0.137043  0  3.962839  0  0  0.146281  0  3.976005  0  0  0.097809  0.130872  0  3.953718  0
C  C53  1  0.15956479  0.97492157  0.27114183  1  0  0.152977  0  3.690486  0  0  0.137056  0  3.962776  0  0  0.146281  0  3.97595  0  0  0.09781  0.130883  0  3.953665  0
C  C54  1  0.71230347  0.15729137  0.91605945  1  0  0.60118  0  3.951623  0  0  0.543149  0  4.245167  0  0  0.578472  0  4.239892  0  0  0.205327  0.519492  0  4.247837  0
C  C55  1  0.28770447  0.84271374  0.08394694  1  0  0.601153  0  3.951735  0  0  0.543084  0  4.245287  0  0  0.57841  0  4.240012  0  0  0.205284  0.519412  0  4.247977  0
C  C56  1  0.74166139  0.93788350  0.64611140  1  0  0.663942  0  3.922568  0  0  0.607412  0  4.230809  0  0  0.640446  0  4.220718  0  0  0.228995  0.585061  0  4.23694  0
C  C57  1  0.25833739  0.06211702  0.35388603  1  0  0.663988  0  3.922443  0  0  0.607373  0  4.2308  0  0  0.640418  0  4.220695  0  0  0.22897  0.585019  0  4.236935  0
C  C58  1  0.16379563  0.65281423  0.28511970  1  0  0.178173  0  3.656083  0  0  0.159815  0  3.929612  0  0  0.170851  0  3.941376  0  0  0.104362  0.152388  0  3.921615  0
C  C59  1  0.83620546  0.34718129  0.71488103  1  0  0.17787  0  3.65639  0  0  0.159647  0  3.929736  0  0  0.170679  0  3.941502  0  0  0.104334  0.152225  0  3.921732  0
C  C60  1  0.00855640  0.60130620  0.27035439  1  0  -0.264839  0  3.660224  0  0  -0.294933  0  3.918535  0  0  -0.30816  0  3.934339  0  0  -0.094461  -0.286218  0  3.908131  0
C  C61  1  0.99143885  0.39868938  0.72964802  1  0  -0.2647  0  3.660379  0  0  -0.294814  0  3.918656  0  0  -0.30805  0  3.934455  0  0  -0.094467  -0.286097  0  3.908265  0
C  C62  1  0.92398419  0.51512603  0.19038813  1  0  0.457002  0  3.848914  0  0  0.442013  0  4.109776  0  0  0.468173  0  4.115354  0  0  0.118135  0.425035  0  4.105076  0
C  C63  1  0.07600879  0.48486967  0.80960978  1  0  0.456973  0  3.848883  0  0  0.441941  0  4.109792  0  0  0.468107  0  4.11536  0  0  0.118088  0.424961  0  4.105099  0
C  C64  1  0.01805687  0.48609395  0.13085089  1  0  -0.269566  0  3.631371  0  0  -0.299967  0  3.890507  0  0  -0.31273  0  3.907437  0  0  -0.098615  -0.292201  0  3.879926  0
C  C65  1  0.98193955  0.51390657  0.86914865  1  0  -0.269517  0  3.631441  0  0  -0.299869  0  3.890595  0  0  -0.312632  0  3.907523  0  0  -0.098583  -0.29212  0  3.879996  0
C  C66  1  0.17377022  0.54082041  0.15144642  1  0  0.194372  0  3.628002  0  0  0.179808  0  3.897724  0  0  0.190388  0  3.907578  0  0  0.107937  0.172524  0  3.891216  0
C  C67  1  0.82623017  0.45918203  0.84855205  1  0  0.194215  0  3.628207  0  0  0.179553  0  3.898075  0  0  0.190132  0  3.907932  0  0  0.107881  0.172322  0  3.891491  0
C  C68  1  0.26466542  0.74730339  0.36508771  1  0  0.631883  0  3.956979  0  0  0.580806  0  4.265465  0  0  0.612698  0  4.256874  0  0  0.216743  0.559242  0  4.27056  0
C  C69  1  0.73533288  0.25269020  0.63491364  1  0  0.632154  0  3.956701  0  0  0.581029  0  4.265204  0  0  0.612929  0  4.256596  0  0  0.216866  0.559472  0  4.270285  0
C  C70  1  0.28577655  0.51930617  0.09567045  1  0  0.591026  0  3.947669  0  0  0.534281  0  4.243711  0  0  0.568942  0  4.23953  0  0  0.20322  0.511048  0  4.245741  0
C  C71  1  0.71422084  0.48069339  0.90432669  1  0  0.591161  0  3.947664  0  0  0.534441  0  4.243727  0  0  0.569102  0  4.239542  0  0  0.203224  0.5112  0  4.245746  0
C  C72  1  0.87898467  0.68995666  0.71620903  1  0  0.169168  0  3.659438  0  0  0.152988  0  3.934025  0  0  0.163072  0  3.946359  0  0  0.104606  0.145767  0  3.926225  0
C  C73  1  0.12102446  0.31004847  0.28379571  1  0  0.169195  0  3.659239  0  0  0.153012  0  3.933808  0  0  0.163098  0  3.946145  0  0  0.104673  0.145804  0  3.925992  0
C  C74  1  0.03429635  0.74514796  0.74074690  1  0  -0.250594  0  3.6526  0  0  -0.282116  0  3.910111  0  0  -0.294887  0  3.92744  0  0  -0.086633  -0.273483  0  3.898909  0
C  C75  1  0.96569720  0.25485545  0.25925746  1  0  -0.250676  0  3.652247  0  0  -0.282187  0  3.909886  0  0  -0.294963  0  3.927211  0  0  -0.086682  -0.27356  0  3.898686  0
C  C76  1  0.10162162  0.83329654  0.82191474  1  0  0.465688  0  3.827388  0  0  0.449306  0  4.084194  0  0  0.47546  0  4.088319  0  0  0.128038  0.432205  0  4.080811  0
C  C77  1  0.89838077  0.16670970  0.17808867  1  0  0.465949  0  3.827117  0  0  0.449399  0  4.084122  0  0  0.475562  0  4.088239  0  0  0.128124  0.432297  0  4.080739  0
C  C78  1  0.99410944  0.85365952  0.87433330  1  0  -0.246985  0  3.63429  0  0  -0.277607  0  3.892744  0  0  -0.289454  0  3.908879  0  0  -0.087756  -0.270651  0  3.882941  0
C  C79  1  0.00589328  0.14634290  0.12566426  1  0  -0.247111  0  3.634281  0  0  -0.277666  0  3.892664  0  0  -0.28952  0  3.908805  0  0  -0.087778  -0.270706  0  3.882863  0
C  C80  1  0.83971351  0.79529537  0.84461563  1  0  0.180956  0  3.642038  0  0  0.166111  0  3.912969  0  0  0.176113  0  3.922885  0  0  0.107524  0.159237  0  3.906554  0
C  C81  1  0.16028379  0.20471394  0.15538448  1  0  0.180945  0  3.642034  0  0  0.166189  0  3.912847  0  0  0.176189  0  3.922768  0  0  0.107546  0.15931  0  3.906442  0
C  C82  1  0.71757096  0.81037344  0.89386515  1  0  0.614094  0  3.921002  0  0  0.550828  0  4.2199  0  0  0.586383  0  4.213564  0  0  0.212099  0.526914  0  4.223474  0
C  C83  1  0.28242594  0.18962906  0.10613288  1  0  0.614053  0  3.921067  0  0  0.550731  0  4.220015  0  0  0.586286  0  4.213682  0  0  0.212051  0.526809  0  4.223596  0
C  C84  1  0.79962235  0.59494328  0.63259865  1  0  0.622498  0  3.93762  0  0  0.559648  0  4.251742  0  0  0.591216  0  4.244563  0  0  0.221304  0.538437  0  4.255958  0
C  C85  1  0.20038234  0.40506289  0.36740625  1  0  0.622397  0  3.938147  0  0  0.559598  0  4.25219  0  0  0.59116  0  4.245015  0  0  0.221234  0.538384  0  4.256404  0
O  O86  1  0.57437979  0.09106231  0.88514705  1  0  -0.558664  0  2.127686  0  0  -0.489416  0  2.399639  0  0  -0.520075  0  2.387583  0  0  -0.309719  -0.469025  0  2.407229  0
O  O87  1  0.42562055  0.90894006  0.11485442  1  0  -0.558624  0  2.127764  0  0  -0.489373  0  2.399718  0  0  -0.52003  0  2.387662  0  0  -0.309717  -0.468978  0  2.407309  0
O  O88  1  0.76783322  0.23906754  0.98594243  1  0  -0.586053  0  2.093488  0  0  -0.511023  0  2.35644  0  0  -0.544316  0  2.348806  0  0  -0.307206  -0.488326  0  2.360752  0
O  O89  1  0.23216920  0.76093379  0.01406099  1  0  -0.586122  0  2.093406  0  0  -0.511072  0  2.356369  0  0  -0.544366  0  2.34873  0  0  -0.307222  -0.488354  0  2.360653  0
O  O90  1  0.75571700  0.05084573  0.78646870  1  0  -0.170365  0  2.513179  0  0  -0.102633  0  2.736188  0  0  -0.120533  0  2.742742  0  0  -0.090282  -0.090483  0  2.731272  0
O  O91  1  0.24428220  0.94915669  0.21353142  1  0  -0.170342  0  2.513331  0  0  -0.102627  0  2.736274  0  0  -0.120523  0  2.742834  0  0  -0.090288  -0.090475  0  2.731349  0
O  O92  1  0.22366662  0.20821530  0.84264810  1  0  -0.514734  0  1.998021  0  0  -0.451152  0  2.242284  0  0  -0.475369  0  2.230537  0  0  -0.303505  -0.434554  0  2.249289  0
O  O93  1  0.77633742  0.79178797  0.15735516  1  0  -0.514708  0  1.998286  0  0  -0.451081  0  2.242527  0  0  -0.475293  0  2.230784  0  0  -0.303456  -0.434487  0  2.249531  0
O  O94  1  0.60029681  0.89581663  0.64312944  1  0  -0.701238  0  2.076956  0  0  -0.667912  0  2.344806  0  0  -0.690878  0  2.332454  0  0  -0.395708  -0.651819  0  2.35284  0
O  O95  1  0.39970315  0.10418389  0.35686693  1  0  -0.701307  0  2.076864  0  0  -0.667946  0  2.344746  0  0  -0.690916  0  2.332389  0  0  -0.395732  -0.651848  0  2.352781  0
O  O96  1  0.80883709  0.91657565  0.58657843  1  0  -0.621621  0  2.000986  0  0  -0.559912  0  2.215154  0  0  -0.584604  0  2.204138  0  0  -0.296147  -0.542704  0  2.222239  0
O  O97  1  0.19116076  0.08342586  0.41341900  1  0  -0.621574  0  2.000958  0  0  -0.559896  0  2.215159  0  0  -0.58459  0  2.204138  0  0  -0.296124  -0.542684  0  2.222245  0
O  O98  1  0.39174373  0.80604073  0.35905867  1  0  -0.557827  0  1.976152  0  0  -0.515196  0  2.194437  0  0  -0.535625  0  2.18274  0  0  -0.287775  -0.500962  0  2.202185  0
O  O99  1  0.60824758  0.19395296  0.64094301  1  0  -0.557882  0  1.975951  0  0  -0.515264  0  2.194263  0  0  -0.535696  0  2.182559  0  0  -0.287807  -0.501036  0  2.202022  0
O  O100  1  0.20813127  0.75681212  0.42975288  1  0  -0.739139  0  2.033953  0  0  -0.696954  0  2.285319  0  0  -0.722921  0  2.275814  0  0  -0.391054  -0.678675  0  2.29126  0
O  O101  1  0.79186772  0.24317947  0.57025012  1  0  -0.739215  0  2.033819  0  0  -0.69702  0  2.285189  0  0  -0.722985  0  2.275673  0  0  -0.391104  -0.678745  0  2.29113  0
O  O102  1  0.24580414  0.62475331  0.22652434  1  0  -0.1637  0  2.499803  0  0  -0.09696  0  2.723359  0  0  -0.114795  0  2.728749  0  0  -0.088046  -0.085004  0  2.719448  0
O  O103  1  0.75419018  0.37524821  0.77347566  1  0  -0.163568  0  2.49989  0  0  -0.096839  0  2.723437  0  0  -0.114673  0  2.728828  0  0  -0.088008  -0.084899  0  2.719508  0
O  O104  1  0.77843976  0.46920579  0.17595659  1  0  -0.528261  0  2.003835  0  0  -0.460876  0  2.250682  0  0  -0.487474  0  2.239469  0  0  -0.310189  -0.442595  0  2.257208  0
O  O105  1  0.22155877  0.53079372  0.82404249  1  0  -0.528291  0  2.003816  0  0  -0.460867  0  2.250649  0  0  -0.487468  0  2.239432  0  0  -0.310151  -0.442586  0  2.257178  0
O  O106  1  0.42153400  0.58827433  0.12430076  1  0  -0.534077  0  2.104108  0  0  -0.469183  0  2.362709  0  0  -0.498751  0  2.351179  0  0  -0.303799  -0.449477  0  2.370079  0
O  O107  1  0.57846663  0.41172417  0.87569847  1  0  -0.533977  0  2.104278  0  0  -0.469095  0  2.362888  0  0  -0.498663  0  2.351359  0  0  -0.303714  -0.449394  0  2.370263  0
O  O108  1  0.22952979  0.43462128  0.02655444  1  0  -0.578204  0  2.088717  0  0  -0.505617  0  2.352601  0  0  -0.538329  0  2.344983  0  0  -0.30992  -0.483354  0  2.356948  0
O  O109  1  0.77047153  0.56538015  0.97344463  1  0  -0.578358  0  2.088653  0  0  -0.505759  0  2.352537  0  0  -0.538473  0  2.344917  0  0  -0.309975  -0.483501  0  2.356892  0
O  O110  1  0.88437235  0.57488988  0.58141191  1  0  -0.605848  0  2.053906  0  0  -0.539687  0  2.273605  0  0  -0.56571  0  2.264204  0  0  -0.29153  -0.521849  0  2.279735  0
O  O111  1  0.11563638  0.42511338  0.41858833  1  0  -0.605738  0  2.054175  0  0  -0.539567  0  2.273825  0  0  -0.565579  0  2.264424  0  0  -0.291476  -0.521732  0  2.279955  0
O  O112  1  0.65712575  0.54317738  0.62108064  1  0  -0.595509  0  1.983206  0  0  -0.540375  0  2.196368  0  0  -0.561949  0  2.184702  0  0  -0.3001  -0.525399  0  2.204021  0
O  O113  1  0.34287734  0.45682688  0.37892322  1  0  -0.595556  0  1.983413  0  0  -0.540475  0  2.196581  0  0  -0.56205  0  2.184908  0  0  -0.300135  -0.525495  0  2.204236  0
O  O114  1  0.78077005  0.71487255  0.76674113  1  0  -0.171686  0  2.499497  0  0  -0.103724  0  2.721536  0  0  -0.122123  0  2.728992  0  0  -0.086041  -0.091499  0  2.716298  0
O  O115  1  0.21922961  0.28513184  0.23325809  1  0  -0.171624  0  2.499535  0  0  -0.103706  0  2.721569  0  0  -0.122105  0  2.729026  0  0  -0.08605  -0.091486  0  2.716334  0
O  O116  1  0.24554965  0.88840259  0.84435433  1  0  -0.546109  0  2.039801  0  0  -0.474949  0  2.280161  0  0  -0.500389  0  2.268444  0  0  -0.290201  -0.457721  0  2.2874  0
O  O117  1  0.75445534  0.11159970  0.15564773  1  0  -0.546196  0  2.039589  0  0  -0.475002  0  2.280064  0  0  -0.500439  0  2.268326  0  0  -0.290253  -0.457766  0  2.287292  0
O  O118  1  0.57992082  0.74571373  0.85893571  1  0  -0.579733  0  2.116739  0  0  -0.501785  0  2.370701  0  0  -0.53244  0  2.357819  0  0  -0.295993  -0.481118  0  2.378993  0
O  O119  1  0.42007794  0.25428677  0.14106292  1  0  -0.579744  0  2.116775  0  0  -0.501795  0  2.370765  0  0  -0.532451  0  2.357883  0  0  -0.296012  -0.481125  0  2.379055  0
O  O120  1  0.76757398  0.88586329  0.96665293  1  0  -0.563644  0  2.105571  0  0  -0.487997  0  2.375877  0  0  -0.520559  0  2.367728  0  0  -0.304196  -0.466098  0  2.3808  0
O  O121  1  0.23242222  0.11413625  0.03334646  1  0  -0.563607  0  2.105615  0  0  -0.487956  0  2.375961  0  0  -0.520515  0  2.367807  0  0  -0.304147  -0.466048  0  2.380876  0
O  O122  1  0.46754411  0.66066742  0.51582822  1  0  -0.929829  0  1.880944  0  0  -0.888824  0  2.063232  0  0  -0.907167  0  2.031206  0  0  -0.661255  -0.875881  0  2.085546  0
O  O123  1  0.53245538  0.33933113  0.48416906  1  0  -0.929805  0  1.880922  0  0  -0.888764  0  2.063305  0  0  -0.907103  0  2.031282  0  0  -0.661259  -0.875835  0  2.085652  0
O  O124  1  0.36991595  0.01800456  0.54941852  1  0  -0.979077  0  1.871731  0  0  -0.939241  0  2.069531  0  0  -0.958238  0  2.033793  0  0  -0.678205  -0.925751  0  2.094424  0
O  O125  1  0.63008351  0.98199396  0.45058056  1  0  -0.979075  0  1.871747  0  0  -0.939232  0  2.069564  0  0  -0.958229  0  2.033827  0  0  -0.67817  -0.925736  0  2.094452  0
O  O126  1  0.39727443  0.70588011  0.69733183  1  0  -0.915831  0  1.859396  0  0  -0.87701  0  2.060536  0  0  -0.894886  0  2.027156  0  0  -0.635606  -0.864286  0  2.083782  0
O  O127  1  0.60272666  0.29412036  0.30266649  1  0  -0.915868  0  1.859274  0  0  -0.877053  0  2.060472  0  0  -0.894929  0  2.027092  0  0  -0.63559  -0.864325  0  2.08365  0
O  O128  1  0.06666875  0.85241637  0.54778984  1  0  -0.926397  0  1.826058  0  0  -0.88622  0  2.013602  0  0  -0.903931  0  1.980788  0  0  -0.64277  -0.873625  0  2.036545  0
O  O129  1  0.93332244  0.14756661  0.45220810  1  0  -0.926339  0  1.826205  0  0  -0.886246  0  2.013517  0  0  -0.903961  0  1.980703  0  0  -0.642743  -0.873648  0  2.036457  0
O  O130  1  0.32108584  0.95933606  0.70843524  1  0  -0.905318  0  1.819719  0  0  -0.867  0  2.011081  0  0  -0.884881  0  1.978672  0  0  -0.630344  -0.854347  0  2.032861  0
O  O131  1  0.67891620  0.04066343  0.29156248  1  0  -0.905335  0  1.819524  0  0  -0.866988  0  2.010963  0  0  -0.884868  0  1.978558  0  0  -0.630304  -0.85434  0  2.032652  0
O  O132  1  0.17515743  0.60322065  0.56146775  1  0  -0.950305  0  1.875471  0  0  -0.907979  0  2.06834  0  0  -0.927101  0  2.032075  0  0  -0.656467  -0.894325  0  2.093622  0
O  O133  1  0.82484573  0.39677875  0.43853372  1  0  -0.950334  0  1.875448  0  0  -0.90802  0  2.06825  0  0  -0.927138  0  2.031972  0  0  -0.65642  -0.894376  0  2.093564  0
