# generated using pymatgen
data_Zn2H11C28N7O18
_symmetry_space_group_name_H-M   'P 1'
_cell_length_a   9.26084268
_cell_length_b   11.01241425
_cell_length_c   13.50148151
_cell_angle_alpha   87.44326091
_cell_angle_beta   53.77495320
_cell_angle_gamma   95.48507211
_symmetry_Int_Tables_number   1
_chemical_formula_structural   Zn2H11C28N7O18
_chemical_formula_sum   'Zn2 H11 C28 N7 O18'
_cell_volume   1096.89518746
_cell_formula_units_Z   1
loop_
 _symmetry_equiv_pos_site_id
 _symmetry_equiv_pos_as_xyz
  1  'x, y, z'
loop_
 _atom_site_type_symbol
 _atom_site_label
 _atom_site_symmetry_multiplicity
 _atom_site_fract_x
 _atom_site_fract_y
 _atom_site_fract_z
 _atom_site_occupancy
 _atom_site_pbe_bader_charge
 _atom_site_pbe_bader_spin_density
 _atom_site_pbe_cm5_charge
 _atom_site_pbe_ddec_charge
 _atom_site_pbe_ddec_spin_density
 _atom_site_pbe_ddec_sum_bond_order
 _atom_site_pbe_magmom
Zn  Zn0  1  0.29968953  0.46924963  0.56826711  1  1.305857  0  0.689884  0.849839  0  2.34599  0
Zn  Zn1  1  0.68979505  0.51135204  0.44792912  1  1.315518  0  0.695431  0.859269  0  2.333197  0
H  H2  1  0.76302870  0.28954430  0.79751874  1  0.072487  0  0.109901  0.114081  0  0.988069  0
H  H3  1  0.86544168  0.28181740  0.92322577  1  0.130788  0  0.127407  0.144856  0  0.961882  0
H  H4  1  0.11645228  0.62271231  0.91022402  1  0.140902  0  0.120618  0.135827  0  0.988691  0
H  H5  1  0.28037904  0.63622315  0.14488763  1  0.14725  0  0.113772  0.112671  0  1.087551  0
H  H6  1  0.57756023  0.36660011  0.74176692  1  0.126447  0  0.106141  0.122208  0  1.030854  0
H  H7  1  0.31971547  0.09371957  0.45643912  1  0.121105  0  0.119792  0.125822  0  0.968099  0
H  H8  1  0.33561526  0.86939116  0.44085527  1  0.115069  0  0.12101  0.129548  0  0.969213  0
H  H9  1  0.96851098  0.34726825  0.38435932  1  0.160947  0  0.1388  0.12473  0  0.960748  0
H  H10  1  0.15403330  0.31410055  0.46305020  1  0.175358  0  0.136688  0.11848  0  0.965561  0
H  H11  1  0.02790268  0.63711793  0.62489478  1  0.139045  0  0.140034  0.122221  0  0.956485  0
H  H12  1  0.84036440  0.66963087  0.54847783  1  0.180895  0  0.129463  0.105798  0  1.025578  0
C  C13  1  0.50440988  0.72622468  0.49783981  1  1.618073  0  0.22327  0.602144  0  4.17631  0
C  C14  1  0.36006534  0.49619856  0.74138243  1  1.578573  0  0.219231  0.604491  0  4.148587  0
C  C15  1  0.47845745  0.25233677  0.52345151  1  1.628853  0  0.222455  0.605723  0  4.170066  0
C  C16  1  0.63207225  0.48327914  0.27428693  1  1.632339  0  0.211949  0.599801  0  4.200019  0
C  C17  1  0.77640319  0.34649129  0.97970633  1  0.05912  0  -0.063151  -0.151435  0  3.92125  0
C  C18  1  0.65278149  0.46047314  0.15720981  1  0.057581  0  0.001895  -0.106477  0  3.91577  0
C  C19  1  0.20540305  0.59474621  0.93178097  1  0.022512  0  -0.06622  -0.122983  0  3.943181  0
C  C20  1  0.19383747  0.63341330  0.03300157  1  0.214477  0  0.077653  0.083563  0  3.94842  0
C  C21  1  0.30556745  0.60175712  0.06295880  1  -0.019348  0  -0.078201  -0.16292  0  3.929996  0
C  C22  1  0.43811672  0.52630881  0.99150676  1  0.008173  0  0.004096  0.048991  0  3.906371  0
C  C23  1  0.45118283  0.48457713  0.88731034  1  0.047803  0  0.016168  0.079725  0  3.904404  0
C  C24  1  0.55495883  0.48432719  0.02148116  1  0.076963  0  0.011689  -0.009591  0  3.880889  0
C  C25  1  0.67056836  0.39716304  0.94985276  1  -0.006163  0  0.00466  0.101024  0  4.001136  0
C  C26  1  0.67591456  0.35739911  0.84878572  1  -0.027341  0  -0.081131  -0.11678  0  3.984491  0
C  C27  1  0.57244029  0.39996558  0.81799456  1  -0.061752  0  -0.083249  -0.110612  0  3.977819  0
C  C28  1  0.56264942  0.51814233  0.11897039  1  0.205629  0  0.090532  0.028009  0  3.850076  0
C  C29  1  0.75954037  0.37335617  0.08421705  1  0.19883  0  0.086197  0.064793  0  3.953548  0
C  C30  1  0.33571252  0.52260895  0.85812191  1  0.002357  0  0.00112  -0.039252  0  3.886967  0
C  C31  1  0.58981868  0.93085091  0.54236081  1  0.221956  0  0.095464  0.017135  0  3.886281  0
C  C32  1  0.58458397  0.05646366  0.54803291  1  0.264905  0  0.094941  0.016673  0  3.8922  0
C  C33  1  0.48508560  0.11642240  0.51902588  1  0.057914  0  0.006664  -0.041656  0  3.912346  0
C  C34  1  0.39566070  0.04737152  0.48057277  1  0.002383  0  -0.060199  -0.059145  0  3.92212  0
C  C35  1  0.40381417  0.92233659  0.47235152  1  0.031963  0  -0.060547  -0.066645  0  3.917146  0
C  C36  1  0.49937332  0.86197921  0.50447677  1  0.02619  0  0.008915  -0.03616  0  3.913693  0
C  C37  1  0.98360879  0.41209823  0.43729733  1  0.533933  0  0.074464  0.070825  0  3.860798  0
C  C38  1  0.08326845  0.39309406  0.48172740  1  0.48451  0  0.074877  0.075461  0  3.876169  0
C  C39  1  0.01214536  0.57212129  0.57237892  1  0.541651  0  0.076211  0.070887  0  3.858755  0
C  C40  1  0.91172035  0.59086497  0.52873988  1  0.4997  0  0.07756  0.085471  0  3.845176  0
N  N41  1  0.09630396  0.47296155  0.54908593  1  -1.226574  0  -0.304848  -0.176009  0  3.533625  0
N  N42  1  0.89787490  0.51032043  0.46189287  1  -1.225216  0  -0.301984  -0.16452  0  3.508537  0
N  N43  1  0.84619889  0.29993211  0.12386151  1  0.393754  0  0.061487  0.520412  0  4.217123  0
N  N44  1  0.67218662  0.12457608  0.59618830  1  0.364562  0  0.062933  0.520873  0  4.228771  0
N  N45  1  0.48669894  0.62917257  0.17865437  1  0.429794  0  0.059058  0.514584  0  4.205416  0
N  N46  1  0.05874914  0.71318605  0.11097205  1  0.394016  0  0.057302  0.520446  0  4.202308  0
N  N47  1  0.67615943  0.86641137  0.58868833  1  0.402498  0  0.061614  0.517786  0  4.221403  0
O  O48  1  0.35628278  0.66033156  0.53698997  1  -1.158115  0  -0.304614  -0.542922  0  2.33964  0
O  O49  1  0.65609617  0.69117128  0.45331532  1  -1.147139  0  -0.302971  -0.52402  0  2.352614  0
O  O50  1  0.21970496  0.47552990  0.74393365  1  -1.144466  0  -0.315143  -0.529165  0  2.254628  0
O  O51  1  0.52179585  0.50267520  0.64510484  1  -1.180549  0  -0.309455  -0.577575  0  2.410327  0
O  O52  1  0.32698200  0.28640079  0.56469096  1  -1.154881  0  -0.309218  -0.531299  0  2.288863  0
O  O53  1  0.62594625  0.31992727  0.48335803  1  -1.157017  0  -0.306372  -0.549319  0  2.361708  0
O  O54  1  0.47055154  0.47244592  0.37021850  1  -1.163636  0  -0.304344  -0.562201  0  2.407568  0
O  O55  1  0.77325387  0.50667965  0.26956512  1  -1.142592  0  -0.306907  -0.518238  0  2.290886  0
O  O56  1  0.74772587  0.24964022  0.23235986  1  -0.456277  0  -0.123804  -0.322015  0  1.946231  0
O  O57  1  0.00702691  0.29020579  0.04575294  1  -0.428086  0  -0.119834  -0.313425  0  1.886923  0
O  O58  1  0.56979889  0.15110776  0.70266699  1  -0.422201  0  -0.106904  -0.29886  0  1.891917  0
O  O59  1  0.83904605  0.14797723  0.52841941  1  -0.397227  0  -0.108143  -0.314946  0  1.960507  0
O  O60  1  0.33369461  0.61660769  0.27831364  1  -0.457527  0  -0.112582  -0.310739  0  1.998952  0
O  O61  1  0.58642278  0.72778878  0.12117127  1  -0.40116  0  -0.099154  -0.278768  0  1.864241  0
O  O62  1  0.96444051  0.74491058  0.08002801  1  -0.452944  0  -0.139149  -0.337458  0  1.909164  0
O  O63  1  0.04864294  0.74379550  0.20192113  1  -0.449705  0  -0.135982  -0.327113  0  1.91386  0
O  O64  1  0.57269348  0.79266834  0.68406913  1  -0.432229  0  -0.115195  -0.310114  0  1.909846  0
O  O65  1  0.84204246  0.89029433  0.53073504  1  -0.420535  0  -0.112044  -0.301802  0  1.905636  0
