# generated using pymatgen
data_ZnH14C15N4O5
_symmetry_space_group_name_H-M   'P 1'
_cell_length_a   10.16573442
_cell_length_b   10.42757935
_cell_length_c   17.19485582
_cell_angle_alpha   104.35570069
_cell_angle_beta   89.99993005
_cell_angle_gamma   90.00043073
_symmetry_Int_Tables_number   1
_chemical_formula_structural   ZnH14C15N4O5
_chemical_formula_sum   'Zn4 H56 C60 N16 O20'
_cell_volume   1765.80926974
_cell_formula_units_Z   4
loop_
 _symmetry_equiv_pos_site_id
 _symmetry_equiv_pos_as_xyz
  1  'x, y, z'
loop_
 _atom_site_type_symbol
 _atom_site_label
 _atom_site_symmetry_multiplicity
 _atom_site_fract_x
 _atom_site_fract_y
 _atom_site_fract_z
 _atom_site_occupancy
 _atom_site_pbe_bader_charge
 _atom_site_pbe_bader_spin_density
 _atom_site_pbe_cm5_charge
 _atom_site_pbe_ddec_charge
 _atom_site_pbe_ddec_spin_density
 _atom_site_pbe_ddec_sum_bond_order
 _atom_site_pbe_magmom
Zn  Zn0  1  0.07364869  0.19273227  0.38103401  1  1.251178  0  0.705998  0.7841  0  2.407439  0
Zn  Zn1  1  0.57363892  0.30727161  0.11898192  1  1.250958  0  0.705885  0.784135  0  2.407366  0
Zn  Zn2  1  0.92635854  0.80726518  0.61897288  1  1.251124  0  0.70596  0.784202  0  2.407277  0
Zn  Zn3  1  0.42634174  0.69272427  0.88101888  1  1.251097  0  0.705914  0.784012  0  2.407546  0
H  H4  1  0.83865021  0.01463930  0.41476678  1  0.19696  0  0.138305  0.112724  0  1.001567  0
H  H5  1  0.33865124  0.48537553  0.08523516  1  0.196834  0  0.138282  0.112642  0  1.001505  0
H  H6  1  0.16134324  0.98535901  0.58524201  1  0.19681  0  0.13825  0.112642  0  1.001633  0
H  H7  1  0.66134909  0.51462166  0.91474725  1  0.196498  0  0.138406  0.112855  0  1.001315  0
H  H8  1  0.06870579  0.29857495  0.57570518  1  0.115588  0  0.118643  0.115603  0  1.013844  0
H  H9  1  0.56871901  0.20142019  0.92431720  1  0.115566  0  0.118644  0.115661  0  1.013634  0
H  H10  1  0.93130242  0.70142929  0.42429068  1  0.115762  0  0.118656  0.115593  0  1.014  0
H  H11  1  0.43129707  0.79856410  0.07567751  1  0.115526  0  0.118627  0.115595  0  1.013712  0
H  H12  1  0.88553065  0.19223616  0.66279447  1  0.137966  0  0.123375  0.119285  0  1.00659  0
H  H13  1  0.38556308  0.30774616  0.83721553  1  0.137926  0  0.123369  0.119396  0  1.006668  0
H  H14  1  0.11447068  0.80778551  0.33720967  1  0.138168  0  0.123293  0.119156  0  1.006763  0
H  H15  1  0.61446087  0.69222870  0.16277112  1  0.138141  0  0.123398  0.119385  0  1.006759  0
H  H16  1  0.79423051  0.25555268  0.30873765  1  0.161185  0  0.140686  0.109656  0  0.985177  0
H  H17  1  0.29420476  0.24447193  0.19127708  1  0.160923  0  0.140717  0.109614  0  0.985151  0
H  H18  1  0.20578360  0.74444460  0.69125757  1  0.161229  0  0.140688  0.109719  0  0.985019  0
H  H19  1  0.70574245  0.75552856  0.80871521  1  0.160954  0  0.140691  0.109601  0  0.985277  0
H  H20  1  0.16223856  0.44731934  0.31934705  1  0.116649  0  0.119017  0.120238  0  1.014409  0
H  H21  1  0.66220890  0.05268201  0.18067129  1  0.116895  0  0.119062  0.12041  0  1.014512  0
H  H22  1  0.83777457  0.55267527  0.68067157  1  0.116739  0  0.119008  0.120292  0  1.014587  0
H  H23  1  0.33776291  0.94734445  0.81934999  1  0.116349  0  0.119014  0.120215  0  1.014772  0
H  H24  1  0.98121393  0.57437586  0.24188991  1  0.115005  0  0.125227  0.119305  0  0.994745  0
H  H25  1  0.48116389  0.92563366  0.25812412  1  0.114999  0  0.125163  0.119191  0  0.994798  0
H  H26  1  0.01881789  0.42562991  0.75812658  1  0.115378  0  0.125166  0.119142  0  0.994693  0
H  H27  1  0.51879317  0.07438942  0.74188841  1  0.11514  0  0.125172  0.119149  0  0.994726  0
H  H28  1  0.56989689  0.16943129  0.50282511  1  0.09284  0  0.100564  0.108113  0  1.014907  0
H  H29  1  0.06989271  0.33056051  0.99717398  1  0.093189  0  0.100558  0.108129  0  1.014931  0
H  H30  1  0.43009852  0.83056890  0.49715724  1  0.093151  0  0.100497  0.107975  0  1.014918  0
H  H31  1  0.93009386  0.66943200  0.00284602  1  0.093263  0  0.100513  0.107992  0  1.014886  0
H  H32  1  0.76958101  0.31711030  0.53031044  1  0.080863  0  0.091044  0.081933  0  1.073604  0
H  H33  1  0.26957374  0.18288737  0.96969710  1  0.081032  0  0.091023  0.081941  0  1.073629  0
H  H34  1  0.23042130  0.68288018  0.46968185  1  0.080869  0  0.091024  0.081937  0  1.073586  0
H  H35  1  0.73041676  0.81712022  0.03032205  1  0.080721  0  0.091052  0.081987  0  1.0734  0
H  H36  1  0.78874622  0.50772799  0.46931690  1  0.078404  0  0.105053  0.121909  0  0.989327  0
H  H37  1  0.28872384  0.99225754  0.03069076  1  0.07823  0  0.105149  0.121934  0  0.989309  0
H  H38  1  0.21127871  0.49226888  0.53068407  1  0.078222  0  0.105132  0.121943  0  0.989456  0
H  H39  1  0.71126961  0.00771769  0.96930468  1  0.078724  0  0.105109  0.12198  0  0.989251  0
H  H40  1  0.40750250  0.41298390  0.35952278  1  0.072059  0  0.103328  0.116973  0  1.043319  0
H  H41  1  0.90748502  0.08703028  0.14048131  1  0.071871  0  0.103334  0.116964  0  1.043353  0
H  H42  1  0.59252046  0.58703303  0.64046365  1  0.071858  0  0.103361  0.11706  0  1.043119  0
H  H43  1  0.09251138  0.91295703  0.85952730  1  0.07205  0  0.103374  0.117077  0  1.043239  0
H  H44  1  0.54629646  0.71192845  0.32329727  1  0.070045  0  0.117891  0.112696  0  0.94681  0
H  H45  1  0.04625339  0.78809343  0.17670936  1  0.044183  0  0.117928  0.112752  0  0.946988  0
H  H46  1  0.45375011  0.28808283  0.67668410  1  0.069566  0  0.117997  0.11282  0  0.946997  0
H  H47  1  0.95372825  0.21189890  0.82329897  1  0.069871  0  0.117936  0.112836  0  0.946895  0
H  H48  1  0.42660377  0.62320084  0.36470937  1  0.097051  0  0.105646  0.092129  0  1.023642  0
H  H49  1  0.92657485  0.87681268  0.13528503  1  0.097071  0  0.105721  0.092271  0  1.023764  0
H  H50  1  0.57343100  0.37681563  0.63526942  1  0.096764  0  0.10566  0.092301  0  1.023726  0
H  H51  1  0.07342647  0.12318356  0.86471059  1  0.097007  0  0.105684  0.092227  0  1.023651  0
H  H52  1  0.76021005  0.01421863  0.55721859  1  0.579125  0  0.303419  0.287433  0  1.005854  0
H  H53  1  0.26022396  0.48576854  0.94278071  1  0.579321  0  0.303437  0.287478  0  1.005736  0
H  H54  1  0.23978537  0.98579242  0.44279417  1  0.579152  0  0.303485  0.287398  0  1.005931  0
H  H55  1  0.73978523  0.51420759  0.05720209  1  0.579029  0  0.303492  0.287468  0  1.00579  0
H  H56  1  0.76228188  0.45087785  0.24662683  1  0.550835  0  0.310078  0.282723  0  0.997647  0
H  H57  1  0.26224852  0.04914174  0.25338472  1  0.55084  0  0.310063  0.282591  0  0.997904  0
H  H58  1  0.23774010  0.54912425  0.75337098  1  0.550906  0  0.310147  0.282733  0  0.997764  0
H  H59  1  0.73770854  0.95086254  0.74661056  1  0.55088  0  0.310115  0.282833  0  0.997485  0
C  C60  1  0.87623253  0.07715842  0.47037070  1  0.950815  0  0.14889  0.159277  0  3.917936  0
C  C61  1  0.37623713  0.42284840  0.02963504  1  0.951884  0  0.14893  0.159421  0  3.917804  0
C  C62  1  0.12376683  0.92283915  0.52963447  1  0.95092  0  0.14887  0.159269  0  3.918092  0
C  C63  1  0.62377107  0.57714467  0.97034897  1  0.952002  0  0.148877  0.159239  0  3.917464  0
C  C64  1  0.99350048  0.22421521  0.55520779  1  0.385953  0  -0.005702  -0.055675  0  4.015342  0
C  C65  1  0.49351075  0.27578327  0.94481137  1  0.385467  0  -0.005594  -0.055504  0  4.014223  0
C  C66  1  0.00649691  0.77578688  0.44479003  1  0.385817  0  -0.005742  -0.055666  0  4.015006  0
C  C67  1  0.50649845  0.72420222  0.05518063  1  0.385964  0  -0.005597  -0.055564  0  4.014245  0
C  C68  1  0.90348902  0.17275712  0.59893798  1  0.301169  0  0.003199  -0.049802  0  3.961993  0
C  C69  1  0.40350570  0.32722740  0.90107123  1  0.300727  0  0.00311  -0.050107  0  3.961707  0
C  C70  1  0.09651230  0.82725933  0.40106932  1  0.300319  0  0.003285  -0.04965  0  3.961902  0
C  C71  1  0.59650447  0.67274544  0.09891565  1  0.300683  0  0.003079  -0.050069  0  3.96194  0
C  C72  1  0.87016923  0.32507159  0.30232666  1  0.986937  0  0.148613  0.156753  0  3.926828  0
C  C73  1  0.37014685  0.17494439  0.19769059  1  0.986625  0  0.148574  0.1568  0  3.926222  0
C  C74  1  0.12984389  0.67492520  0.69767547  1  0.98683  0  0.148753  0.156828  0  3.92634  0
C  C75  1  0.62981315  0.82506142  0.80231136  1  0.987388  0  0.148665  0.15694  0  3.926815  0
C  C76  1  0.05879196  0.42755599  0.30646952  1  0.388317  0  -0.004889  -0.043457  0  3.984434  0
C  C77  1  0.55875850  0.07246378  0.19354688  1  0.390337  0  -0.004903  -0.043837  0  3.984728  0
C  C78  1  0.94122018  0.57244802  0.69354376  1  0.389964  0  -0.004922  -0.04372  0  3.984538  0
C  C79  1  0.44119266  0.92757624  0.80646687  1  0.38828  0  -0.005071  -0.043745  0  3.984484  0
C  C80  1  0.97031617  0.49145595  0.26873553  1  0.328422  0  0.004609  -0.046004  0  3.948881  0
C  C81  1  0.47027074  0.00855684  0.23128050  1  0.326594  0  0.004679  -0.045726  0  3.948475  0
C  C82  1  0.02970974  0.50854929  0.73127447  1  0.326631  0  0.004669  -0.045619  0  3.948453  0
C  C83  1  0.52968337  0.99145907  0.76873427  1  0.328399  0  0.004719  -0.045613  0  3.948746  0
C  C84  1  0.35254246  0.20662941  0.42172077  1  1.554814  0  0.210121  0.584463  0  4.196128  0
C  C85  1  0.85253859  0.29339043  0.07828261  1  1.554655  0  0.210167  0.584586  0  4.195793  0
C  C86  1  0.64746575  0.79338002  0.57827250  1  1.554315  0  0.210248  0.584582  0  4.195979  0
C  C87  1  0.14745388  0.70660912  0.92172291  1  1.555129  0  0.210147  0.584587  0  4.196172  0
C  C88  1  0.47823658  0.28428457  0.42996574  1  0.016736  0  -0.021317  -0.011151  0  3.990343  0
C  C89  1  0.97823703  0.21572357  0.07003201  1  0.016734  0  -0.021358  -0.011267  0  3.990702  0
C  C90  1  0.52177064  0.71572527  0.57002178  1  0.016386  0  -0.021421  -0.011248  0  3.990658  0
C  C91  1  0.02176527  0.78426679  0.92997598  1  0.016148  0  -0.021349  -0.011268  0  3.990472  0
C  C92  1  0.58060087  0.25388877  0.47659203  1  -0.018483  0  -0.100597  -0.131363  0  3.998554  0
C  C93  1  0.08058244  0.24611944  0.02340603  1  -0.019027  0  -0.100577  -0.131221  0  3.998722  0
C  C94  1  0.41940635  0.74611917  0.52339400  1  -0.019596  0  -0.100556  -0.131158  0  3.998323  0
C  C95  1  0.91939822  0.75387674  0.97660471  1  -0.019159  0  -0.100562  -0.131097  0  3.998367  0
C  C96  1  0.69165267  0.33516715  0.49094236  1  -0.115721  0  -0.101599  -0.079189  0  4.059417  0
C  C97  1  0.19163855  0.16482671  0.00905776  1  -0.119039  0  -0.101589  -0.079415  0  4.059535  0
C  C98  1  0.30835259  0.66483248  0.50904803  1  -0.11855  0  -0.101634  -0.079329  0  4.05936  0
C  C99  1  0.80835195  0.83515891  0.99094648  1  -0.119161  0  -0.101668  -0.079421  0  4.059432  0
C  C100  1  0.70358145  0.44245463  0.45693174  1  -0.002959  0  -0.098904  -0.183317  0  3.989947  0
C  C101  1  0.20356048  0.05754211  0.04307121  1  0.001355  0  -0.098877  -0.183017  0  3.990111  0
C  C102  1  0.29643266  0.55754557  0.54306457  1  0.000866  0  -0.098991  -0.183357  0  3.990208  0
C  C103  1  0.79642707  0.94244202  0.95692579  1  0.000876  0  -0.098971  -0.183379  0  3.989969  0
C  C104  1  0.60301633  0.46990097  0.40770771  1  0.382614  0  0.077043  0.247169  0  4.052103  0
C  C105  1  0.10298125  0.03010956  0.09230238  1  0.382006  0  0.076944  0.246987  0  4.052348  0
C  C106  1  0.39700270  0.53011139  0.59228665  1  0.38227  0  0.077079  0.247216  0  4.051896  0
C  C107  1  0.89699941  0.96988179  0.90770578  1  0.382572  0  0.077112  0.247304  0  4.05208  0
C  C108  1  0.48960760  0.39181781  0.39485079  1  0.016732  0  -0.105805  -0.231372  0  3.958639  0
C  C109  1  0.98959137  0.10819478  0.10515588  1  0.016541  0  -0.10598  -0.23148  0  3.958535  0
C  C110  1  0.51040651  0.60819776  0.60514065  1  0.017452  0  -0.1058  -0.231468  0  3.958371  0
C  C111  1  0.01040503  0.89179442  0.89485423  1  0.016553  0  -0.105862  -0.231516  0  3.958311  0
C  C112  1  0.51932703  0.61363950  0.33099791  1  0.401572  0  -0.068374  -0.12849  0  3.91212  0
C  C113  1  0.01928772  0.88636607  0.16900996  1  0.427437  0  -0.068379  -0.12866  0  3.912522  0
C  C114  1  0.48070675  0.38636993  0.66899536  1  0.402565  0  -0.06846  -0.128969  0  3.912992  0
C  C115  1  0.98069393  0.11361955  0.83099429  1  0.401738  0  -0.068514  -0.128951  0  3.9125  0
C  C116  1  0.49845272  0.51993048  0.24790976  1  1.570428  0  0.195915  0.569333  0  4.225246  0
C  C117  1  0.99840662  0.98007937  0.25208743  1  1.57036  0  0.195791  0.569456  0  4.224797  0
C  C118  1  0.50158894  0.48006927  0.75207891  1  1.569891  0  0.195782  0.569504  0  4.225527  0
C  C119  1  0.00156322  0.01990785  0.74790836  1  1.570496  0  0.195872  0.5697  0  4.22467  0
N  N120  1  0.97543671  0.16324513  0.47468257  1  -1.229273  0  -0.369126  -0.313778  0  3.64341  0
N  N121  1  0.47544163  0.33676271  0.02533317  1  -1.230261  0  -0.369138  -0.31389  0  3.642953  0
N  N122  1  0.02456264  0.83675347  0.52532219  1  -1.229244  0  -0.369056  -0.313798  0  3.642984  0
N  N123  1  0.52456461  0.66323185  0.97465808  1  -1.230718  0  -0.369275  -0.313899  0  3.64254  0
N  N124  1  0.83121160  0.08043380  0.54444721  1  -1.307109  0  -0.371359  -0.202466  0  3.670329  0
N  N125  1  0.33122593  0.41956345  0.95555846  1  -1.306074  0  -0.371358  -0.202483  0  3.670297  0
N  N126  1  0.16878972  0.91957758  0.45556096  1  -1.306419  0  -0.371366  -0.202336  0  3.670396  0
N  N127  1  0.66878129  0.58041647  0.04442733  1  -1.305955  0  -0.371348  -0.20238  0  3.670588  0
N  N128  1  0.99452421  0.32378663  0.32731555  1  -1.235565  0  -0.368426  -0.305967  0  3.606787  0
N  N129  1  0.49450780  0.17622016  0.17270291  1  -1.235738  0  -0.36845  -0.305981  0  3.607091  0
N  N130  1  0.00548203  0.67620876  0.67269215  1  -1.235391  0  -0.368542  -0.306133  0  3.606987  0
N  N131  1  0.50546500  0.82378500  0.82730824  1  -1.235254  0  -0.368302  -0.305869  0  3.606612  0
N  N132  1  0.85258610  0.42555078  0.26706355  1  -1.279513  0  -0.375582  -0.197358  0  3.699401  0
N  N133  1  0.35255102  0.07446416  0.23295236  1  -1.279222  0  -0.375521  -0.197201  0  3.699651  0
N  N134  1  0.14743293  0.57444687  0.73294046  1  -1.279988  0  -0.375607  -0.197411  0  3.699533  0
N  N135  1  0.64740505  0.92554651  0.76705161  1  -1.279809  0  -0.375605  -0.197561  0  3.699153  0
O  O136  1  0.25049501  0.26748065  0.40352959  1  -1.182685  0  -0.33585  -0.559214  0  2.358417  0
O  O137  1  0.75048471  0.23253877  0.09646914  1  -1.182692  0  -0.335725  -0.55922  0  2.358236  0
O  O138  1  0.74951123  0.73251942  0.59645448  1  -1.182603  0  -0.335789  -0.559184  0  2.358403  0
O  O139  1  0.24949596  0.76746185  0.90353540  1  -1.182734  0  -0.335813  -0.559262  0  2.358594  0
O  O140  1  0.35292268  0.09206209  0.43340085  1  -1.187989  0  -0.325683  -0.555686  0  2.163459  0
O  O141  1  0.85293057  0.40796513  0.06661139  1  -1.187608  0  -0.325756  -0.555746  0  2.163303  0
O  O142  1  0.64708061  0.90795996  0.56661209  1  -1.187519  0  -0.325734  -0.555692  0  2.163276  0
O  O143  1  0.14706878  0.59203561  0.93339143  1  -1.187767  0  -0.325685  -0.55569  0  2.163317  0
O  O144  1  0.62450664  0.57710786  0.37599963  1  -1.07524  0  -0.187953  -0.192551  0  2.548083  0
O  O145  1  0.12448740  0.92290636  0.12401025  1  -1.075349  0  -0.187849  -0.192492  0  2.547931  0
O  O146  1  0.37551731  0.42290236  0.62399669  1  -1.075394  0  -0.187982  -0.192481  0  2.548119  0
O  O147  1  0.87551195  0.07708590  0.87599923  1  -1.075292  0  -0.187857  -0.192445  0  2.548226  0
O  O148  1  0.38568268  0.50433291  0.21913189  1  -1.178233  0  -0.3271  -0.552086  0  2.106047  0
O  O149  1  0.88562778  0.99568127  0.28086323  1  -1.178571  0  -0.327106  -0.55218  0  2.105416  0
O  O150  1  0.61436586  0.49566700  0.78085448  1  -1.178305  0  -0.327036  -0.552179  0  2.105766  0
O  O151  1  0.11433911  0.00429100  0.71913169  1  -1.178388  0  -0.327083  -0.55226  0  2.105863  0
O  O152  1  0.60444095  0.46479826  0.21181513  1  -1.187364  0  -0.328395  -0.562913  0  2.379253  0
O  O153  1  0.10439755  0.03521247  0.28819208  1  -1.187061  0  -0.328394  -0.562915  0  2.379378  0
O  O154  1  0.39559775  0.53519811  0.78817877  1  -1.186882  0  -0.328353  -0.562838  0  2.379646  0
O  O155  1  0.89556442  0.96478810  0.71181303  1  -1.18733  0  -0.328397  -0.563057  0  2.379035  0
