# generated using pymatgen
data_ZnH15C14NO4
_symmetry_space_group_name_H-M   'P 1'
_cell_length_a   6.19815017
_cell_length_b   9.03600557
_cell_length_c   12.24189339
_cell_angle_alpha   81.50710416
_cell_angle_beta   80.75615308
_cell_angle_gamma   85.66224401
_symmetry_Int_Tables_number   1
_chemical_formula_structural   ZnH15C14NO4
_chemical_formula_sum   'Zn2 H30 C28 N2 O8'
_cell_volume   668.35420375
_cell_formula_units_Z   2
loop_
 _symmetry_equiv_pos_site_id
 _symmetry_equiv_pos_as_xyz
  1  'x, y, z'
loop_
 _atom_site_type_symbol
 _atom_site_label
 _atom_site_symmetry_multiplicity
 _atom_site_fract_x
 _atom_site_fract_y
 _atom_site_fract_z
 _atom_site_occupancy
 _atom_site_hle17_bader_spin_density
 _atom_site_hle17_ddec_charge
 _atom_site_hle17_ddec_spin_density
 _atom_site_hle17_ddec_sum_bond_order
 _atom_site_hle17_magmom
 _atom_site_hse06_10hf_bader_spin_density
 _atom_site_hse06_10hf_ddec_charge
 _atom_site_hse06_10hf_ddec_spin_density
 _atom_site_hse06_10hf_ddec_sum_bond_order
 _atom_site_hse06_10hf_magmom
 _atom_site_hse06_bader_spin_density
 _atom_site_hse06_ddec_charge
 _atom_site_hse06_ddec_spin_density
 _atom_site_hse06_ddec_sum_bond_order
 _atom_site_hse06_magmom
 _atom_site_pbe_bader_spin_density
 _atom_site_pbe_cm5_charge
 _atom_site_pbe_ddec_charge
 _atom_site_pbe_ddec_spin_density
 _atom_site_pbe_ddec_sum_bond_order
 _atom_site_pbe_magmom
Zn  Zn0  1  0.52329687  0.86331777  0.57342457  1  0  1.029536  0  1.881644  0  0  0.860264  0  2.344769  0  0  0.912904  0  2.279704  0  0  0.673609  0.823525  0  2.389291  0
Zn  Zn1  1  0.47669020  0.13666903  0.42657587  1  0  1.029553  0  1.881621  0  0  0.860298  0  2.344742  0  0  0.912931  0  2.279685  0  0  0.673595  0.82356  0  2.389255  0
H  H2  1  0.10234366  0.64909328  0.37832389  1  0  0.081026  0  0.921018  0  0  0.090827  0  0.979598  0  0  0.093309  0  0.978186  0  0  0.100414  0.088541  0  0.981517  0
H  H3  1  0.89765479  0.35089693  0.62166552  1  0  0.080977  0  0.921085  0  0  0.09082  0  0.979623  0  0  0.093304  0  0.978209  0  0  0.100394  0.088537  0  0.981542  0
H  H4  1  0.91329575  0.76271825  0.23513357  1  0  0.067307  0  0.910895  0  0  0.082896  0  0.967024  0  0  0.083998  0  0.967671  0  0  0.099454  0.082529  0  0.965885  0
H  H5  1  0.08670343  0.23728093  0.76486053  1  0  0.067383  0  0.910718  0  0  0.083  0  0.966834  0  0  0.084099  0  0.967485  0  0  0.099503  0.08264  0  0.965697  0
H  H6  1  0.94690318  0.00981344  0.13000770  1  0  0.062383  0  0.943921  0  0  0.079887  0  1.008026  0  0  0.080955  0  1.007666  0  0  0.084463  0.079018  0  1.00853  0
H  H7  1  0.05309909  0.99018687  0.86998932  1  0  0.062413  0  0.943887  0  0  0.07991  0  1.008015  0  0  0.080981  0  1.00766  0  0  0.084457  0.079041  0  1.008514  0
H  H8  1  0.14076176  0.05562293  0.20913810  1  0  0.074981  0  0.963716  0  0  0.088032  0  1.03308  0  0  0.088806  0  1.034463  0  0  0.085796  0.087401  0  1.031837  0
H  H9  1  0.85923564  0.94437624  0.79086186  1  0  0.075003  0  0.96383  0  0  0.088076  0  1.033182  0  0  0.088856  0  1.034568  0  0  0.085808  0.087445  0  1.031936  0
H  H10  1  0.20860452  0.81375437  0.05342954  1  0  0.041695  0  0.943263  0  0  0.062172  0  1.006944  0  0  0.062601  0  1.007686  0  0  0.075674  0.061703  0  1.006517  0
H  H11  1  0.79139927  0.18624707  0.94656806  1  0  0.041693  0  0.943235  0  0  0.062181  0  1.006907  0  0  0.062612  0  1.007647  0  0  0.075656  0.061711  0  1.006486  0
H  H12  1  0.32845440  0.98911624  0.02665785  1  0  0.059165  0  0.964606  0  0  0.07901  0  1.026197  0  0  0.079406  0  1.027404  0  0  0.085158  0.078745  0  1.025223  0
H  H13  1  0.67154248  0.01088854  0.97334317  1  0  0.059032  0  0.96472  0  0  0.078905  0  1.026298  0  0  0.0793  0  1.027506  0  0  0.085119  0.078644  0  1.025318  0
H  H14  1  0.59548382  0.79189008  0.10004318  1  0  0.040601  0  0.968575  0  0  0.058342  0  1.037409  0  0  0.059145  0  1.037181  0  0  0.076286  0.0576  0  1.037802  0
H  H15  1  0.40451779  0.20811695  0.89995643  1  0  0.04063  0  0.968551  0  0  0.058365  0  1.037417  0  0  0.059168  0  1.03719  0  0  0.0763  0.057624  0  1.037813  0
H  H16  1  0.51555745  0.91867663  0.19731976  1  0  0.079431  0  0.94361  0  0  0.09724  0  1.005154  0  0  0.097929  0  1.006421  0  0  0.090722  0.096636  0  1.004342  0
H  H17  1  0.48443776  0.08132925  0.80267881  1  0  0.079385  0  0.943569  0  0  0.097229  0  1.005103  0  0  0.097919  0  1.006373  0  0  0.090711  0.096626  0  1.004288  0
H  H18  1  0.50240969  0.64951702  0.29229321  1  0  0.075046  0  0.92466  0  0  0.093861  0  0.981644  0  0  0.095242  0  0.981299  0  0  0.090303  0.092725  0  0.982061  0
H  H19  1  0.49759249  0.35048442  0.70770369  1  0  0.075036  0  0.924724  0  0  0.093853  0  0.981677  0  0  0.095236  0  0.981322  0  0  0.090302  0.092719  0  0.982102  0
H  H20  1  0.31864121  0.61536661  0.20342533  1  0  0.04295  0  0.98998  0  0  0.057635  0  1.06496  0  0  0.057242  0  1.068344  0  0  0.074864  0.057848  0  1.06221  0
H  H21  1  0.68136755  0.38463597  0.79656523  1  0  0.042971  0  0.989893  0  0  0.057577  0  1.064943  0  0  0.05718  0  1.068327  0  0  0.074867  0.057794  0  1.062195  0
H  H22  1  0.94130016  0.68460165  0.61098238  1  0  0.109439  0  0.926037  0  0  0.115688  0  0.987565  0  0  0.118785  0  0.984698  0  0  0.129948  0.113229  0  0.990164  0
H  H23  1  0.05869724  0.31539640  0.38902178  1  0  0.109466  0  0.925954  0  0  0.115684  0  0.987551  0  0  0.11878  0  0.984685  0  0  0.129925  0.11322  0  0.99015  0
H  H24  1  0.11418525  0.57101831  0.77404309  1  0  0.108247  0  0.944542  0  0  0.121306  0  0.999618  0  0  0.12405  0  0.999365  0  0  0.114471  0.119245  0  0.999943  0
H  H25  1  0.88582115  0.42898874  0.22596105  1  0  0.108253  0  0.944535  0  0  0.121315  0  0.99961  0  0  0.124059  0  0.999357  0  0  0.114469  0.119251  0  0.999936  0
H  H26  1  0.49677731  0.65560547  0.98314519  1  0  0.104965  0  0.972977  0  0  0.116337  0  1.034095  0  0  0.118753  0  1.034718  0  0  0.108088  0.114455  0  1.03405  0
H  H27  1  0.50323481  0.34441057  0.01685918  1  0  0.104953  0  0.973033  0  0  0.11636  0  1.03412  0  0  0.118775  0  1.034746  0  0  0.108086  0.114469  0  1.034091  0
H  H28  1  0.34868238  0.76707199  0.80909234  1  0  0.09152  0  0.945138  0  0  0.099192  0  1.010201  0  0  0.102082  0  1.007666  0  0  0.122721  0.096608  0  1.012942  0
H  H29  1  0.65132397  0.23293506  0.19091344  1  0  0.091554  0  0.945074  0  0  0.099148  0  1.010214  0  0  0.102039  0  1.007682  0  0  0.122696  0.096567  0  1.012959  0
H  H30  1  0.79398028  0.55537036  0.07435505  1  0  0.091806  0  0.956346  0  0  0.104224  0  1.017977  0  0  0.106748  0  1.017163  0  0  0.105707  0.102209  0  1.019004  0
H  H31  1  0.20603223  0.44464120  0.92564978  1  0  0.091696  0  0.956411  0  0  0.104172  0  1.018001  0  0  0.106696  0  1.017182  0  0  0.105686  0.102145  0  1.019044  0
C  C32  1  0.26246777  0.83137236  0.41376144  1  0  0.687721  0  3.807405  0  0  0.639652  0  4.101855  0  0  0.673765  0  4.095825  0  0  0.212861  0.616338  0  4.105269  0
C  C33  1  0.73752901  0.16859543  0.58624360  1  0  0.687665  0  3.807321  0  0  0.639569  0  4.101846  0  0  0.673678  0  4.095821  0  0  0.212839  0.616237  0  4.105278  0
C  C34  1  0.17519837  0.75038903  0.33037531  1  0  -0.12394  0  3.601161  0  0  -0.130276  0  3.838383  0  0  -0.135432  0  3.851485  0  0  -0.087847  -0.12657  0  3.829536  0
C  C35  1  0.82479602  0.24960789  0.66962267  1  0  -0.123849  0  3.600971  0  0  -0.130245  0  3.838252  0  0  -0.135403  0  3.851347  0  0  -0.087809  -0.126526  0  3.829407  0
C  C36  1  0.99769762  0.84403392  0.27062630  1  0  -0.11178  0  3.610146  0  0  -0.115503  0  3.845789  0  0  -0.120711  0  3.859723  0  0  -0.083698  -0.11208  0  3.835962  0
C  C37  1  0.00229866  0.15596076  0.72936933  1  0  -0.111799  0  3.609981  0  0  -0.115602  0  3.845863  0  0  -0.1208  0  3.859796  0  0  -0.083764  -0.112196  0  3.836055  0
C  C38  1  0.08318721  0.96341345  0.17423546  1  0  -0.120482  0  3.687729  0  0  -0.164897  0  3.94545  0  0  -0.164968  0  3.95836  0  0  -0.174863  -0.164616  0  3.936477  0
C  C39  1  0.91680875  0.03658460  0.82576064  1  0  -0.120571  0  3.687884  0  0  -0.165039  0  3.945721  0  0  -0.165134  0  3.958663  0  0  -0.174893  -0.164748  0  3.936742  0
C  C40  1  0.26996733  0.90034483  0.09404876  1  0  -0.103209  0  3.699751  0  0  -0.142805  0  3.961404  0  0  -0.143701  0  3.975675  0  0  -0.172497  -0.141816  0  3.95117  0
C  C41  1  0.73003473  0.09965773  0.90594885  1  0  -0.103055  0  3.699778  0  0  -0.142645  0  3.961443  0  0  -0.143534  0  3.97572  0  0  -0.172401  -0.141659  0  3.951204  0
C  C42  1  0.45504763  0.83175651  0.15749971  1  0  -0.118652  0  3.695273  0  0  -0.158053  0  3.960263  0  0  -0.159074  0  3.974033  0  0  -0.176601  -0.157221  0  3.950761  0
C  C43  1  0.54495400  0.16825053  0.84249908  1  0  -0.118638  0  3.695204  0  0  -0.158107  0  3.96023  0  0  -0.159135  0  3.974001  0  0  -0.1766  -0.157264  0  3.950724  0
C  C44  1  0.37211158  0.70238216  0.24587779  1  0  -0.113386  0  3.657291  0  0  -0.157012  0  3.916966  0  0  -0.157808  0  3.931392  0  0  -0.166747  -0.156155  0  3.906894  0
C  C45  1  0.62788901  0.29761927  0.75411760  1  0  -0.113383  0  3.657301  0  0  -0.156906  0  3.916947  0  0  -0.157687  0  3.931362  0  0  -0.166736  -0.156057  0  3.906881  0
C  C46  1  0.82088393  0.90740826  0.35605358  1  0  0.689175  0  3.804281  0  0  0.634151  0  4.107643  0  0  0.66904  0  4.100696  0  0  0.22054  0.61038  0  4.11182  0
C  C47  1  0.17910105  0.09258526  0.64394139  1  0  0.689221  0  3.80436  0  0  0.634118  0  4.107826  0  0  0.669008  0  4.100879  0  0  0.22059  0.610349  0  4.112003  0
C  C48  1  0.84700837  0.67246930  0.69479091  1  0  0.161953  0  3.626173  0  0  0.12976  0  3.878143  0  0  0.138437  0  3.893427  0  0  0.069675  0.123904  0  3.867959  0
C  C49  1  0.15299188  0.32753325  0.30521419  1  0  0.162009  0  3.626037  0  0  0.129821  0  3.878136  0  0  0.138498  0  3.893419  0  0  0.069757  0.123966  0  3.867946  0
C  C50  1  0.94265798  0.60999410  0.78721623  1  0  -0.148175  0  3.663408  0  0  -0.165887  0  3.909117  0  0  -0.173812  0  3.929047  0  0  -0.069253  -0.159817  0  3.894706  0
C  C51  1  0.05734542  0.39001070  0.21278512  1  0  -0.148302  0  3.663505  0  0  -0.165993  0  3.909201  0  0  -0.173918  0  3.929131  0  0  -0.069311  -0.15992  0  3.894782  0
C  C52  1  0.81887664  0.60137569  0.89472461  1  0  0.129822  0  3.815917  0  0  0.144619  0  4.047179  0  0  0.150397  0  4.068828  0  0  0.009609  0.140702  0  4.031924  0
C  C53  1  0.18112783  0.39863472  0.10527931  1  0  0.129873  0  3.816367  0  0  0.144719  0  4.047578  0  0  0.150495  0  4.06923  0  0  0.009694  0.140803  0  4.032321  0
C  C54  1  0.59999720  0.65782498  0.90219796  1  0  -0.174052  0  3.712926  0  0  -0.191588  0  3.960344  0  0  -0.200388  0  3.982342  0  0  -0.082243  -0.185719  0  3.944959  0
C  C55  1  0.40000264  0.34218317  0.09780329  1  0  -0.174123  0  3.713034  0  0  -0.191685  0  3.960362  0  0  -0.200485  0  3.982362  0  0  -0.082294  -0.18581  0  3.944978  0
C  C56  1  0.51543948  0.71804226  0.80614941  1  0  0.129838  0  3.697397  0  0  0.097288  0  3.950791  0  0  0.10494  0  3.968305  0  0  0.052766  0.092504  0  3.938807  0
C  C57  1  0.48456547  0.28196143  0.19385929  1  0  0.129783  0  3.69731  0  0  0.097362  0  3.950717  0  0  0.10501  0  3.968232  0  0  0.05277  0.092568  0  3.938743  0
C  C58  1  0.90275634  0.53828857  0.99708762  1  0  -0.101126  0  3.726976  0  0  -0.122635  0  3.979181  0  0  -0.125012  0  3.998734  0  0  -0.078162  -0.12101  0  3.966338  0
C  C59  1  0.09725924  0.46172524  0.00291673  1  0  -0.100982  0  3.727119  0  0  -0.122581  0  3.979303  0  0  -0.124956  0  3.998863  0  0  -0.078122  -0.120954  0  3.96647  0
N  N60  1  0.63610458  0.72488341  0.70398036  1  0  -0.298136  0  3.241537  0  0  -0.218164  0  3.511017  0  0  -0.237053  0  3.524077  0  0  -0.319291  -0.205544  0  3.501978  0
N  N61  1  0.36388957  0.27511351  0.29602744  1  0  -0.297994  0  3.24158  0  0  -0.218185  0  3.511264  0  0  -0.237067  0  3.524316  0  0  -0.319308  -0.205567  0  3.502225  0
O  O62  1  0.31858149  0.75171515  0.50088651  1  0  -0.631005  0  1.990132  0  0  -0.571385  0  2.242864  0  0  -0.599219  0  2.228653  0  0  -0.329398  -0.551809  0  2.251761  0
O  O63  1  0.68142235  0.24826948  0.49910310  1  0  -0.631087  0  1.989653  0  0  -0.571457  0  2.242385  0  0  -0.599298  0  2.228186  0  0  -0.329504  -0.551866  0  2.251281  0
O  O64  1  0.28514567  0.97129484  0.38786461  1  0  -0.64382  0  2.074029  0  0  -0.575671  0  2.329381  0  0  -0.604711  0  2.319038  0  0  -0.313527  -0.555505  0  2.335888  0
O  O65  1  0.71483878  0.02870204  0.61213983  1  0  -0.643744  0  2.07457  0  0  -0.575512  0  2.329856  0  0  -0.604542  0  2.319507  0  0  -0.313428  -0.555368  0  2.336419  0
O  O66  1  0.73663288  0.03812546  0.32998206  1  0  -0.638298  0  2.085695  0  0  -0.571683  0  2.355941  0  0  -0.600761  0  2.343681  0  0  -0.313389  -0.551547  0  2.36384  0
O  O67  1  0.26334777  0.96186132  0.67001397  1  0  -0.63828  0  2.085581  0  0  -0.571672  0  2.355881  0  0  -0.600755  0  2.343618  0  0  -0.313406  -0.551533  0  2.363782  0
O  O68  1  0.76721064  0.82101785  0.44679044  1  0  -0.632556  0  2.073675  0  0  -0.566848  0  2.338831  0  0  -0.595909  0  2.32545  0  0  -0.315622  -0.546453  0  2.347308  0
O  O69  1  0.23278715  0.17897685  0.55320998  1  0  -0.63273  0  2.074032  0  0  -0.566831  0  2.339053  0  0  -0.595887  0  2.325675  0  0  -0.315645  -0.546433  0  2.347525  0
