# generated using pymatgen
data_ZnH26C27NClO4
_symmetry_space_group_name_H-M   'P 1'
_cell_length_a   13.92979134
_cell_length_b   15.30142858
_cell_length_c   16.13967637
_cell_angle_alpha   90.20906283
_cell_angle_beta   89.92357713
_cell_angle_gamma   89.85328687
_symmetry_Int_Tables_number   1
_chemical_formula_structural   ZnH26C27NClO4
_chemical_formula_sum   'Zn2 H52 C54 N2 Cl2 O8'
_cell_volume   3440.06545258
_cell_formula_units_Z   2
loop_
 _symmetry_equiv_pos_site_id
 _symmetry_equiv_pos_as_xyz
  1  'x, y, z'
loop_
 _atom_site_type_symbol
 _atom_site_label
 _atom_site_symmetry_multiplicity
 _atom_site_fract_x
 _atom_site_fract_y
 _atom_site_fract_z
 _atom_site_occupancy
 _atom_site_pbe_bader_charge
 _atom_site_pbe_bader_spin_density
 _atom_site_pbe_cm5_charge
 _atom_site_pbe_ddec_charge
 _atom_site_pbe_ddec_spin_density
 _atom_site_pbe_ddec_sum_bond_order
 _atom_site_pbe_magmom
Zn  Zn0  1  0.59910647  0.50276523  0.49989060  1  1.28863  0  0.664291  0.806303  0  2.460723  0
Zn  Zn1  1  0.40119386  0.49832925  0.49933669  1  1.272858  0  0.664518  0.805959  0  2.458296  0
H  H2  1  0.24968765  0.42911040  0.61023232  1  0.163876  0  0.134244  0.12503  0  0.967661  0
H  H3  1  0.93338583  0.57748469  0.61019095  1  0.081082  0  0.118015  0.130439  0  0.973222  0
H  H4  1  0.24796425  0.56945238  0.39126527  1  0.15794  0  0.134636  0.114482  0  0.964283  0
H  H5  1  0.75247461  0.57717720  0.60592462  1  0.131417  0  0.134694  0.114974  0  0.960987  0
H  H6  1  0.43669655  0.74488730  0.96237592  1  0.02458  0  0.0857  0.11074  0  1.019961  0
H  H7  1  0.32807284  0.68534162  0.95510719  1  -0.001068  0  0.084944  0.109206  0  1.007702  0
H  H8  1  0.33828496  0.77275047  0.02720382  1  0.021827  0  0.086037  0.110867  0  1.003135  0
H  H9  1  0.35271594  0.63247080  0.10378895  1  0.029478  0  0.092667  0.087449  0  0.970418  0
H  H10  1  0.46355411  0.68687090  0.10709633  1  -0.003191  0  0.092052  0.084405  0  0.987164  0
H  H11  1  0.67207376  0.30863931  0.04369518  1  0.035024  0  0.085289  0.109947  0  1.006362  0
H  H12  1  0.56302984  0.24980017  0.03596724  1  0.026237  0  0.085796  0.110685  0  1.020019  0
H  H13  1  0.75039071  0.42457988  0.39342709  1  0.153448  0  0.134725  0.125566  0  0.965476  0
H  H14  1  0.66119801  0.22195499  0.97091042  1  0.019727  0  0.086435  0.111439  0  1.004022  0
H  H15  1  0.53658985  0.30914384  0.89170226  1  0.038546  0  0.092726  0.085924  0  0.988448  0
H  H16  1  0.64772612  0.36285752  0.89535937  1  0.023991  0  0.09244  0.085855  0  0.97427  0
H  H17  1  0.60324813  0.73332107  0.04065445  1  0.025044  0  0.085819  0.111137  0  1.01975  0
H  H18  1  0.70098307  0.65931660  0.04734767  1  0.014487  0  0.085259  0.109801  0  1.00641  0
H  H19  1  0.70524036  0.74755780  0.97627110  1  0.042297  0  0.085561  0.110006  0  1.004449  0
H  H20  1  0.66850270  0.61150901  0.89784635  1  0.010111  0  0.092538  0.087074  0  0.971285  0
H  H21  1  0.56763731  0.68055702  0.89533724  1  -0.00423  0  0.092016  0.084219  0  0.987575  0
H  H22  1  0.29900397  0.33659227  0.95311441  1  0.015182  0  0.084879  0.109468  0  1.007086  0
H  H23  1  0.39676636  0.26254540  0.95910239  1  0.023126  0  0.085939  0.111471  0  1.019543  0
H  H24  1  0.33431032  0.50967434  0.95092129  1  0.021712  0  0.096732  0.091403  0  0.993086  0
H  H25  1  0.29524960  0.24823685  0.02407239  1  0.020036  0  0.08579  0.110492  0  1.00412  0
H  H26  1  0.43336747  0.31500735  0.10441953  1  0.029245  0  0.092062  0.08424  0  0.986785  0
H  H27  1  0.33270080  0.38429764  0.10235262  1  0.019529  0  0.092895  0.087949  0  0.970014  0
H  H28  1  0.59593445  0.93316086  0.27050206  1  0.007295  0  0.082958  0.108008  0  1.008047  0
H  H29  1  0.58228484  0.03765399  0.31744641  1  0.03381  0  0.085272  0.113589  0  1.031016  0
H  H30  1  0.69612292  0.00446532  0.27902296  1  0.028023  0  0.083429  0.108269  0  1.004721  0
H  H31  1  0.68889490  0.99379659  0.43382113  1  0.011635  0  0.089498  0.083558  0  0.995028  0
H  H32  1  0.71154463  0.89159934  0.38682539  1  0.029052  0  0.088893  0.080806  0  0.980843  0
H  H33  1  0.41735433  0.06714392  0.26693394  1  0.052579  0  0.083299  0.108588  0  1.007763  0
H  H34  1  0.42751525  0.96277865  0.31394620  1  0.033313  0  0.08496  0.113481  0  1.030854  0
H  H35  1  0.66656303  0.48569698  0.04861391  1  0.020996  0  0.096954  0.091921  0  0.992345  0
H  H36  1  0.31634284  0.99642456  0.27083153  1  0.008383  0  0.082728  0.107228  0  1.004874  0
H  H37  1  0.31430166  0.00753873  0.42582513  1  0.048451  0  0.088748  0.081335  0  0.998252  0
H  H38  1  0.29508948  0.10966386  0.37833844  1  -0.000249  0  0.08951  0.081815  0  0.980108  0
H  H39  1  0.25954907  0.72333333  0.49824913  1  0.04093  0  0.079465  0.109678  0  1.03395  0
H  H40  1  0.22488536  0.83123955  0.52771521  1  0.031259  0  0.079104  0.10185  0  1.014833  0
H  H41  1  0.19975765  0.74182386  0.59447356  1  0.010938  0  0.078785  0.102263  0  1.0096  0
H  H42  1  0.37437780  0.71738354  0.61782161  1  0.097445  0  0.094221  0.100265  0  0.987182  0
H  H43  1  0.34175674  0.82522144  0.64643824  1  0.014457  0  0.087348  0.077773  0  0.98103  0
H  H44  1  0.64123097  0.27995911  0.72557495  1  0.020322  0  0.083  0.108281  0  1.009932  0
H  H45  1  0.53803956  0.30488367  0.66618699  1  0.034408  0  0.085065  0.120053  0  1.014761  0
H  H46  1  0.62389963  0.77042143  0.42083116  1  0.081816  0  0.099213  0.107009  0  1.009491  0
H  H47  1  0.55067522  0.19941756  0.71044270  1  -0.016264  0  0.080256  0.103064  0  1.009902  0
H  H48  1  0.69423339  0.17010842  0.61864960  1  0.0034  0  0.085494  0.075889  0  0.987987  0
H  H49  1  0.68083754  0.27535360  0.57402611  1  0.028163  0  0.090342  0.097788  0  1.001865  0
H  H50  1  0.38181725  0.23059200  0.41582270  1  0.071623  0  0.099978  0.106845  0  1.008924  0
H  H51  1  0.37716062  0.94945126  0.56040348  1  0.044687  0  0.098671  0.101296  0  1.005854  0
H  H52  1  0.61894490  0.05111352  0.56510599  1  0.037049  0  0.097061  0.097324  0  1.01301  0
H  H53  1  0.06706132  0.57133972  0.38728926  1  0.087447  0  0.118579  0.130912  0  0.971349  0
C  C54  1  0.49985867  0.67120312  0.49825906  1  1.528187  0  0.216277  0.601811  0  4.15924  0
C  C55  1  0.56837793  0.09138792  0.53021591  1  -0.104986  0  -0.09634  -0.201993  0  3.992013  0
C  C56  1  0.50023825  0.95174201  0.48065720  1  -0.068488  0  -0.004536  0.0363  0  3.975332  0
C  C57  1  0.50000453  0.04897450  0.48082797  1  0.061709  0  -0.005936  0.033868  0  3.977259  0
C  C58  1  0.10498812  0.53897982  0.43761985  1  -0.007351  0  -0.073457  -0.158579  0  3.959591  0
C  C59  1  0.89534740  0.54285914  0.56118040  1  0.024325  0  -0.074514  -0.16144  0  3.962735  0
C  C60  1  0.20459892  0.53882733  0.43935095  1  0.500214  0  0.064029  0.100625  0  3.908771  0
C  C61  1  0.79573303  0.54342719  0.55933580  1  0.545428  0  0.064301  0.104451  0  3.900934  0
C  C62  1  0.20629729  0.45947276  0.56196384  1  0.609016  0  0.063208  0.04773  0  3.876669  0
C  C63  1  0.79386193  0.45738882  0.44028655  1  0.622507  0  0.062957  0.045589  0  3.880432  0
C  C64  1  0.10612342  0.45692371  0.56392625  1  0.006149  0  0.023726  0.058831  0  4.024452  0
C  C65  1  0.50172654  0.32974877  0.49849486  1  1.59633  0  0.216149  0.601351  0  4.159483  0
C  C66  1  0.89403829  0.45416193  0.43838719  1  -0.009891  0  0.023177  0.058416  0  4.024118  0
C  C67  1  0.05326813  0.49743006  0.50064598  1  0.091875  0  0.006443  0.046127  0  3.995374  0
C  C68  1  0.94699575  0.49771570  0.49991472  1  -0.05436  0  0.006515  0.047277  0  3.994811  0
C  C69  1  0.49944772  0.49923520  0.33669895  1  1.667498  0  0.213548  0.670742  0  4.248147  0
C  C70  1  0.49993859  0.50063955  0.66279187  1  1.645274  0  0.213688  0.663511  0  4.261537  0
C  C71  1  0.55260145  0.56753806  0.97170829  1  0.037899  0  0.00523  0.064462  0  3.604034  0
C  C72  1  0.44823992  0.42794635  0.02787496  1  0.029535  0  0.004974  0.062867  0  3.605918  0
C  C73  1  0.46023986  0.57372262  0.02899162  1  0.031304  0  0.005511  0.065057  0  3.603646  0
C  C74  1  0.54054135  0.42172313  0.97049183  1  0.025675  0  0.006785  0.066797  0  3.600329  0
C  C75  1  0.50051221  0.49818336  0.24744650  1  0.144062  0  -0.064826  -0.222586  0  4.018846  0
C  C76  1  0.56865881  0.81114686  0.44974749  1  -0.056945  0  -0.092047  -0.157239  0  3.990742  0
C  C77  1  0.49948312  0.49972453  0.75203521  1  0.127249  0  -0.063704  -0.222354  0  4.020525  0
C  C78  1  0.59261326  0.49107956  0.02600653  1  -0.02379  0  -0.078734  -0.151231  0  3.64724  0
C  C79  1  0.40825271  0.50435123  0.97351830  1  -0.023727  0  -0.077795  -0.149553  0  3.649658  0
C  C80  1  0.50267875  0.49709719  0.08448800  1  0.151194  0  0.001811  0.058837  0  3.824918  0
C  C81  1  0.49814433  0.49848911  0.91502740  1  0.169609  0  0.000433  0.057403  0  3.824054  0
C  C82  1  0.50253964  0.49732190  0.17193168  1  -0.533895  0  -0.038415  -0.040484  0  4.126742  0
C  C83  1  0.49804988  0.49896750  0.82758650  1  -0.510812  0  -0.035945  -0.0381  0  4.118361  0
C  C84  1  0.57311680  0.90188633  0.44173148  1  -0.003341  0  -0.012833  0.059357  0  3.941934  0
C  C85  1  0.43000458  0.09893855  0.43902110  1  -0.01488  0  -0.013542  0.058508  0  3.942065  0
C  C86  1  0.41323166  0.65393024  0.06464514  1  0.031403  0  -0.16057  -0.142235  0  4.008316  0
C  C87  1  0.43485337  0.18983882  0.44721484  1  -0.052722  0  -0.091115  -0.156171  0  3.987784  0
C  C88  1  0.37715582  0.71775262  0.99872874  1  -0.043336  0  -0.242129  -0.346083  0  3.977083  0
C  C89  1  0.58709309  0.34148682  0.93441495  1  -0.001417  0  -0.160261  -0.142307  0  4.007134  0
C  C90  1  0.62274371  0.27692414  0.99983284  1  -0.077841  0  -0.242675  -0.34693  0  3.978636  0
C  C91  1  0.61203016  0.64070703  0.93730493  1  0.036137  0  -0.160736  -0.141794  0  4.009751  0
C  C92  1  0.65782980  0.69840081  0.00405616  1  -0.082493  0  -0.242325  -0.346574  0  3.977975  0
C  C93  1  0.38881569  0.35493517  0.06261456  1  0.006049  0  -0.16027  -0.140996  0  4.008546  0
C  C94  1  0.34247641  0.29738769  0.99606818  1  -0.058244  0  -0.242333  -0.347377  0  3.979401  0
C  C95  1  0.65624871  0.94238453  0.39526301  1  -0.007662  0  -0.160912  -0.1359  0  3.988033  0
C  C96  1  0.63098984  0.98161954  0.31071865  1  -0.054122  0  -0.245303  -0.350915  0  3.969712  0
C  C97  1  0.34951168  0.05867717  0.38892828  1  -0.01071  0  -0.160849  -0.135363  0  3.989629  0
C  C98  1  0.49655399  0.76887554  0.49507608  1  0.022896  0  -0.02185  -0.087919  0  3.963955  0
C  C99  1  0.37960121  0.01903076  0.30540878  1  -0.090703  0  -0.245245  -0.35118  0  3.969844  0
C  C100  1  0.35026200  0.78048167  0.59326373  1  -0.033484  0  -0.163108  -0.141479  0  3.976606  0
C  C101  1  0.25268462  0.76858252  0.55082650  1  -0.088062  0  -0.247303  -0.343232  0  3.978097  0
C  C102  1  0.64156489  0.22077258  0.60192916  1  0.04937  0  -0.16557  -0.14832  0  3.981306  0
C  C103  1  0.58996558  0.25303821  0.68057292  1  -0.037537  0  -0.244347  -0.343084  0  3.956057  0
C  C104  1  0.50444187  0.23192645  0.49549147  1  -0.096897  0  -0.020736  -0.083708  0  3.950317  0
C  C105  1  0.42583496  0.81845672  0.53661579  1  -0.016946  0  -0.003769  0.109732  0  3.935582  0
C  C106  1  0.57246492  0.18209813  0.53978548  1  0.074897  0  -0.00439  0.110105  0  3.935967  0
C  C107  1  0.42963243  0.90923064  0.52721397  1  -0.058921  0  -0.096326  -0.203056  0  3.98752  0
N  N108  1  0.25346078  0.49955254  0.50066626  1  -1.243222  0  -0.309336  -0.163578  0  3.517096  0
N  N109  1  0.74679392  0.50122787  0.49970338  1  -1.251834  0  -0.30966  -0.163689  0  3.519103  0
Cl  Cl110  1  0.05074450  0.40168848  0.64352510  1  -0.178458  0  0.008147  -0.060438  0  1.447565  0
Cl  Cl111  1  0.94929484  0.39444993  0.36110681  1  -0.178187  0  0.008164  -0.060195  0  1.44787  0
O  O112  1  0.58253060  0.63523153  0.49685079  1  -1.16904  0  -0.32285  -0.549654  0  2.321185  0
O  O113  1  0.41919548  0.36592654  0.49629936  1  -1.163169  0  -0.321758  -0.547706  0  2.317493  0
O  O114  1  0.41999623  0.63071940  0.50073106  1  -1.166615  0  -0.311484  -0.542752  0  2.356959  0
O  O115  1  0.58163741  0.37007315  0.50160365  1  -1.169414  0  -0.314146  -0.54628  0  2.350507  0
O  O116  1  0.58096112  0.49749527  0.37258740  1  -1.155444  0  -0.318023  -0.54885  0  2.268382  0
O  O117  1  0.41847692  0.49500574  0.62705688  1  -1.160199  0  -0.318409  -0.552686  0  2.271484  0
O  O118  1  0.41727948  0.50189541  0.37161504  1  -1.160801  0  -0.319347  -0.551871  0  2.267469  0
O  O119  1  0.58159401  0.50688716  0.62748472  1  -1.15776  0  -0.316845  -0.549293  0  2.269193  0
