# generated using pymatgen
data_Zn2H65C78N4O20F11
_symmetry_space_group_name_H-M   'P 1'
_cell_length_a   9.77267987
_cell_length_b   10.87711297
_cell_length_c   27.74252609
_cell_angle_alpha   90.13830868
_cell_angle_beta   90.10517469
_cell_angle_gamma   94.02248756
_symmetry_Int_Tables_number   1
_chemical_formula_structural   Zn2H65C78N4O20F11
_chemical_formula_sum   'Zn2 H65 C78 N4 O20 F11'
_cell_volume   2941.71103143
_cell_formula_units_Z   1
loop_
 _symmetry_equiv_pos_site_id
 _symmetry_equiv_pos_as_xyz
  1  'x, y, z'
loop_
 _atom_site_type_symbol
 _atom_site_label
 _atom_site_symmetry_multiplicity
 _atom_site_fract_x
 _atom_site_fract_y
 _atom_site_fract_z
 _atom_site_occupancy
 _atom_site_pbe_bader_charge
 _atom_site_pbe_bader_spin_density
 _atom_site_pbe_cm5_charge
 _atom_site_pbe_ddec_charge
 _atom_site_pbe_ddec_spin_density
 _atom_site_pbe_ddec_sum_bond_order
 _atom_site_pbe_magmom
Zn  Zn0  1  0.35831337  0.50027311  0.50373776  1  1.304825  0  0.686813  0.850405  0  2.388714  0
Zn  Zn1  1  0.65140143  0.52105058  0.50315040  1  1.292824  0  0.685892  0.848503  0  2.399966  0
H  H2  1  0.13351583  0.52980246  0.12816051  1  0.151959  0  0.128934  0.15884  0  0.958914  0
H  H3  1  0.53308201  0.89734259  0.64800417  1  0.055649  0  0.101936  0.069312  0  0.998995  0
H  H4  1  0.46563163  0.83723699  0.70346411  1  0.037561  0  0.092442  0.055431  0  1.007112  0
H  H5  1  0.34298739  0.77698176  0.60327651  1  0.042584  0  0.090162  0.100015  0  0.997842  0
H  H6  1  0.27247244  0.72486595  0.65888674  1  0.060364  0  0.089182  0.087862  0  0.979141  0
H  H7  1  0.24466343  0.94901374  0.68325993  1  -0.012613  0  0.081933  0.104189  0  1.007067  0
H  H8  1  0.15276719  0.90792457  0.62962267  1  0.025513  0  0.086326  0.112649  0  1.034103  0
H  H9  1  0.30944803  0.99668217  0.62591072  1  0.033276  0  0.085759  0.115987  0  1.022189  0
H  H10  1  0.45059822  0.90068550  0.42185223  1  0.038603  0  0.094894  0.060694  0  0.991165  0
H  H11  1  0.35721371  0.02884973  0.40485457  1  0.006224  0  0.091616  0.052946  0  1.007066  0
H  H12  1  0.31667055  0.76825881  0.36239620  1  0.003186  0  0.091422  0.090441  0  0.971904  0
H  H13  1  0.26139047  0.67032626  0.88959936  1  0.138432  0  0.125954  0.154008  0  0.965457  0
H  H14  1  0.22834609  0.89657282  0.34364848  1  0.020968  0  0.089426  0.079716  0  0.991269  0
H  H15  1  0.45218886  0.00749107  0.31781489  1  -0.011513  0  0.078342  0.106732  0  1.02586  0
H  H16  1  0.42779433  0.86282196  0.28827618  1  0.028215  0  0.085833  0.117182  0  1.000141  0
H  H17  1  0.54266329  0.88060936  0.33767326  1  0.040773  0  0.081891  0.108834  0  1.024006  0
H  H18  1  0.16037142  0.27590072  0.53016968  1  0.047796  0  0.088018  0.051588  0  1.021948  0
H  H19  1  0.26195181  0.21453709  0.57618677  1  0.055986  0  0.091218  0.061377  0  1.00379  0
H  H20  1  0.94829225  0.21651513  0.57307498  1  0.017182  0  0.085396  0.076807  0  0.987834  0
H  H21  1  0.03454904  0.12200068  0.61296651  1  0.029266  0  0.090363  0.082211  0  0.994214  0
H  H22  1  0.15922901  0.30547771  0.65101401  1  0.004723  0  0.084405  0.11888  0  1.008887  0
H  H23  1  0.98028140  0.32770462  0.65129715  1  -0.001576  0  0.083697  0.110384  0  1.021307  0
H  H24  1  0.73029297  0.13645538  0.53546779  1  0.127585  0  0.11538  0.138673  0  1.003143  0
H  H25  1  0.09080870  0.40492729  0.60872768  1  0.017845  0  0.075386  0.099566  0  1.051556  0
H  H26  1  0.83306519  0.78003637  0.61194640  1  0.089576  0  0.113439  0.092281  0  0.97502  0
H  H27  1  0.01034714  0.77513250  0.59693955  1  0.089522  0  0.105594  0.076821  0  1.01355  0
H  H28  1  0.84217351  0.56958271  0.65089632  1  0.058417  0  0.097093  0.101941  0  0.97215  0
H  H29  1  0.02360474  0.58493239  0.64604383  1  0.036475  0  0.088755  0.081469  0  1.013358  0
H  H30  1  0.02414894  0.78582644  0.69482700  1  0.016696  0  0.085078  0.111357  0  1.023278  0
H  H31  1  0.95619112  0.65561875  0.72738062  1  0.045048  0  0.092229  0.125738  0  0.989059  0
H  H32  1  0.84348850  0.75903029  0.70165204  1  0.028527  0  0.084983  0.111727  0  1.022981  0
H  H33  1  0.13566860  0.13340079  0.37587862  1  0.082977  0  0.093842  0.058563  0  1.005631  0
H  H34  1  0.99776216  0.22372599  0.36024416  1  0.026089  0  0.098259  0.060151  0  0.980772  0
H  H35  1  0.22277129  0.12612085  0.46552082  1  0.081609  0  0.104734  0.076928  0  1.031662  0
H  H36  1  0.98933101  0.03318790  0.44192560  1  0.045161  0  0.096604  0.102421  0  0.980948  0
H  H37  1  0.85102664  0.11769109  0.42351792  1  0.013113  0  0.086318  0.075841  0  0.994015  0
H  H38  1  0.85491442  0.01466667  0.34083274  1  0.028839  0  0.082699  0.10589  0  1.006255  0
H  H39  1  0.82900077  0.90505593  0.38790228  1  0.037351  0  0.089279  0.122239  0  0.995312  0
H  H40  1  0.99267885  0.92886424  0.36080341  1  0.015162  0  0.084259  0.108516  0  1.024393  0
H  H41  1  0.51194479  0.11694062  0.62306845  1  0.05032  0  0.099792  0.065914  0  1.014422  0
H  H42  1  0.48830962  0.12986261  0.68655031  1  0.058108  0  0.091725  0.055683  0  1.011294  0
H  H43  1  0.72235865  0.26114902  0.62829985  1  0.050047  0  0.093719  0.095549  0  0.977783  0
H  H44  1  0.70099202  0.27337451  0.69154915  1  0.068401  0  0.090808  0.090189  0  0.990858  0
H  H45  1  0.71866951  0.04141015  0.69914177  1  0.008702  0  0.083261  0.106278  0  1.029564  0
H  H46  1  0.12143887  0.42313856  0.38779992  1  0.065422  0  0.104374  0.060147  0  0.973439  0
H  H47  1  0.86966256  0.11838493  0.67563752  1  0.025835  0  0.090822  0.122129  0  1.00856  0
H  H48  1  0.75415467  0.03430986  0.63642875  1  0.023016  0  0.083234  0.107399  0  1.022881  0
H  H49  1  0.61375191  0.13698445  0.81662897  1  0.084327  0  0.099657  0.069676  0  1.003991  0
H  H50  1  0.61503200  0.03331523  0.86694889  1  0.0371  0  0.091932  0.049867  0  0.981573  0
H  H51  1  0.85707152  0.11647686  0.80168618  1  0.053142  0  0.098488  0.098474  0  0.959484  0
H  H52  1  0.87490073  0.03381733  0.85591435  1  0.009462  0  0.091524  0.083367  0  0.97235  0
H  H53  1  0.72295449  0.85604848  0.82367756  1  0.013814  0  0.081906  0.107231  0  1.010094  0
H  H54  1  0.86111086  0.89086509  0.78348699  1  0.044122  0  0.091712  0.124417  0  0.999035  0
H  H55  1  0.69562287  0.93781290  0.76980891  1  0.024466  0  0.083432  0.108076  0  1.027389  0
H  H56  1  0.49621895  0.03857317  0.99002610  1  0.046018  0  0.095229  0.054778  0  0.995659  0
H  H57  1  0.86840307  0.46273536  0.38619794  1  0.095091  0  0.108668  0.14078  0  0.966909  0
H  H58  1  0.51752743  0.96750316  0.04735914  1  0.015797  0  0.101278  0.06589  0  0.964681  0
H  H59  1  0.72854993  0.97517759  0.96506932  1  0.041945  0  0.096309  0.091714  0  0.973549  0
H  H60  1  0.74660580  0.90243925  0.02136377  1  0.015834  0  0.098144  0.094353  0  0.961417  0
H  H61  1  0.53718175  0.75737930  0.00238426  1  0.030949  0  0.083339  0.109406  0  1.010441  0
H  H62  1  0.66764866  0.74707982  0.95846261  1  0.036212  0  0.091635  0.122364  0  0.992088  0
H  H63  1  0.52203816  0.82997142  0.94556630  1  0.019427  0  0.083055  0.107385  0  1.012475  0
H  H64  1  0.83278305  0.32276966  0.41925476  1  0.083497  0  0.110566  0.143609  0  0.983163  0
H  H65  1  0.64349211  0.14904772  0.12471364  1  0.130031  0  0.12514  0.147424  0  0.966626  0
H  H66  1  0.67260623  0.18666116  0.96491052  1  0.115482  0  0.115176  0.130261  0  1.053443  0
C  C67  1  0.52136286  0.27795613  0.51113406  1  1.567857  0  0.216845  0.591205  0  4.177293  0
C  C68  1  0.51371343  0.31116291  0.97620818  1  0.094317  0  0.004097  0.076398  0  3.977735  0
C  C69  1  0.34669459  0.47398583  0.97990585  1  0.053362  0  -0.007117  -0.056206  0  3.995119  0
C  C70  1  0.49126128  0.48258125  0.41012042  1  1.684249  0  0.221696  0.629542  0  4.194934  0
C  C71  1  0.43585329  0.40092650  0.95276130  1  -0.007197  0  0.004005  0.008866  0  3.910375  0
C  C72  1  0.60614452  0.25006661  0.94823860  1  -0.045049  0  -0.092731  -0.238759  0  3.939105  0
C  C73  1  0.62371044  0.26866686  0.89853167  1  0.538912  0  0.104628  0.273799  0  4.044515  0
C  C74  1  0.54877496  0.35588387  0.87453249  1  -0.020553  0  -0.018632  -0.182654  0  3.955057  0
C  C75  1  0.45580031  0.42265761  0.90224137  1  0.043436  0  0.001421  0.039905  0  3.995138  0
C  C76  1  0.38418633  0.51627166  0.87978039  1  -0.055908  0  -0.007228  -0.040987  0  4.001924  0
C  C77  1  0.38831312  0.53605142  0.82722523  1  1.356818  0  0.240237  0.441988  0  4.101344  0
C  C78  1  0.39830978  0.31224298  0.29287896  1  0.590814  0  0.097371  0.11506  0  4.096038  0
C  C79  1  0.57326149  0.38682199  0.82338856  1  1.330584  0  0.240706  0.451766  0  4.079717  0
C  C80  1  0.46052014  0.37844126  0.72239334  1  0.515472  0  0.087998  0.109214  0  4.065173  0
C  C81  1  0.46983656  0.38361325  0.67228358  1  0.571056  0  0.076538  0.12939  0  4.111471  0
C  C82  1  0.51514322  0.74317337  0.50619410  1  1.640662  0  0.218952  0.613546  0  4.186555  0
C  C83  1  0.52112647  0.60703975  0.67858275  1  0.621399  0  0.076094  0.127613  0  4.098874  0
C  C84  1  0.52243353  0.59531787  0.72889235  1  0.412078  0  0.09125  0.116795  0  4.056312  0
C  C85  1  0.48946790  0.48241838  0.75123050  1  0.477916  0  0.067534  -0.008841  0  4.123347  0
C  C86  1  0.50340431  0.29422162  0.02847782  1  -0.030902  0  -0.000248  -0.061489  0  3.906482  0
C  C87  1  0.41445040  0.36896040  0.05513520  1  0.053353  0  0.008534  0.033633  0  3.929843  0
C  C88  1  0.32435999  0.44710137  0.03066542  1  0.049048  0  -0.004988  -0.056858  0  3.979642  0
C  C89  1  0.44723310  0.39642176  0.25807062  1  0.388214  0  0.073651  0.002703  0  4.109473  0
C  C90  1  0.57583122  0.20829412  0.05515632  1  0.460325  0  0.094577  0.220969  0  4.004579  0
C  C91  1  0.21384791  0.48692852  0.10835251  1  0.020034  0  -0.075227  -0.193197  0  3.9628  0
C  C92  1  0.29698234  0.57585623  0.95628659  1  0.426069  0  0.106413  0.247997  0  4.047892  0
C  C93  1  0.30892759  0.59426841  0.90696823  1  0.068839  0  -0.077437  -0.196004  0  3.982989  0
C  C94  1  0.49244886  0.50669390  0.59666322  1  1.599503  0  0.220928  0.630735  0  4.173022  0
C  C95  1  0.21664571  0.48961962  0.05819334  1  0.488848  0  0.108055  0.251225  0  4.036528  0
C  C96  1  0.39381331  0.06736348  0.51179448  1  -0.044168  0  -0.00963  -0.004345  0  3.918203  0
C  C97  1  0.51430355  0.14225077  0.51877377  1  0.096832  0  -0.002787  -0.018612  0  3.953373  0
C  C98  1  0.63398778  0.08249539  0.52862732  1  -0.107094  0  -0.085919  -0.221805  0  3.96298  0
C  C99  1  0.63275779  0.95438851  0.52763414  1  0.481982  0  0.112442  0.27444  0  4.020059  0
C  C100  1  0.41059519  0.36319128  0.10655381  1  -0.049606  0  -0.002745  0.010884  0  4.02135  0
C  C101  1  0.51586456  0.87776379  0.51533859  1  0.01914  0  -0.012269  -0.134584  0  3.951253  0
C  C102  1  0.39693552  0.93989887  0.50900644  1  -0.002398  0  -0.013103  -0.073537  0  3.923295  0
C  C103  1  0.25279286  0.92490235  0.48693976  1  1.114177  0  0.185967  0.393556  0  3.894953  0
C  C104  1  0.24303731  0.06856400  0.49694289  1  0.52277  0  -0.000737  -0.007833  0  3.871102  0
C  C105  1  0.92668053  0.47713569  0.46267403  1  0.549767  0  0.13579  0.218572  0  3.94489  0
C  C106  1  0.51296800  0.29449812  0.18450951  1  1.380052  0  0.245044  0.446407  0  4.082613  0
C  C107  1  0.93822918  0.59075123  0.53197580  1  1.215709  0  0.244103  0.279032  0  4.047058  0
C  C108  1  0.08215117  0.57506813  0.53223585  1  1.178811  0  0.249725  0.289554  0  4.016492  0
C  C109  1  0.06523756  0.46228183  0.46402475  1  0.504225  0  0.118578  0.104023  0  3.86266  0
C  C110  1  0.06121538  0.38339267  0.41836122  1  0.566156  0  0.023822  0.123229  0  3.869326  0
C  C111  1  0.50075729  0.28919834  0.13143252  1  -0.04831  0  -0.008861  -0.046911  0  4.023549  0
C  C112  1  0.90109990  0.40679277  0.41645473  1  -0.044229  0  -0.148659  -0.310784  0  3.831319  0
C  C113  1  0.32117609  0.43761692  0.18571507  1  1.326742  0  0.243579  0.44342  0  4.088819  0
C  C114  1  0.51624685  0.50670253  0.27311437  1  0.648039  0  0.096221  0.115989  0  4.083212  0
C  C115  1  0.53380943  0.53296465  0.32195892  1  0.518814  0  0.096222  0.165939  0  4.087612  0
C  C116  1  0.41670067  0.33945409  0.34162723  1  0.514151  0  0.095162  0.160365  0  4.083635  0
C  C117  1  0.47306039  0.81936832  0.66449676  1  0.410778  0  -0.068117  0.02925  0  3.882134  0
C  C118  1  0.33171739  0.80222091  0.64138797  1  -0.044235  0  -0.176323  -0.147161  0  3.963902  0
C  C119  1  0.25573211  0.92011376  0.64548297  1  -0.040746  0  -0.244006  -0.349727  0  3.960097  0
C  C120  1  0.35171533  0.92730574  0.40738040  1  0.441764  0  -0.070296  0.046646  0  3.894017  0
C  C121  1  0.32659529  0.86910223  0.35813158  1  0.038207  0  -0.167483  -0.124662  0  3.974523  0
C  C122  1  0.57885239  0.21068809  0.10564862  1  0.099881  0  -0.07279  -0.17676  0  3.94716  0
C  C123  1  0.44377365  0.90726799  0.32360554  1  -0.03747  0  -0.246677  -0.357377  0  3.979936  0
C  C124  1  0.16211050  0.20252477  0.55742424  1  0.400999  0  -0.078053  0.039052  0  3.890505  0
C  C125  1  0.04507331  0.20950654  0.59302488  1  -0.005011  0  -0.16992  -0.125725  0  3.980168  0
C  C126  1  0.06956382  0.31761012  0.62798824  1  -0.013993  0  -0.247812  -0.353078  0  3.962174  0
C  C127  1  0.91633814  0.71919323  0.60603474  1  0.357771  0  -0.054313  0.032048  0  3.815173  0
C  C128  1  0.93162946  0.63683473  0.64962777  1  -0.015727  0  -0.170029  -0.14392  0  3.970657  0
C  C129  1  0.93937436  0.71385814  0.69595151  1  -0.063989  0  -0.241594  -0.351793  0  3.95426  0
C  C130  1  0.04403166  0.17439397  0.39021302  1  0.370295  0  -0.071266  0.024506  0  3.904109  0
C  C131  1  0.94277210  0.07480161  0.41033295  1  0.003577  0  -0.170127  -0.135874  0  3.974185  0
C  C132  1  0.90252668  0.97563493  0.37281171  1  -0.069588  0  -0.242901  -0.348127  0  3.972839  0
C  C133  1  0.31542738  0.42965235  0.13267248  1  -0.006593  0  -0.007238  -0.03807  0  4.013694  0
C  C134  1  0.53080120  0.17762270  0.65439363  1  0.383766  0  -0.071263  0.02264  0  3.8829  0
C  C135  1  0.68363424  0.21096415  0.66048361  1  -0.061477  0  -0.173755  -0.148844  0  3.974792  0
C  C136  1  0.76059880  0.09488928  0.66828772  1  -0.04588  0  -0.241369  -0.347904  0  3.955998  0
C  C137  1  0.67725006  0.10263000  0.84574056  1  0.360161  0  -0.06481  0.040329  0  3.882621  0
C  C138  1  0.80433475  0.04844873  0.82578645  1  0.02559  0  -0.165075  -0.126753  0  3.977155  0
C  C139  1  0.76905192  0.92693299  0.79929127  1  -0.069981  0  -0.243264  -0.35665  0  3.976096  0
C  C140  1  0.57281519  0.01161433  0.01659745  1  0.40449  0  -0.063638  0.033613  0  3.883185  0
C  C141  1  0.67090259  0.92587355  0.99406199  1  0.025626  0  -0.163764  -0.128802  0  3.976293  0
C  C142  1  0.59514176  0.80874625  0.97405976  1  -0.076556  0  -0.242165  -0.351175  0  3.97217  0
C  C143  1  0.48234509  0.45065939  0.35693975  1  0.114366  0  -0.019986  -0.198179  0  4.01379  0
C  C144  1  0.49493198  0.49987258  0.65081225  1  0.102128  0  -0.016509  -0.178658  0  3.947485  0
N  N145  1  0.42580169  0.37415721  0.20790249  1  -1.16244  0  -0.233037  -0.199853  0  3.621909  0
N  N146  1  0.48426364  0.47002345  0.80225527  1  -1.154722  0  -0.231215  -0.19164  0  3.620519  0
N  N147  1  0.86036674  0.53715325  0.49627236  1  -1.211055  0  -0.304648  -0.272687  0  3.464086  0
N  N148  1  0.14617712  0.51028515  0.49966912  1  -1.215877  0  -0.289565  -0.254825  0  3.50641  0
O  O149  1  0.41013737  0.32300575  0.49854028  1  -1.162317  0  -0.304026  -0.538391  0  2.384681  0
O  O150  1  0.37654272  0.48049234  0.57724825  1  -1.146517  0  -0.306542  -0.534727  0  2.337877  0
O  O151  1  0.60492416  0.53680370  0.57589892  1  -1.156825  0  -0.306427  -0.541317  0  2.347398  0
O  O152  1  0.59510586  0.23797175  0.20772109  1  -1.1028  0  -0.275882  -0.427283  0  2.053537  0
O  O153  1  0.55702151  0.71628848  0.65591557  1  -1.058334  0  -0.194103  -0.207093  0  2.519879  0
O  O154  1  0.24194317  0.88457784  0.43919751  1  -1.057904  0  -0.216263  -0.290391  0  2.465484  0
O  O155  1  0.14777928  0.08423414  0.53427704  1  -1.041362  0  -0.226533  -0.239013  0  2.518207  0
O  O156  1  0.86693175  0.65042887  0.56341903  1  -1.050632  0  -0.136627  -0.148398  0  2.640056  0
O  O157  1  0.08900049  0.26062104  0.42778561  1  -1.054959  0  -0.220297  -0.244024  0  2.500289  0
O  O158  1  0.45123153  0.28214090  0.64317240  1  -1.053081  0  -0.18802  -0.20247  0  2.531864  0
O  O159  1  0.72196882  0.20283651  0.87807521  1  -1.081034  0  -0.19576  -0.232211  0  2.527981  0
O  O160  1  0.66313805  0.34518388  0.79852756  1  -1.097299  0  -0.263178  -0.422627  0  2.134163  0
O  O161  1  0.65226356  0.12110577  0.03400036  1  -1.066589  0  -0.200716  -0.23632  0  2.507226  0
O  O162  1  0.24436806  0.49758227  0.20990984  1  -1.09566  0  -0.277383  -0.42913  0  2.051355  0
O  O163  1  0.31340925  0.60490997  0.80628187  1  -1.097978  0  -0.281969  -0.44034  0  2.071729  0
O  O164  1  0.63828066  0.33604846  0.51583625  1  -1.162768  0  -0.314475  -0.535161  0  2.315033  0
O  O165  1  0.37917916  0.50921336  0.42890032  1  -1.149515  0  -0.304105  -0.528142  0  2.281115  0
O  O166  1  0.60733053  0.47858924  0.42974566  1  -1.159958  0  -0.297784  -0.528532  0  2.303518  0
O  O167  1  0.40015543  0.68348551  0.51250304  1  -1.153035  0  -0.307892  -0.540706  0  2.386895  0
O  O168  1  0.62558990  0.70026764  0.49206451  1  -1.152302  0  -0.315189  -0.537375  0  2.342867  0
F  F169  1  0.36893128  0.25559407  0.37465480  1  -0.625927  0  -0.073696  -0.096542  0  1.408024  0
F  F170  1  0.42297640  0.26930360  0.74439869  1  -0.629755  0  -0.092537  -0.116262  0  1.385364  0
F  F171  1  0.59985051  0.64134829  0.33527709  1  -0.615904  0  -0.08204  -0.101958  0  1.361277  0
F  F172  1  0.56480075  0.58900110  0.23977288  1  -0.619962  0  -0.090999  -0.104462  0  1.351495  0
F  F173  1  0.24023831  0.66626693  0.98164035  1  -0.627475  0  -0.096837  -0.140635  0  1.385246  0
F  F174  1  0.55950222  0.69518789  0.75680351  1  -0.635095  0  -0.087296  -0.114213  0  1.407501  0
F  F175  1  0.10604942  0.53353355  0.03623137  1  -0.622988  0  -0.096267  -0.135021  0  1.376638  0
F  F176  1  0.75258681  0.90409992  0.53801642  1  -0.625608  0  -0.08624  -0.124394  0  1.372251  0
F  F177  1  0.33106808  0.20499691  0.27920666  1  -0.616903  0  -0.083289  -0.097693  0  1.368569  0
F  F178  1  0.15481555  0.85077491  0.51134883  1  -0.6353  0  -0.128237  -0.200667  0  1.326831  0
F  F179  1  0.15711754  0.62491880  0.56851299  1  -0.62016  0  -0.036965  -0.086177  0  1.508618  0
