# generated using pymatgen
data_DyH23C30S4O9
_symmetry_space_group_name_H-M   'P 1'
_cell_length_a   9.04532807
_cell_length_b   11.42912087
_cell_length_c   15.62177020
_cell_angle_alpha   90.63097778
_cell_angle_beta   100.36343392
_cell_angle_gamma   109.04240294
_symmetry_Int_Tables_number   1
_chemical_formula_structural   DyH23C30S4O9
_chemical_formula_sum   'Dy2 H46 C60 S8 O18'
_cell_volume   1497.47525758
_cell_formula_units_Z   2
loop_
 _symmetry_equiv_pos_site_id
 _symmetry_equiv_pos_as_xyz
  1  'x, y, z'
loop_
 _atom_site_type_symbol
 _atom_site_label
 _atom_site_symmetry_multiplicity
 _atom_site_fract_x
 _atom_site_fract_y
 _atom_site_fract_z
 _atom_site_occupancy
 _atom_site_hle17_bader_spin_density
 _atom_site_hle17_ddec_charge
 _atom_site_hle17_ddec_spin_density
 _atom_site_hle17_ddec_sum_bond_order
 _atom_site_hle17_magmom
 _atom_site_hse06_10hf_bader_spin_density
 _atom_site_hse06_10hf_ddec_charge
 _atom_site_hse06_10hf_ddec_spin_density
 _atom_site_hse06_10hf_ddec_sum_bond_order
 _atom_site_hse06_10hf_magmom
 _atom_site_hse06_bader_spin_density
 _atom_site_hse06_ddec_charge
 _atom_site_hse06_ddec_spin_density
 _atom_site_hse06_ddec_sum_bond_order
 _atom_site_hse06_magmom
 _atom_site_pbe_bader_spin_density
 _atom_site_pbe_cm5_charge
 _atom_site_pbe_ddec_charge
 _atom_site_pbe_ddec_spin_density
 _atom_site_pbe_ddec_sum_bond_order
 _atom_site_pbe_magmom
Dy  Dy0  1  0.20185438  0.47827605  0.50622866  1  0  2.2809  0  1.685989  0  0  2.136251  0  2.154269  0  0  2.25836  0  1.975537  0  0  1.541881  2.100234  0  2.185374  0
Dy  Dy1  1  0.79814590  0.52172663  0.49377022  1  0  2.280899  0  1.685883  0  0  2.136341  0  2.15399  0  0  2.258355  0  1.975417  0  0  1.541876  2.100188  0  2.185286  0
H  H2  1  0.50652111  0.64618976  0.47518090  1  0  0.387342  0  0.883119  0  0  0.364319  0  0.950808  0  0  0.374148  0  0.941021  0  0  0.314009  0.357081  0  0.959105  0
H  H3  1  0.49347911  0.35381014  0.52481922  1  0  0.387356  0  0.883099  0  0  0.364334  0  0.950783  0  0  0.374161  0  0.940999  0  0  0.314015  0.357097  0  0.959081  0
H  H4  1  0.12356007  0.99269535  0.99216241  1  0  0.398417  0  0.891798  0  0  0.366627  0  0.97213  0  0  0.379452  0  0.958163  0  0  0.305444  0.357518  0  0.982061  0
H  H5  1  0.87643923  0.00729711  0.00783947  1  0  0.398265  0  0.892099  0  0  0.366594  0  0.972241  0  0  0.379415  0  0.95826  0  0  0.305404  0.357522  0  0.98213  0
H  H6  1  0.51988982  0.78272699  0.61041311  1  0  0.039598  0  0.918851  0  0  0.055016  0  0.981765  0  0  0.054681  0  0.982244  0  0  0.095594  0.0553  0  0.981242  0
H  H7  1  0.48011496  0.21727569  0.38958687  1  0  0.039601  0  0.91889  0  0  0.055051  0  0.981767  0  0  0.054713  0  0.982247  0  0  0.0956  0.05534  0  0.981237  0
H  H8  1  0.36916170  0.81602810  0.53529326  1  0  0.047063  0  0.911617  0  0  0.06368  0  0.970926  0  0  0.063219  0  0.971551  0  0  0.103177  0.063971  0  0.970468  0
H  H9  1  0.63084236  0.18397550  0.46470729  1  0  0.047072  0  0.911624  0  0  0.063702  0  0.970929  0  0  0.063237  0  0.971556  0  0  0.103184  0.063999  0  0.97047  0
H  H10  1  0.55598056  0.88355385  0.42982637  1  0  0.106179  0  0.958983  0  0  0.126193  0  1.021452  0  0  0.127239  0  1.02212  0  0  0.08516  0.125442  0  1.020876  0
H  H11  1  0.44402301  0.11644605  0.57017281  1  0  0.106178  0  0.95902  0  0  0.126185  0  1.021483  0  0  0.12723  0  1.022153  0  0  0.08516  0.125431  0  1.020917  0
H  H12  1  0.70669029  0.84756348  0.50393907  1  0  0.109125  0  0.964867  0  0  0.125804  0  1.033654  0  0  0.127449  0  1.033252  0  0  0.084917  0.124551  0  1.034025  0
H  H13  1  0.29331177  0.15243549  0.49606059  1  0  0.109111  0  0.964925  0  0  0.125787  0  1.033697  0  0  0.127433  0  1.033295  0  0  0.084921  0.124535  0  1.034068  0
H  H14  1  0.64067701  0.96960944  0.53293287  1  0  0.110311  0  0.961979  0  0  0.132408  0  1.022395  0  0  0.132482  0  1.024839  0  0  0.089936  0.132282  0  1.020725  0
H  H15  1  0.35932657  0.03039046  0.46706631  1  0  0.11033  0  0.961895  0  0  0.132408  0  1.022339  0  0  0.132478  0  1.024789  0  0  0.089945  0.132283  0  1.020661  0
H  H16  1  0.21668005  0.27970004  0.28447380  1  0  0.10087  0  0.970238  0  0  0.104144  0  1.043892  0  0  0.108097  0  1.040574  0  0  0.102945  0.101409  0  1.045935  0
H  H17  1  0.78331869  0.72030172  0.71552363  1  0  0.100908  0  0.970194  0  0  0.104128  0  1.043918  0  0  0.108094  0  1.040578  0  0  0.10295  0.101393  0  1.045967  0
H  H18  1  0.16813776  0.19172958  0.13012466  1  0  0.093625  0  0.952557  0  0  0.104798  0  1.009565  0  0  0.107837  0  1.008833  0  0  0.099149  0.102599  0  1.010251  0
H  H19  1  0.83186440  0.80827496  0.86987187  1  0  0.093558  0  0.9526  0  0  0.104751  0  1.009577  0  0  0.107792  0  1.008846  0  0  0.099112  0.102547  0  1.010264  0
H  H20  1  0.34292343  0.30657810  0.03003870  1  0  0.080228  0  0.993963  0  0  0.083051  0  1.070103  0  0  0.086241  0  1.06801  0  0  0.089783  0.080803  0  1.071562  0
H  H21  1  0.65708180  0.69342830  0.96995943  1  0  0.080279  0  0.993972  0  0  0.083053  0  1.07015  0  0  0.086241  0  1.068058  0  0  0.089804  0.080799  0  1.071605  0
H  H22  1  0.55915635  0.50480976  0.08252140  1  0  0.088992  0  0.986932  0  0  0.098077  0  1.050495  0  0  0.100774  0  1.050335  0  0  0.092318  0.096213  0  1.050596  0
H  H23  1  0.44084930  0.49519756  0.91747934  1  0  0.088918  0  0.987084  0  0  0.098068  0  1.050574  0  0  0.100768  0  1.05041  0  0  0.092294  0.096204  0  1.050671  0
H  H24  1  0.82621120  0.50987095  0.20800166  1  0  0.097131  0  0.995763  0  0  0.102438  0  1.066562  0  0  0.10541  0  1.065872  0  0  0.096121  0.100404  0  1.066937  0
H  H25  1  0.17377847  0.49012523  0.79199992  1  0  0.097075  0  0.995842  0  0  0.102432  0  1.066566  0  0  0.105405  0  1.065871  0  0  0.096105  0.100388  0  1.066948  0
H  H26  1  0.03025168  0.42284627  0.17934854  1  0  0.09279  0  0.942963  0  0  0.10314  0  1.002362  0  0  0.105325  0  1.001896  0  0  0.102909  0.101575  0  1.002691  0
H  H27  1  0.96972997  0.57714434  0.82065154  1  0  0.092768  0  0.943013  0  0  0.103162  0  1.002379  0  0  0.105349  0  1.001912  0  0  0.102872  0.101591  0  1.002722  0
H  H28  1  0.22815936  0.53247698  0.08934977  1  0  0.089615  0  0.971789  0  0  0.099406  0  1.033393  0  0  0.101369  0  1.034582  0  0  0.095733  0.097993  0  1.032714  0
H  H29  1  0.77182941  0.46751177  0.91065549  1  0  0.089553  0  0.971841  0  0  0.099425  0  1.033363  0  0  0.101389  0  1.034551  0  0  0.095727  0.098011  0  1.032671  0
H  H30  1  0.21854597  0.73239832  0.02963174  1  0  0.101972  0  0.940537  0  0  0.113119  0  0.997993  0  0  0.11621  0  0.995847  0  0  0.107848  0.110912  0  0.999536  0
H  H31  1  0.78146015  0.26759413  0.97037850  1  0  0.10189  0  0.940582  0  0  0.113056  0  0.998007  0  0  0.116157  0  0.995863  0  0  0.10779  0.110846  0  0.999539  0
H  H32  1  0.73279386  0.32340226  0.66193103  1  0  0.101748  0  0.946791  0  0  0.110016  0  1.009129  0  0  0.113269  0  1.006973  0  0  0.11012  0.10741  0  1.011267  0
H  H33  1  0.26721008  0.67659857  0.33806500  1  0  0.101793  0  0.946719  0  0  0.110048  0  1.009079  0  0  0.113303  0  1.006916  0  0  0.110118  0.107435  0  1.011219  0
H  H34  1  0.57752916  0.17563425  0.75591467  1  0  0.089846  0  0.956621  0  0  0.096384  0  1.022958  0  0  0.099502  0  1.022112  0  0  0.09721  0.094065  0  1.023799  0
H  H35  1  0.42246835  0.82436473  0.24407877  1  0  0.089868  0  0.956605  0  0  0.096384  0  1.022972  0  0  0.099502  0  1.022126  0  0  0.09719  0.09406  0  1.023815  0
H  H36  1  0.64150984  0.98203759  0.78976360  1  0  0.084314  0  0.967537  0  0  0.093843  0  1.03107  0  0  0.095876  0  1.030796  0  0  0.096414  0.092391  0  1.031283  0
H  H37  1  0.35848725  0.01796046  0.21022851  1  0  0.08427  0  0.967496  0  0  0.09376  0  1.031082  0  0  0.095786  0  1.030824  0  0  0.096359  0.092307  0  1.031304  0
H  H38  1  0.85349266  0.93730099  0.72936149  1  0  0.083977  0  1.001981  0  0  0.092064  0  1.07049  0  0  0.094357  0  1.070806  0  0  0.091024  0.090405  0  1.070382  0
H  H39  1  0.14651016  0.06269984  0.27063507  1  0  0.084  0  1.001974  0  0  0.092076  0  1.070496  0  0  0.094371  0  1.070807  0  0  0.091016  0.090413  0  1.070391  0
H  H40  1  0.17598243  0.04274968  0.78080212  1  0  0.077238  0  1.039386  0  0  0.075897  0  1.12427  0  0  0.078826  0  1.124151  0  0  0.080309  0.073636  0  1.124829  0
H  H41  1  0.82401822  0.95725393  0.21919424  1  0  0.077257  0  1.03943  0  0  0.075965  0  1.124235  0  0  0.07888  0  1.124155  0  0  0.08033  0.073701  0  1.124784  0
H  H42  1  0.37475917  0.02564561  0.90583944  1  0  0.089074  0  0.932841  0  0  0.103343  0  0.985567  0  0  0.106115  0  0.983827  0  0  0.101057  0.101355  0  0.98687  0
H  H43  1  0.62524418  0.97436172  0.09415660  1  0  0.08903  0  0.932986  0  0  0.103329  0  0.98567  0  0  0.106109  0  0.98392  0  0  0.10106  0.101339  0  0.986979  0
H  H44  1  0.47476986  0.84484670  0.90914845  1  0  0.086984  0  0.95422  0  0  0.099055  0  1.011468  0  0  0.101992  0  1.010271  0  0  0.097132  0.096911  0  1.012476  0
H  H45  1  0.52522824  0.15515877  0.09085025  1  0  0.086972  0  0.954172  0  0  0.099025  0  1.011456  0  0  0.101976  0  1.010241  0  0  0.097108  0.096874  0  1.012482  0
H  H46  1  0.36741641  0.68209276  0.78507338  1  0  0.090982  0  0.994218  0  0  0.09868  0  1.062743  0  0  0.100599  0  1.063043  0  0  0.097194  0.097213  0  1.062633  0
H  H47  1  0.63257485  0.31790713  0.21492904  1  0  0.090983  0  0.994259  0  0  0.098659  0  1.062804  0  0  0.100604  0  1.063076  0  0  0.097166  0.097195  0  1.0627  0
C  C48  1  0.47521419  0.78767993  0.54062503  1  0  0.225873  0  3.605501  0  0  0.177218  0  3.873659  0  0  0.186103  0  3.881325  0  0  -0.068382  0.171332  0  3.86922  0
C  C49  1  0.52478906  0.21232182  0.45937414  1  0  0.225831  0  3.605572  0  0  0.177104  0  3.873807  0  0  0.186018  0  3.881418  0  0  -0.068399  0.171215  0  3.869366  0
C  C50  1  0.60147069  0.87689218  0.49898358  1  0  -0.344267  0  3.701706  0  0  -0.419166  0  3.942861  0  0  -0.42227  0  3.951761  0  0  -0.253514  -0.416558  0  3.936158  0
C  C51  1  0.39853409  0.12311050  0.50101639  1  0  -0.34427  0  3.701801  0  0  -0.419133  0  3.942949  0  0  -0.42224  0  3.951858  0  0  -0.25354  -0.416525  0  3.936253  0
C  C52  1  0.44242157  0.47851501  0.36398267  1  0  0.719516  0  3.843711  0  0  0.670888  0  4.130591  0  0  0.707431  0  4.122864  0  0  0.238208  0.64609  0  4.138656  0
C  C53  1  0.55757648  0.52148766  0.63601791  1  0  0.719737  0  3.843643  0  0  0.671162  0  4.130418  0  0  0.707701  0  4.12269  0  0  0.238266  0.64636  0  4.138495  0
C  C54  1  0.41701476  0.43644985  0.27062623  1  0  -0.116824  0  3.71458  0  0  -0.100332  0  3.946545  0  0  -0.109477  0  3.966342  0  0  -0.018516  -0.094078  0  3.932221  0
C  C55  1  0.58298366  0.56355376  0.72937247  1  0  -0.116707  0  3.714384  0  0  -0.10019  0  3.946265  0  0  -0.10934  0  3.966074  0  0  -0.018391  -0.093942  0  3.931948  0
C  C56  1  0.29137617  0.32633951  0.23903339  1  0  -0.045081  0  3.718891  0  0  -0.066741  0  3.966964  0  0  -0.06409  0  3.984247  0  0  -0.07603  -0.068056  0  3.954483  0
C  C57  1  0.70861961  0.67366317  0.76096504  1  0  -0.045168  0  3.718973  0  0  -0.066807  0  3.967049  0  0  -0.064161  0  3.984332  0  0  -0.076127  -0.068127  0  3.954574  0
C  C58  1  0.26416843  0.27855640  0.15330567  1  0  -0.090041  0  3.761887  0  0  -0.103656  0  4.013258  0  0  -0.108087  0  4.034501  0  0  -0.097601  -0.100641  0  3.998608  0
C  C59  1  0.73582966  0.72144907  0.84669238  1  0  -0.089926  0  3.761813  0  0  -0.103532  0  4.013112  0  0  -0.107968  0  4.034364  0  0  -0.097475  -0.100514  0  3.998449  0
C  C60  1  0.36204279  0.34317156  0.09737680  1  0  -0.037735  0  3.759482  0  0  -0.051156  0  4.01049  0  0  -0.049877  0  4.029754  0  0  -0.085225  -0.051745  0  3.997178  0
C  C61  1  0.63795941  0.65683298  0.90262229  1  0  -0.03782  0  3.759364  0  0  -0.051217  0  4.010412  0  0  -0.049938  0  4.029678  0  0  -0.085315  -0.051799  0  3.997067  0
C  C62  1  0.48466882  0.45439322  0.12687825  1  0  -0.143593  0  3.782295  0  0  -0.157382  0  4.025167  0  0  -0.162754  0  4.046198  0  0  -0.10145  -0.153676  0  4.010802  0
C  C63  1  0.51532954  0.54560760  0.87312041  1  0  -0.143552  0  3.782376  0  0  -0.157396  0  4.025267  0  0  -0.162771  0  4.046295  0  0  -0.101444  -0.153689  0  4.010882  0
C  C64  1  0.51462077  0.50272122  0.21364514  1  0  0.03818  0  3.742201  0  0  0.050203  0  3.998318  0  0  0.054874  0  4.018653  0  0  -0.000813  0.047124  0  3.984112  0
C  C65  1  0.48537720  0.49727868  0.78635412  1  0  0.038086  0  3.74201  0  0  0.050071  0  3.998217  0  0  0.054743  0  4.018546  0  0  -0.000878  0.046998  0  3.984004  0
C  C66  1  0.89898473  0.66675626  0.13125272  1  0  0.051762  0  3.718004  0  0  0.062718  0  3.973277  0  0  0.06708  0  3.996839  0  0  0.001196  0.059762  0  3.957263  0
C  C67  1  0.10101165  0.33323713  0.86875271  1  0  0.051737  0  3.718193  0  0  0.062735  0  3.973395  0  0  0.067103  0  3.996948  0  0  0.001222  0.059774  0  3.957405  0
C  C68  1  0.90953410  0.55710949  0.16695309  1  0  -0.126583  0  3.747815  0  0  -0.146581  0  3.999492  0  0  -0.152463  0  4.021728  0  0  -0.096142  -0.142702  0  3.984412  0
C  C69  1  0.09046298  0.44288297  0.83305112  1  0  -0.126589  0  3.747982  0  0  -0.146629  0  3.999612  0  0  -0.152512  0  4.021847  0  0  -0.09611  -0.14273  0  3.98455  0
C  C70  1  0.02659318  0.50941880  0.15179815  1  0  -0.01451  0  3.715955  0  0  -0.030866  0  3.967042  0  0  -0.028393  0  3.985419  0  0  -0.074193  -0.032165  0  3.954439  0
C  C71  1  0.97340284  0.49057644  0.84820535  1  0  -0.014388  0  3.716074  0  0  -0.030799  0  3.967156  0  0  -0.028326  0  3.985536  0  0  -0.074191  -0.032094  0  3.95454  0
C  C72  1  0.13794438  0.57100929  0.10161739  1  0  -0.079008  0  3.761185  0  0  -0.093991  0  4.014498  0  0  -0.098374  0  4.036328  0  0  -0.093474  -0.091266  0  3.99988  0
C  C73  1  0.86205259  0.42897759  0.89838867  1  0  -0.079008  0  3.761468  0  0  -0.094063  0  4.014802  0  0  -0.098449  0  4.036636  0  0  -0.093358  -0.091327  0  4.000157  0
C  C74  1  0.13200380  0.68157609  0.06791423  1  0  -0.046406  0  3.732018  0  0  -0.070328  0  3.978909  0  0  -0.067845  0  3.998204  0  0  -0.07647  -0.071801  0  3.965828  0
C  C75  1  0.86800351  0.31841915  0.93209488  1  0  -0.0464  0  3.732153  0  0  -0.070338  0  3.979016  0  0  -0.067866  0  3.998324  0  0  -0.07654  -0.071792  0  3.965906  0
C  C76  1  0.01346050  0.73060318  0.08156658  1  0  -0.135012  0  3.770841  0  0  -0.117672  0  4.00716  0  0  -0.130004  0  4.032973  0  0  -0.025138  -0.109356  0  3.989722  0
C  C77  1  0.98653607  0.26938278  0.91843943  1  0  -0.135373  0  3.770611  0  0  -0.117872  0  4.007001  0  0  -0.130199  0  4.032811  0  0  -0.025282  -0.109557  0  3.989578  0
C  C78  1  0.01113405  0.84827464  0.04575740  1  0  0.657  0  3.806798  0  0  0.603588  0  4.104951  0  0  0.638754  0  4.095568  0  0  0.234433  0.579412  0  4.111005  0
C  C79  1  0.98889208  0.15171225  0.95424711  1  0  0.657642  0  3.80673  0  0  0.603781  0  4.105478  0  0  0.638924  0  4.096118  0  0  0.234408  0.579603  0  4.111539  0
C  C80  1  0.96913303  0.30494962  0.58861814  1  0  0.700621  0  3.861327  0  0  0.650075  0  4.151974  0  0  0.686493  0  4.147715  0  0  0.214882  0.625362  0  4.159081  0
C  C81  1  0.03087093  0.69505121  0.41137981  1  0  0.700323  0  3.861556  0  0  0.649759  0  4.152222  0  0  0.686179  0  4.147956  0  0  0.214667  0.625046  0  4.159319  0
C  C82  1  0.87869275  0.21439854  0.64272279  1  0  -0.126492  0  3.721139  0  0  -0.108785  0  3.958196  0  0  -0.118585  0  3.978044  0  0  -0.024336  -0.102144  0  3.943695  0
C  C83  1  0.12131379  0.78560043  0.35727540  1  0  -0.126313  0  3.721152  0  0  -0.1086  0  3.958126  0  0  -0.118402  0  3.977976  0  0  -0.02427  -0.101969  0  3.94362  0
C  C84  1  0.75757255  0.23825662  0.67744696  1  0  -0.030079  0  3.707731  0  0  -0.053855  0  3.957529  0  0  -0.05068  0  3.975182  0  0  -0.073346  -0.055729  0  3.945162  0
C  C85  1  0.24242804  0.76174420  0.32255065  1  0  -0.030206  0  3.707918  0  0  -0.053967  0  3.957685  0  0  -0.050789  0  3.975336  0  0  -0.073393  -0.055845  0  3.945306  0
C  C86  1  0.67145330  0.15583814  0.72979052  1  0  -0.092958  0  3.775153  0  0  -0.105402  0  4.026555  0  0  -0.109845  0  4.047296  0  0  -0.09692  -0.102431  0  4.012395  0
C  C87  1  0.32855137  0.84416176  0.27020621  1  0  -0.092976  0  3.775218  0  0  -0.10541  0  4.026587  0  0  -0.109855  0  4.047328  0  0  -0.096933  -0.102444  0  4.012423  0
C  C88  1  0.70756154  0.04761178  0.74859190  1  0  -0.028558  0  3.751195  0  0  -0.041509  0  3.995335  0  0  -0.039553  0  4.015126  0  0  -0.082804  -0.0426  0  3.981719  0
C  C89  1  0.29244167  0.95238998  0.25140279  1  0  -0.028494  0  3.750963  0  0  -0.041403  0  3.995099  0  0  -0.039447  0  4.014887  0  0  -0.082718  -0.042504  0  3.981496  0
C  C90  1  0.82770801  0.02255812  0.71528473  1  0  -0.136861  0  3.778167  0  0  -0.15523  0  4.029022  0  0  -0.161364  0  4.051898  0  0  -0.102937  -0.15121  0  4.013508  0
C  C91  1  0.17229529  0.97744642  0.28471319  1  0  -0.13694  0  3.778098  0  0  -0.155329  0  4.02893  0  0  -0.161463  0  4.051801  0  0  -0.103003  -0.151316  0  4.013416  0
C  C92  1  0.91485157  0.10429293  0.66171678  1  0  0.044367  0  3.732724  0  0  0.053445  0  3.992311  0  0  0.058595  0  4.013553  0  0  -0.00192  0.050282  0  3.977232  0
C  C93  1  0.08515542  0.89570975  0.33828022  1  0  0.044381  0  3.73276  0  0  0.053523  0  3.992231  0  0  0.058673  0  4.013471  0  0  -0.001892  0.050364  0  3.97713  0
C  C94  1  0.15138362  0.86910862  0.71401634  1  0  0.039403  0  3.740081  0  0  0.054669  0  3.987324  0  0  0.058034  0  4.009445  0  0  -0.006335  0.052653  0  3.971691  0
C  C95  1  0.84861554  0.13089406  0.28598307  1  0  0.039375  0  3.740111  0  0  0.054642  0  3.987364  0  0  0.058006  0  4.009478  0  0  -0.006304  0.052632  0  3.971715  0
C  C96  1  0.21484867  0.96190123  0.78268675  1  0  -0.133136  0  3.78489  0  0  -0.151144  0  4.035985  0  0  -0.156128  0  4.058231  0  0  -0.105922  -0.147926  0  4.021353  0
C  C97  1  0.78514974  0.03810239  0.21731067  1  0  -0.133101  0  3.784983  0  0  -0.151143  0  4.036067  0  0  -0.156129  0  4.058314  0  0  -0.105877  -0.147921  0  4.021407  0
C  C98  1  0.32884958  0.95269807  0.85275956  1  0  -0.031245  0  3.756323  0  0  -0.045973  0  4.005502  0  0  -0.0445  0  4.024276  0  0  -0.086002  -0.046852  0  3.992696  0
C  C99  1  0.67115148  0.04730647  0.14723813  1  0  -0.031272  0  3.756458  0  0  -0.046015  0  4.00563  0  0  -0.044549  0  4.024402  0  0  -0.086106  -0.046898  0  3.992824  0
C  C100  1  0.38445475  0.85183184  0.85483769  1  0  -0.097559  0  3.796604  0  0  -0.110848  0  4.049413  0  0  -0.11467  0  4.070224  0  0  -0.1007  -0.108392  0  4.035416  0
C  C101  1  0.61554369  0.14817176  0.14516229  1  0  -0.097445  0  3.796509  0  0  -0.110719  0  4.049296  0  0  -0.114551  0  4.070112  0  0  -0.100602  -0.108266  0  4.035323  0
C  C102  1  0.32388134  0.76023221  0.78615394  1  0  -0.060952  0  3.750208  0  0  -0.083087  0  3.995996  0  0  -0.081806  0  4.016643  0  0  -0.086136  -0.083731  0  3.981909  0
C  C103  1  0.67611522  0.23976953  0.21384904  1  0  -0.06105  0  3.750366  0  0  -0.083177  0  3.996165  0  0  -0.081924  0  4.016803  0  0  -0.086157  -0.083828  0  3.982088  0
C  C104  1  0.20536737  0.76570821  0.71651625  1  0  -0.115257  0  3.725293  0  0  -0.096891  0  3.954054  0  0  -0.105076  0  3.973675  0  0  -0.023958  -0.091126  0  3.939775  0
C  C105  1  0.79463028  0.23429354  0.28348428  1  0  -0.115221  0  3.725395  0  0  -0.096867  0  3.95412  0  0  -0.10505  0  3.973752  0  0  -0.024016  -0.091111  0  3.939841  0
C  C106  1  0.13762106  0.66343383  0.64585756  1  0  0.711259  0  3.846864  0  0  0.665006  0  4.137092  0  0  0.701411  0  4.129475  0  0  0.227164  0.640278  0  4.144817  0
C  C107  1  0.86237443  0.33657070  0.35414470  1  0  0.711133  0  3.847274  0  0  0.664965  0  4.137364  0  0  0.701368  0  4.129751  0  0  0.227155  0.640243  0  4.145077  0
S  S108  1  0.66933972  0.64350860  0.25484588  1  0  0.063401  0  2.574125  0  0  0.048677  0  2.955763  0  0  0.049779  0  2.954398  0  0  0.060773  0.047973  0  2.957788  0
S  S109  1  0.33065721  0.35649408  0.74515587  1  0  0.063411  0  2.574175  0  0  0.048689  0  2.955839  0  0  0.049794  0  2.954479  0  0  0.06079  0.047985  0  2.957885  0
S  S110  1  0.74543093  0.72553739  0.14714500  1  0  0.003135  0  2.550999  0  0  1.5e-05  0  2.92556  0  0  -0.001728  0  2.923186  0  0  0.04395  0.001342  0  2.927323  0
S  S111  1  0.25456554  0.27446157  0.85285666  1  0  0.003207  0  2.55113  0  0  5.1e-05  0  2.925697  0  0  -0.001696  0  2.923322  0  0  0.043966  0.001394  0  2.927478  0
S  S112  1  0.06345913  0.07091887  0.61537046  1  0  0.032359  0  2.575076  0  0  0.025671  0  2.962982  0  0  0.025144  0  2.961149  0  0  0.048395  0.02643  0  2.963768  0
S  S113  1  0.93654788  0.92908381  0.38462845  1  0  0.032393  0  2.575015  0  0  0.025655  0  2.962949  0  0  0.025132  0  2.96111  0  0  0.048416  0.026402  0  2.963722  0
S  S114  1  0.01306145  0.88217856  0.62122408  1  0  0.023855  0  2.552387  0  0  0.014292  0  2.931512  0  0  0.015084  0  2.929809  0  0  0.04724  0.014136  0  2.932841  0
S  S115  1  0.98693994  0.11782412  0.37877427  1  0  0.023883  0  2.552309  0  0  0.014319  0  2.931451  0  0  0.015114  0  2.929743  0  0  0.04722  0.01414  0  2.93279  0
O  O116  1  0.41980262  0.66406072  0.49739768  1  0  -0.679594  0  2.204625  0  0  -0.622514  0  2.45537  0  0  -0.65076  0  2.443339  0  0  -0.468306  -0.608975  0  2.462454  0
O  O117  1  0.58019919  0.33594289  0.50260264  1  0  -0.67956  0  2.204489  0  0  -0.622495  0  2.455266  0  0  -0.650736  0  2.443242  0  0  -0.468278  -0.608935  0  2.462356  0
O  O118  1  0.32841087  0.43404188  0.40408413  1  0  -0.729775  0  2.07592  0  0  -0.680954  0  2.341198  0  0  -0.716242  0  2.324994  0  0  -0.411941  -0.664016  0  2.349777  0
O  O119  1  0.67158447  0.56595708  0.59591677  1  0  -0.729913  0  2.075964  0  0  -0.681124  0  2.341206  0  0  -0.716394  0  2.325004  0  0  -0.411975  -0.664154  0  2.349785  0
O  O120  1  0.57716977  0.55810250  0.40026734  1  0  -0.722405  0  2.087002  0  0  -0.659642  0  2.334452  0  0  -0.694475  0  2.321323  0  0  -0.361489  -0.641749  0  2.342512  0
O  O121  1  0.42282781  0.44189647  0.59973315  1  0  -0.722477  0  2.08693  0  0  -0.659719  0  2.334353  0  0  -0.694576  0  2.321254  0  0  -0.361494  -0.641849  0  2.342426  0
O  O122  1  0.89296356  0.88373643  0.04337276  1  0  -0.571773  0  2.052915  0  0  -0.509818  0  2.272779  0  0  -0.53419  0  2.264599  0  0  -0.27649  -0.492969  0  2.278197  0
O  O123  1  0.10701929  0.11625976  0.95662174  1  0  -0.571956  0  2.053956  0  0  -0.509753  0  2.273983  0  0  -0.534142  0  2.265875  0  0  -0.276371  -0.492874  0  2.279398  0
O  O124  1  0.13993401  0.91386937  0.01674586  1  0  -0.537518  0  2.099885  0  0  -0.488333  0  2.316878  0  0  -0.510513  0  2.302875  0  0  -0.323366  -0.472791  0  2.326239  0
O  O125  1  0.86006232  0.08612122  0.98326274  1  0  -0.5376  0  2.099286  0  0  -0.488414  0  2.316469  0  0  -0.510575  0  2.302464  0  0  -0.323326  -0.472895  0  2.325773  0
O  O126  1  0.09613398  0.29391538  0.57087414  1  0  -0.675665  0  2.113004  0  0  -0.621238  0  2.368772  0  0  -0.655918  0  2.360762  0  0  -0.36819  -0.60322  0  2.373354  0
O  O127  1  0.90386950  0.70608174  0.42912308  1  0  -0.675554  0  2.113203  0  0  -0.621115  0  2.368946  0  0  -0.655781  0  2.360934  0  0  -0.368121  -0.603081  0  2.373519  0
O  O128  1  0.92477611  0.39649040  0.56096857  1  0  -0.843653  0  2.192997  0  0  -0.783333  0  2.45899  0  0  -0.827375  0  2.446191  0  0  -0.444948  -0.764588  0  2.465613  0
O  O129  1  0.07523918  0.60351320  0.43903246  1  0  -0.843549  0  2.192896  0  0  -0.783254  0  2.458974  0  0  -0.827309  0  2.446173  0  0  -0.444867  -0.764526  0  2.465586  0
O  O130  1  0.22171266  0.59788262  0.63038245  1  0  -0.731506  0  2.028585  0  0  -0.688866  0  2.296526  0  0  -0.724646  0  2.284452  0  0  -0.404455  -0.670971  0  2.302506  0
O  O131  1  0.77828579  0.40212098  0.36961881  1  0  -0.731382  0  2.028935  0  0  -0.688795  0  2.296844  0  0  -0.724559  0  2.284776  0  0  -0.404435  -0.670876  0  2.302815  0
O  O132  1  0.99749583  0.64915046  0.60436027  1  0  -0.714929  0  2.139871  0  0  -0.658894  0  2.396699  0  0  -0.695836  0  2.387693  0  0  -0.376103  -0.640292  0  2.401976  0
O  O133  1  0.00250341  0.35085500  0.39564046  1  0  -0.714939  0  2.140014  0  0  -0.658935  0  2.39684  0  0  -0.695891  0  2.38783  0  0  -0.376102  -0.64036  0  2.402122  0
