# generated using pymatgen
data_Zn2H33C29N9O13
_symmetry_space_group_name_H-M   'P 1'
_cell_length_a   10.03262306
_cell_length_b   11.18872646
_cell_length_c   12.66822239
_cell_angle_alpha   94.24271238
_cell_angle_beta   108.70744227
_cell_angle_gamma   96.32202451
_symmetry_Int_Tables_number   1
_chemical_formula_structural   Zn2H33C29N9O13
_chemical_formula_sum   'Zn2 H33 C29 N9 O13'
_cell_volume   1329.66423319
_cell_formula_units_Z   1
loop_
 _symmetry_equiv_pos_site_id
 _symmetry_equiv_pos_as_xyz
  1  'x, y, z'
loop_
 _atom_site_type_symbol
 _atom_site_label
 _atom_site_symmetry_multiplicity
 _atom_site_fract_x
 _atom_site_fract_y
 _atom_site_fract_z
 _atom_site_occupancy
 _atom_site_pbe_bader_charge
 _atom_site_pbe_bader_spin_density
 _atom_site_pbe_cm5_charge
 _atom_site_pbe_ddec_charge
 _atom_site_pbe_ddec_spin_density
 _atom_site_pbe_ddec_sum_bond_order
 _atom_site_pbe_magmom
Zn  Zn0  1  0.87118626  0.48937513  0.52991990  1  1.29791  0  0.666368  0.874869  0  2.388001  0
Zn  Zn1  1  0.11927237  0.46793845  0.47518342  1  1.286001  0  0.670553  0.861811  0  2.41519  0
H  H2  1  0.86307601  0.08613776  0.57150157  1  0.074013  0  0.094764  0.126728  0  1.046678  0
H  H3  1  0.27310504  0.75380469  0.38982610  1  0.081693  0  0.096564  0.112131  0  1.012174  0
H  H4  1  0.34019820  0.85404880  0.51854760  1  0.046628  0  0.089816  0.085058  0  1.002921  0
H  H5  1  0.33302013  0.91100673  0.38787263  1  0.038853  0  0.093118  0.088318  0  1.000022  0
H  H6  1  0.47707814  0.17523770  0.40801659  1  0.077219  0  0.112626  0.11787  0  0.984826  0
H  H7  1  0.40911685  0.24536359  0.50838179  1  0.076008  0  0.103382  0.098775  0  1.045677  0
H  H8  1  0.58648615  0.20366297  0.55274370  1  0.084587  0  0.113132  0.129481  0  0.974073  0
H  H9  1  0.36581279  0.57790329  0.65244603  1  0.548753  0  0.304234  0.333546  0  0.968137  0
H  H10  1  0.54534700  0.56245955  0.69915340  1  0.443144  0  0.317473  0.309554  0  0.930635  0
H  H11  1  0.63982150  0.27181142  0.76838913  1  0.453784  0  0.287974  0.282175  0  1.009213  0
H  H12  1  0.46529511  0.25827352  0.68861024  1  0.430659  0  0.293564  0.28188  0  0.972513  0
H  H13  1  0.67670965  0.61492944  0.57914502  1  0.435924  0  0.313329  0.305917  0  0.920535  0
H  H14  1  0.92683646  0.32286575  0.92617093  1  0.454198  0  0.300384  0.293212  0  0.961063  0
H  H15  1  0.82959430  0.39986201  0.82876369  1  0.422602  0  0.299121  0.293407  0  0.944666  0
H  H16  1  0.44448774  0.26784494  0.24445676  1  0.016664  0  0.096738  0.094606  0  1.001732  0
H  H17  1  0.63402905  0.27090923  0.29973473  1  0.086968  0  0.098818  0.108356  0  1.014998  0
H  H18  1  0.53791401  0.21805199  0.15397296  1  0.047354  0  0.097189  0.094981  0  0.990634  0
H  H19  1  0.04301062  0.70897456  0.96316287  1  0.435748  0  0.303743  0.296216  0  0.954635  0
H  H20  1  0.99245643  0.63811568  0.82726978  1  0.450723  0  0.291153  0.297347  0  0.989966  0
H  H21  1  0.55366849  0.56822885  0.22425587  1  0.484438  0  0.297437  0.299102  0  1.009044  0
H  H22  1  0.45477060  0.68241999  0.22385802  1  0.434278  0  0.297383  0.286371  0  0.971029  0
H  H23  1  0.24915461  0.87712503  0.01571030  1  0.069931  0  0.095633  0.096259  0  1.006028  0
H  H24  1  0.31921611  0.40281715  0.39560037  1  0.432625  0  0.307423  0.300203  0  0.937994  0
H  H25  1  0.41735655  0.87536725  0.12267818  1  0.05813  0  0.096191  0.095752  0  0.993058  0
H  H26  1  0.26585356  0.90809067  0.16092613  1  0.046104  0  0.102452  0.107289  0  0.986911  0
H  H27  1  0.21169711  0.04417546  0.47934612  1  0.469125  0  0.294647  0.284021  0  1.018467  0
H  H28  1  0.18309450  0.19109168  0.51874919  1  0.488971  0  0.288008  0.295921  0  1.008975  0
H  H29  1  0.31137934  0.38899928  0.71802886  1  0.077839  0  0.101348  0.124335  0  1.034564  0
H  H30  1  0.19103956  0.42451353  0.13894218  1  0.044269  0  0.099805  0.108904  0  0.985267  0
H  H31  1  0.09710006  0.51191888  0.20903682  1  0.063811  0  0.096037  0.108106  0  1.011044  0
H  H32  1  0.06833295  0.51695666  0.06188019  1  0.02911  0  0.086242  0.076297  0  1.058388  0
H  H33  1  0.92140265  0.79719574  0.60670348  1  0.495425  0  0.291844  0.304202  0  1.003084  0
H  H34  1  0.94858597  0.94478945  0.67340248  1  0.444424  0  0.30346  0.294238  0  0.95193  0
C  C35  1  0.03204707  0.70684012  0.47718462  1  1.503151  0  0.198048  0.55382  0  4.210977  0
C  C36  1  0.22712342  0.55074286  0.84392916  1  0.013618  0  -0.055369  -0.245347  0  3.967343  0
C  C37  1  0.06762525  0.83882629  0.48030254  1  0.516835  0  0.038141  -0.057455  0  3.939356  0
C  C38  1  0.13488120  0.53952133  0.72455708  1  1.518491  0  0.213381  0.628142  0  4.122441  0
C  C39  1  0.02302394  0.92263111  0.54287879  1  0.42645  0  0.100797  0.152955  0  4.034769  0
C  C40  1  0.96099954  0.12834434  0.56245876  1  0.021535  0  -0.150025  -0.432894  0  3.913601  0
C  C41  1  0.05632609  0.05589437  0.54501931  1  0.418659  0  0.112434  0.296799  0  4.038979  0
C  C42  1  0.43809836  0.48859624  0.54050721  1  1.225432  0  0.250015  0.38714  0  4.160069  0
C  C43  1  0.57068115  0.45527869  0.52209850  1  1.347904  0  0.26136  0.374232  0  4.068165  0
C  C44  1  0.97142372  0.25717857  0.55236932  1  1.460883  0  0.193213  0.645856  0  4.179337  0
C  C45  1  0.86750071  0.41305241  0.28957325  1  1.576071  0  0.211646  0.614909  0  4.155733  0
C  C46  1  0.44260510  0.50871261  0.99390613  1  0.011058  0  -0.033342  -0.09884  0  3.961405  0
C  C47  1  0.76586503  0.38025389  0.96724609  1  0.290101  0  0.067137  0.118101  0  4.071938  0
C  C48  1  0.78394153  0.40125344  0.16616057  1  -0.039061  0  -0.035406  -0.233808  0  3.952502  0
C  C49  1  0.19274678  0.62480697  0.92387261  1  0.43437  0  0.08682  0.199285  0  4.167803  0
C  C50  1  0.29026138  0.64953541  0.03339628  1  0.435013  0  0.041364  -0.006566  0  4.024733  0
C  C51  1  0.41249767  0.59295863  0.07164413  1  0.498005  0  0.094663  0.186086  0  4.106872  0
C  C52  1  0.09052828  0.45933988  0.13038929  1  0.408374  0  -0.14779  -0.170992  0  3.902733  0
C  C53  1  0.27997823  0.84637365  0.42813802  1  0.353397  0  -0.146617  -0.173757  0  3.919719  0
C  C54  1  0.50435222  0.23666097  0.48558267  1  0.349203  0  -0.126228  -0.178158  0  3.85283  0
C  C55  1  0.54426468  0.28254831  0.22593204  1  0.398058  0  -0.141682  -0.166342  0  3.909727  0
C  C56  1  0.30117564  0.85501407  0.10116665  1  0.357171  0  -0.142325  -0.179556  0  3.914781  0
C  C57  1  0.35201699  0.49415272  0.87915678  1  0.020291  0  -0.013688  0.094972  0  4.071192  0
C  C58  1  0.56993256  0.45064969  0.02164204  1  0.014926  0  -0.012165  -0.026204  0  3.987956  0
C  C59  1  0.62484450  0.40947719  0.93605686  1  -0.021501  0  -0.021082  -0.096712  0  3.976007  0
C  C60  1  0.52194335  0.38231269  0.82426761  1  0.310426  0  0.078023  0.244252  0  4.089573  0
C  C61  1  0.38938542  0.41780583  0.80091049  1  0.015937  0  -0.124658  -0.279725  0  3.981942  0
C  C62  1  0.64113393  0.42233092  0.13074914  1  0.527461  0  0.080852  0.188573  0  3.979411  0
C  C63  1  0.84608834  0.38300364  0.08121433  1  0.568807  0  0.068896  0.137767  0  4.024086  0
N  N64  1  0.31373745  0.45072450  0.46539948  1  -1.255281  0  -0.516548  -0.593377  0  3.243556  0
N  N65  1  0.68600694  0.53035053  0.54844384  1  -1.242417  0  -0.483128  -0.538835  0  3.251451  0
N  N66  1  0.93581635  0.88862103  0.60329559  1  -1.236814  0  -0.597887  -0.597852  0  3.363437  0
N  N67  1  0.45700181  0.56530341  0.63247146  1  -1.269028  0  -0.559514  -0.590301  0  3.313207  0
N  N68  1  0.55251769  0.31486545  0.73914085  1  -1.220022  0  -0.608495  -0.627631  0  3.330303  0
N  N69  1  0.82689090  0.34180583  0.88666258  1  -1.187037  0  -0.600683  -0.60267  0  3.306617  0
N  N70  1  0.07173087  0.68055355  0.89663381  1  -1.225524  0  -0.605949  -0.61652  0  3.347921  0
N  N71  1  0.50093751  0.63085188  0.17995409  1  -1.257047  0  -0.602803  -0.604836  0  3.344825  0
N  N72  1  0.18094381  0.10118150  0.53053356  1  -1.267228  0  -0.603997  -0.615582  0  3.33169  0
O  O73  1  0.94186961  0.66839963  0.52423927  1  -1.167942  0  -0.318298  -0.550516  0  2.382943  0
O  O74  1  0.14014408  0.88002180  0.40970993  1  -1.053709  0  -0.213717  -0.171684  0  2.575256  0
O  O75  1  0.56507761  0.35043537  0.46233129  1  -1.076221  0  -0.152339  -0.144497  0  2.640893  0
O  O76  1  0.55650628  0.40432820  0.19742369  1  -1.078747  0  -0.20234  -0.190721  0  2.614772  0
O  O77  1  0.25997366  0.72928438  0.11012316  1  -1.075251  0  -0.214635  -0.188588  0  2.532217  0
O  O78  1  0.09382452  0.63727323  0.42932042  1  -1.164571  0  -0.319892  -0.540218  0  2.342719  0
O  O79  1  0.99986431  0.52201238  0.70230915  1  -1.176295  0  -0.320944  -0.561967  0  2.270057  0
O  O80  1  0.19315871  0.55078049  0.64846863  1  -1.191984  0  -0.314389  -0.574516  0  2.36088  0
O  O81  1  0.86293852  0.30972192  0.54856948  1  -1.165608  0  -0.330985  -0.560335  0  2.286096  0
O  O82  1  0.08822414  0.31259462  0.54535079  1  -1.181388  0  -0.326277  -0.57662  0  2.359677  0
O  O83  1  0.80885826  0.45616158  0.35682255  1  -1.166891  0  -0.318211  -0.56423  0  2.369058  0
O  O84  1  0.99381999  0.38680872  0.32004627  1  -1.157599  0  -0.320941  -0.538897  0  2.313145  0
O  O85  1  0.98245305  0.35503374  0.10341041  1  -1.072379  0  -0.216393  -0.193382  0  2.551285  0
