# generated using pymatgen
data_ZnH8C10(NCl)2
_symmetry_space_group_name_H-M   'P 1'
_cell_length_a   3.63109688
_cell_length_b   11.39045429
_cell_length_c   11.74220627
_cell_angle_alpha   89.99951875
_cell_angle_beta   89.99979842
_cell_angle_gamma   90.00058341
_symmetry_Int_Tables_number   1
_chemical_formula_structural   ZnH8C10(NCl)2
_chemical_formula_sum   'Zn2 H16 C20 N4 Cl4'
_cell_volume   485.65580824
_cell_formula_units_Z   2
loop_
 _symmetry_equiv_pos_site_id
 _symmetry_equiv_pos_as_xyz
  1  'x, y, z'
loop_
 _atom_site_type_symbol
 _atom_site_label
 _atom_site_symmetry_multiplicity
 _atom_site_fract_x
 _atom_site_fract_y
 _atom_site_fract_z
 _atom_site_occupancy
 _atom_site_hle17_bader_spin_density
 _atom_site_hle17_ddec_charge
 _atom_site_hle17_ddec_spin_density
 _atom_site_hle17_ddec_sum_bond_order
 _atom_site_hle17_magmom
 _atom_site_hse06_10hf_bader_spin_density
 _atom_site_hse06_10hf_ddec_charge
 _atom_site_hse06_10hf_ddec_spin_density
 _atom_site_hse06_10hf_ddec_sum_bond_order
 _atom_site_hse06_10hf_magmom
 _atom_site_hse06_bader_spin_density
 _atom_site_hse06_ddec_charge
 _atom_site_hse06_ddec_spin_density
 _atom_site_hse06_ddec_sum_bond_order
 _atom_site_hse06_magmom
 _atom_site_pbe_bader_spin_density
 _atom_site_pbe_cm5_charge
 _atom_site_pbe_ddec_charge
 _atom_site_pbe_ddec_spin_density
 _atom_site_pbe_ddec_sum_bond_order
 _atom_site_pbe_magmom
Zn  Zn0  1  0.50000215  0.74999927  0.74999970  1  0  0.846103  0  1.98144  0  0  0.688047  0  2.396149  0  0  0.729749  0  2.358475  0  0  0.52632  0.658488  0  2.422651  0
Zn  Zn1  1  0.49999182  0.24999943  0.25000029  1  0  0.846087  0  1.981413  0  0  0.688008  0  2.39613  0  0  0.729717  0  2.358458  0  0  0.52631  0.65845  0  2.422646  0
H  H2  1  0.68034995  0.33452963  0.57402414  1  0  0.110807  0  0.987793  0  0  0.117451  0  1.056646  0  0  0.120807  0  1.05527  0  0  0.093497  0.11495  0  1.057922  0
H  H3  1  0.68033974  0.16547163  0.92597572  1  0  0.110832  0  0.987686  0  0  0.117467  0  1.05655  0  0  0.120808  0  1.05519  0  0  0.093503  0.114966  0  1.057829  0
H  H4  1  0.31961060  0.16546817  0.57402502  1  0  0.110829  0  0.987813  0  0  0.117487  0  1.056641  0  0  0.120805  0  1.055307  0  0  0.093501  0.114991  0  1.057915  0
H  H5  1  0.31959187  0.33452838  0.92597608  1  0  0.110789  0  0.987628  0  0  0.117461  0  1.056459  0  0  0.120779  0  1.055124  0  0  0.093499  0.114962  0  1.057737  0
H  H6  1  0.31965504  0.66547346  0.42597500  1  0  0.110889  0  0.987635  0  0  0.117515  0  1.056505  0  0  0.120842  0  1.05516  0  0  0.093512  0.115013  0  1.057782  0
H  H7  1  0.31964598  0.83452707  0.07402427  1  0  0.110847  0  0.98763  0  0  0.117483  0  1.05649  0  0  0.120813  0  1.055143  0  0  0.0935  0.114979  0  1.057769  0
H  H8  1  0.68040266  0.83452965  0.42597327  1  0  0.110774  0  0.987862  0  0  0.117454  0  1.056669  0  0  0.120771  0  1.055336  0  0  0.093497  0.114962  0  1.057942  0
H  H9  1  0.68040211  0.66546769  0.07402647  1  0  0.110762  0  0.987871  0  0  0.117459  0  1.056673  0  0  0.120778  0  1.055336  0  0  0.093489  0.114952  0  1.057959  0
H  H10  1  0.67284592  0.55299058  0.58256424  1  0  0.075584  0  0.970773  0  0  0.085383  0  1.035769  0  0  0.087418  0  1.034099  0  0  0.103438  0.083819  0  1.037077  0
H  H11  1  0.67283906  0.94700853  0.91743498  1  0  0.075548  0  0.970656  0  0  0.085348  0  1.035669  0  0  0.087382  0  1.034  0  0  0.10341  0.083783  0  1.036985  0
H  H12  1  0.32716312  0.94700502  0.58256453  1  0  0.075562  0  0.97077  0  0  0.085345  0  1.035772  0  0  0.087385  0  1.034096  0  0  0.103417  0.083782  0  1.037082  0
H  H13  1  0.32714125  0.55299382  0.91743761  1  0  0.075547  0  0.970706  0  0  0.085335  0  1.035711  0  0  0.08737  0  1.034043  0  0  0.103431  0.083767  0  1.037024  0
H  H14  1  0.32715081  0.44700900  0.41743234  1  0  0.075553  0  0.97069  0  0  0.085337  0  1.035719  0  0  0.08738  0  1.034041  0  0  0.103388  0.08379  0  1.037009  0
H  H15  1  0.32713289  0.05299193  0.08256842  1  0  0.075565  0  0.970644  0  0  0.085365  0  1.035658  0  0  0.087399  0  1.033988  0  0  0.103433  0.083817  0  1.036951  0
H  H16  1  0.67283362  0.05299017  0.41743802  1  0  0.075584  0  0.970849  0  0  0.085382  0  1.035826  0  0  0.087416  0  1.034158  0  0  0.103449  0.083818  0  1.037135  0
H  H17  1  0.67285549  0.44700839  0.08256409  1  0  0.075641  0  0.970894  0  0  0.085446  0  1.035843  0  0  0.087476  0  1.034179  0  0  0.103477  0.083888  0  1.037142  0
C  C18  1  0.59579170  0.37860202  0.65223077  1  0  -0.155694  0  3.684801  0  0  -0.172904  0  3.932634  0  0  -0.180454  0  3.953485  0  0  -0.084614  -0.168016  0  3.918679  0
C  C19  1  0.59578105  0.12139458  0.84776407  1  0  -0.155808  0  3.684953  0  0  -0.173015  0  3.932815  0  0  -0.180556  0  3.953676  0  0  -0.084675  -0.168125  0  3.918859  0
C  C20  1  0.40416517  0.12139159  0.65223192  1  0  -0.155837  0  3.685022  0  0  -0.173062  0  3.932849  0  0  -0.180587  0  3.95373  0  0  -0.084677  -0.168176  0  3.918886  0
C  C21  1  0.40415424  0.37861578  0.84776568  1  0  -0.155772  0  3.685007  0  0  -0.173042  0  3.932886  0  0  -0.180565  0  3.953762  0  0  -0.084694  -0.168156  0  3.918924  0
C  C22  1  0.40422155  0.62139141  0.34776070  1  0  -0.155963  0  3.684859  0  0  -0.173149  0  3.932748  0  0  -0.18068  0  3.953623  0  0  -0.08472  -0.168257  0  3.918791  0
C  C23  1  0.40421018  0.87861115  0.15223678  1  0  -0.155891  0  3.684925  0  0  -0.173059  0  3.932836  0  0  -0.180589  0  3.953703  0  0  -0.084687  -0.168167  0  3.918881  0
C  C24  1  0.59584533  0.87861238  0.34777063  1  0  -0.155805  0  3.685052  0  0  -0.17301  0  3.932948  0  0  -0.180531  0  3.953821  0  0  -0.084727  -0.168127  0  3.918982  0
C  C25  1  0.59584524  0.62139170  0.15222920  1  0  -0.155689  0  3.685206  0  0  -0.172942  0  3.933049  0  0  -0.180464  0  3.953922  0  0  -0.084684  -0.168048  0  3.919089  0
C  C26  1  0.59346370  0.50047423  0.65608731  1  0  0.134506  0  3.695184  0  0  0.101685  0  3.944279  0  0  0.108857  0  3.962992  0  0  0.041245  0.097088  0  3.931491  0
C  C27  1  0.59347586  0.99953077  0.84391029  1  0  0.134593  0  3.695141  0  0  0.101772  0  3.944258  0  0  0.108942  0  3.962967  0  0  0.041272  0.097178  0  3.931477  0
C  C28  1  0.40651142  0.99952337  0.65608879  1  0  0.134555  0  3.695664  0  0  0.101786  0  3.944715  0  0  0.108951  0  3.96342  0  0  0.041307  0.097191  0  3.931932  0
C  C29  1  0.40651082  0.50047222  0.84391327  1  0  0.134536  0  3.695697  0  0  0.101779  0  3.944753  0  0  0.108948  0  3.963464  0  0  0.041261  0.097186  0  3.931964  0
C  C30  1  0.40652477  0.49952535  0.34390843  1  0  0.134508  0  3.695242  0  0  0.10171  0  3.944323  0  0  0.10887  0  3.96303  0  0  0.041263  0.097108  0  3.931525  0
C  C31  1  0.40652363  0.00047496  0.15609226  1  0  0.134637  0  3.695435  0  0  0.101823  0  3.944539  0  0  0.109003  0  3.963251  0  0  0.041291  0.097214  0  3.931742  0
C  C32  1  0.59348256  0.00047445  0.34391717  1  0  0.13446  0  3.695814  0  0  0.101675  0  3.944884  0  0  0.108858  0  3.96359  0  0  0.041191  0.097078  0  3.932099  0
C  C33  1  0.59350519  0.49952648  0.15608247  1  0  0.134379  0  3.695838  0  0  0.101575  0  3.944906  0  0  0.108745  0  3.963616  0  0  0.041197  0.09698  0  3.932113  0
C  C34  1  0.49995959  0.31479011  0.74999806  1  0  0.09843  0  3.744892  0  0  0.111036  0  3.972003  0  0  0.115112  0  3.992786  0  0  0.012528  0.108524  0  3.957741  0
C  C35  1  0.49996859  0.18521407  0.75000370  1  0  0.098467  0  3.744993  0  0  0.11106  0  3.972114  0  0  0.115139  0  3.992893  0  0  0.01259  0.108555  0  3.957851  0
C  C36  1  0.50005367  0.68521122  0.24999427  1  0  0.098533  0  3.744891  0  0  0.111109  0  3.97213  0  0  0.115188  0  3.992905  0  0  0.01261  0.108596  0  3.957869  0
C  C37  1  0.50005017  0.81479078  0.25000141  1  0  0.098595  0  3.744707  0  0  0.111077  0  3.972043  0  0  0.115155  0  3.992817  0  0  0.012626  0.108571  0  3.957781  0
N  N38  1  0.49999096  0.56124033  0.75000472  1  0  -0.314254  0  3.316914  0  0  -0.231183  0  3.571979  0  0  -0.251641  0  3.593481  0  0  -0.323855  -0.217248  0  3.556911  0
N  N39  1  0.49999683  0.93875557  0.74999808  1  0  -0.314231  0  3.316934  0  0  -0.231183  0  3.572067  0  0  -0.251641  0  3.593577  0  0  -0.323878  -0.217247  0  3.557  0
N  N40  1  0.50001128  0.43875749  0.24999442  1  0  -0.314117  0  3.31686  0  0  -0.231004  0  3.571896  0  0  -0.251454  0  3.593396  0  0  -0.323784  -0.217076  0  3.556847  0
N  N41  1  0.49999715  0.06123611  0.25000617  1  0  -0.314262  0  3.317191  0  0  -0.231197  0  3.572296  0  0  -0.251694  0  3.593853  0  0  -0.323779  -0.217251  0  3.557236  0
Cl  Cl42  1  0.00000536  0.74999732  0.60144440  1  0  -0.537548  0  1.096833  0  0  -0.487032  0  1.391944  0  0  -0.501505  0  1.370989  0  0  -0.258921  -0.476146  0  1.406831  0
Cl  Cl43  1  0.00000085  0.75000130  0.89855382  1  0  -0.537548  0  1.096852  0  0  -0.487027  0  1.391963  0  0  -0.501502  0  1.371012  0  0  -0.258912  -0.47613  0  1.406832  0
Cl  Cl44  1  0.99999413  0.25000313  0.39855559  1  0  -0.53754  0  1.096796  0  0  -0.487028  0  1.391929  0  0  -0.501505  0  1.370984  0  0  -0.258924  -0.476139  0  1.406819  0
Cl  Cl45  1  0.99999313  0.24999652  0.10144532  1  0  -0.537543  0  1.096835  0  0  -0.487025  0  1.391952  0  0  -0.501495  0  1.370992  0  0  -0.258917  -0.476137  0  1.406845  0
