# generated using pymatgen
data_Cu2SiH16(C7O2)4
_symmetry_space_group_name_H-M   'P 1'
_cell_length_a   12.44687538
_cell_length_b   12.44688163
_cell_length_c   24.38921841
_cell_angle_alpha   90.00009598
_cell_angle_beta   90.00003615
_cell_angle_gamma   89.99998673
_symmetry_Int_Tables_number   1
_chemical_formula_structural   Cu2SiH16(C7O2)4
_chemical_formula_sum   'Cu4 Si2 H32 C56 O16'
_cell_volume   3778.49440538
_cell_formula_units_Z   2
loop_
 _symmetry_equiv_pos_site_id
 _symmetry_equiv_pos_as_xyz
  1  'x, y, z'
loop_
 _atom_site_type_symbol
 _atom_site_label
 _atom_site_symmetry_multiplicity
 _atom_site_fract_x
 _atom_site_fract_y
 _atom_site_fract_z
 _atom_site_occupancy
 _atom_site_pbe_bader_charge
 _atom_site_pbe_bader_spin_density
 _atom_site_pbe_cm5_charge
 _atom_site_pbe_ddec_charge
 _atom_site_pbe_ddec_spin_density
 _atom_site_pbe_ddec_sum_bond_order
 _atom_site_pbe_magmom
Cu  Cu0  1  0.90146617  0.50000067  0.99999919  1  1.014526  0.510482  0.700561  0.831048  0.673315  2.20983  0.509
Cu  Cu1  1  0.09853935  0.50000157  0.99999906  1  1.051978  -0.51045  0.700537  0.831063  -0.673273  2.210336  -0.509
Cu  Cu2  1  0.50000039  0.90147073  0.50000009  1  1.051996  -0.51048  0.700592  0.831052  -0.673298  2.210065  -0.509
Cu  Cu3  1  0.50000049  0.09852263  0.49999974  1  1.014353  0.510387  0.700562  0.830977  0.673209  2.210723  0.509
Si  Si4  1  0.99999966  0.00000043  0.75000230  1  2.676362  0.0  0.137324  0.675845  0.0  3.871852  0.0
Si  Si5  1  0.00000016  0.00000202  0.24999735  1  2.676392  -0.0  0.137354  0.67587  -0.0  3.87191  0.0
H  H6  1  0.82643592  0.87043370  0.80261048  1  0.039514  -0.000226  0.101386  0.091445  -0.000121  1.007099  0.0
H  H7  1  0.82738723  0.73206663  0.87598506  1  0.108939  0.000379  0.108651  0.115456  0.000326  0.990827  0.0
H  H8  1  0.17356212  0.12956869  0.80261088  1  0.039413  0.000226  0.101352  0.0914  0.000122  1.007078  0.0
H  H9  1  0.17261331  0.26793600  0.87598557  1  0.108933  -0.000379  0.108663  0.115481  -0.000326  0.990794  0.0
H  H10  1  0.12956514  0.82643559  0.30260950  1  0.039506  0.000224  0.101369  0.091488  0.000119  1.007173  0.0
H  H11  1  0.26793244  0.82739176  0.37598333  1  0.108996  -0.000379  0.108647  0.115477  -0.000326  0.990903  0.0
H  H12  1  0.87043469  0.17356435  0.30261057  1  0.039537  -0.000224  0.101354  0.091418  -0.000119  1.007046  0.0
H  H13  1  0.73206908  0.17261084  0.37598354  1  0.108994  0.000379  0.108652  0.115445  0.000327  0.990874  0.0
H  H14  1  0.17356246  0.87043439  0.19738926  1  0.039546  0.000224  0.101334  0.091382  0.000119  1.007073  0.0
H  H15  1  0.17261359  0.73206628  0.12401415  1  0.108957  -0.000379  0.108666  0.115465  -0.000327  0.990759  0.0
H  H16  1  0.82643644  0.12956923  0.19739028  1  0.039401  -0.000224  0.101351  0.091482  -0.000119  1.007114  0.0
H  H17  1  0.82738762  0.26793629  0.12401529  1  0.108932  0.000379  0.10865  0.115444  0.000327  0.990841  0.0
H  H18  1  0.87043647  0.82643616  0.69739061  1  0.039517  0.000226  0.101367  0.091387  0.000121  1.007126  0.0
H  H19  1  0.73206836  0.82739212  0.62401637  1  0.108999  -0.000379  0.108647  0.115488  -0.000326  0.990894  0.0
H  H20  1  0.12956385  0.17356509  0.69738981  1  0.03951  -0.000226  0.101373  0.091413  -0.000122  1.007119  0.0
H  H21  1  0.26793026  0.17261210  0.62401601  1  0.108988  0.000379  0.108642  0.11545  0.000326  0.990856  0.0
H  H22  1  0.17356254  0.12956930  0.19739017  1  0.039407  0.000226  0.101335  0.091347  0.000122  1.007085  0.0
H  H23  1  0.17261365  0.26793637  0.12401478  1  0.108933  -0.00038  0.108674  0.115509  -0.000326  0.990785  0.0
H  H24  1  0.82643635  0.87043431  0.19738936  1  0.039526  -0.000226  0.101362  0.091437  -0.000121  1.007049  0.0
H  H25  1  0.82738676  0.73206620  0.12401426  1  0.108935  0.000379  0.108654  0.115471  0.000326  0.990815  0.0
H  H26  1  0.87043574  0.17356500  0.69738993  1  0.03951  -0.000224  0.101374  0.091409  -0.000119  1.007114  0.0
H  H27  1  0.73206924  0.17261124  0.62401609  1  0.108997  0.000379  0.108648  0.115455  0.000327  0.990861  0.0
H  H28  1  0.12956378  0.82643624  0.69739091  1  0.039523  0.000224  0.101371  0.091407  0.000119  1.007115  0.0
H  H29  1  0.26793179  0.82739217  0.62401670  1  0.10901  -0.000379  0.108661  0.115495  -0.000326  0.99089  0.0
H  H30  1  0.82643601  0.12956942  0.80261057  1  0.0394  -0.000224  0.101343  0.091363  -0.000119  1.007075  0.0
H  H31  1  0.82738728  0.26793592  0.87598486  1  0.108932  0.000379  0.108677  0.115491  0.000327  0.990824  0.0
H  H32  1  0.17356203  0.87043378  0.80261078  1  0.039286  0.000224  0.101348  0.091414  0.000119  1.007085  0.0
H  H33  1  0.17261246  0.73206591  0.87598577  1  0.108951  -0.000379  0.10865  0.115453  -0.000327  0.990821  0.0
H  H34  1  0.12956522  0.17356524  0.30261086  1  0.039531  -0.000226  0.101373  0.091422  -0.000122  1.007076  0.0
H  H35  1  0.26793011  0.17261009  0.37598387  1  0.108996  0.000379  0.108661  0.115447  0.000326  0.99088  0.0
H  H36  1  0.87043542  0.82643551  0.30260962  1  0.039499  0.000226  0.101372  0.091403  0.000121  1.007149  0.0
H  H37  1  0.73206821  0.82739171  0.37598341  1  0.108997  -0.000379  0.108649  0.115478  -0.000326  0.990907  0.0
C  C38  1  0.90298206  0.84005181  0.81806362  1  -0.11684  -0.000674  -0.082018  -0.068111  -0.000497  4.019552  -0.001
C  C39  1  0.90257476  0.76269515  0.85932731  1  -0.050681  -0.001035  -0.079512  -0.08689  -0.00063  3.951243  -0.001
C  C40  1  0.09701761  0.15995144  0.81806402  1  -0.116381  0.000674  -0.081988  -0.067999  0.000497  4.019441  0.001
C  C41  1  0.09742335  0.23730823  0.85932614  1  -0.050674  0.001034  -0.079514  -0.086951  0.000629  3.951458  0.001
C  C42  1  0.15994385  0.90298491  0.31806308  1  -0.116716  0.000702  -0.082005  -0.068157  0.000515  4.019577  0.001
C  C43  1  0.23730466  0.90257683  0.35932928  1  -0.05123  0.001044  -0.079553  -0.087001  0.000635  3.951351  0.001
C  C44  1  0.84005600  0.09701428  0.31806531  1  -0.116701  -0.000702  -0.082024  -0.068091  -0.000515  4.019414  -0.001
C  C45  1  0.76269444  0.09742089  0.35933066  1  -0.051223  -0.001043  -0.079512  -0.086845  -0.000633  3.95126  -0.001
C  C46  1  0.09701714  0.84005086  0.18193527  1  -0.116479  0.000702  -0.081995  -0.068012  0.000515  4.019481  0.001
C  C47  1  0.09742284  0.76269567  0.14067357  1  -0.050731  0.001041  -0.079499  -0.086881  0.000633  3.951425  0.001
C  C48  1  0.90298254  0.15995271  0.18193593  1  -0.116379  -0.000701  -0.082027  -0.06828  -0.000515  4.019647  -0.001
C  C49  1  0.90257518  0.23730856  0.14067347  1  -0.050648  -0.001042  -0.079463  -0.086743  -0.000634  3.951173  -0.001
C  C50  1  0.84005854  0.90298704  0.68193627  1  -0.116745  0.000674  -0.082033  -0.06801  0.000497  4.019503  0.001
C  C51  1  0.76269693  0.90257563  0.64067089  1  -0.050507  0.001036  -0.079523  -0.087029  0.000631  3.951256  0.001
C  C52  1  0.15994337  0.09701576  0.68193459  1  -0.116699  -0.000675  -0.081994  -0.068013  -0.000497  4.019318  -0.001
C  C53  1  0.23730412  0.09742061  0.64067006  1  -0.051114  -0.001035  -0.079536  -0.086962  -0.000629  3.951399  -0.001
C  C54  1  0.09701802  0.15995280  0.18193580  1  -0.116399  0.000674  -0.081981  -0.0679  0.000497  4.019347  0.001
C  C55  1  0.09742371  0.23730866  0.14067416  1  -0.050679  0.001035  -0.079522  -0.086988  0.000629  3.951449  0.001
C  C56  1  0.90298246  0.84005076  0.18193581  1  -0.116834  -0.000674  -0.081989  -0.068061  -0.000497  4.019497  -0.001
C  C57  1  0.90257512  0.76269477  0.14067328  1  -0.050698  -0.001035  -0.07953  -0.086925  -0.00063  3.951267  -0.001
C  C58  1  0.84005703  0.09701569  0.68193470  1  -0.116706  -0.000702  -0.081994  -0.06799  -0.000515  4.019299  -0.001
C  C59  1  0.76269622  0.09742055  0.64067014  1  -0.05055  -0.001042  -0.079555  -0.086998  -0.000633  3.951342  -0.001
C  C60  1  0.15994247  0.90298711  0.68193616  1  -0.116738  0.000702  -0.082032  -0.068054  0.000515  4.019517  0.001
C  C61  1  0.23730322  0.90257649  0.64067122  1  -0.050503  0.001043  -0.079521  -0.086998  0.000635  3.951265  0.001
C  C62  1  0.90298294  0.15995215  0.81806374  1  -0.116713  -0.000701  -0.081986  -0.067962  -0.000515  4.019446  -0.001
C  C63  1  0.90257562  0.23730814  0.85932709  1  -0.050646  -0.001042  -0.079519  -0.086951  -0.000634  3.95121  -0.001
C  C64  1  0.09701753  0.84005110  0.81806431  1  -0.116288  0.000702  -0.08198  -0.068065  0.000515  4.019478  0.001
C  C65  1  0.09742329  0.76269364  0.85932677  1  -0.05067  0.001041  -0.079518  -0.086895  0.000633  3.951434  0.001
C  C66  1  0.15994394  0.09701436  0.31806520  1  -0.116701  -0.000675  -0.08205  -0.068107  -0.000497  4.019462  -0.001
C  C67  1  0.23730555  0.09742095  0.35933058  1  -0.051208  -0.001036  -0.079518  -0.086849  -0.000629  3.951247  -0.001
C  C68  1  0.84005751  0.90298483  0.31806319  1  -0.116721  0.000674  -0.082023  -0.068023  0.000497  4.019457  0.001
C  C69  1  0.76269595  0.90257677  0.35932937  1  -0.051218  0.001037  -0.079565  -0.08701  0.000631  3.951322  0.001
C  C70  1  0.99999916  0.88042975  0.79684813  1  -0.568627  3.1e-05  -0.055377  -0.207411  2.1e-05  3.982479  0.0
C  C71  1  0.00000207  0.72408402  0.88039014  1  0.089547  1.8e-05  -0.0144  -0.021237  1.2e-05  3.955796  0.0
C  C72  1  0.99999766  0.64263144  0.92538228  1  1.510545  -0.0  0.218902  0.58034  -0.0  4.146406  0.0
C  C73  1  0.99999844  0.11957251  0.79684739  1  -0.568653  -3.1e-05  -0.055377  -0.207473  -2.1e-05  3.982462  0.0
C  C74  1  0.00000293  0.27591955  0.88038995  1  0.08956  -7e-06  -0.01445  -0.021264  -4e-06  3.955758  0.0
C  C75  1  0.99999850  0.35737204  0.92538216  1  1.510551  -1e-06  0.218962  0.580411  -0.0  4.146336  0.0
C  C76  1  0.11956353  0.00000128  0.29684758  1  -0.568473  3.1e-05  -0.055387  -0.207394  2.1e-05  3.982625  0.0
C  C77  1  0.27591515  0.99999886  0.38039437  1  0.090548  -0.0  -0.01429  -0.021103  -1e-06  3.955765  0.0
C  C78  1  0.35738141  0.99998687  0.42538476  1  1.510549  1e-06  0.21896  0.580249  1e-06  4.146629  0.0
C  C79  1  0.88043722  0.00000119  0.29684770  1  -0.568477  -3.1e-05  -0.055368  -0.207374  -2.1e-05  3.982657  0.0
C  C80  1  0.72408466  0.99999880  0.38039445  1  0.090568  -2.5e-05  -0.014307  -0.021161  -1.7e-05  3.955869  0.0
C  C81  1  0.64261846  0.99998603  0.42538480  1  1.510552  -1e-06  0.218965  0.580233  0.0  4.146742  0.0
C  C82  1  0.99999879  0.88042958  0.20315260  1  -0.568642  3.1e-05  -0.055363  -0.207448  2.1e-05  3.98246  0.0
C  C83  1  0.00000160  0.72408437  0.11960972  1  0.089567  1.8e-05  -0.01443  -0.021293  1.2e-05  3.955754  0.0
C  C84  1  0.99999713  0.64263085  0.07461742  1  1.510555  0.0  0.218963  0.580448  0.0  4.146355  0.0
C  C85  1  0.99999968  0.11957234  0.20315186  1  -0.568974  -3.1e-05  -0.0554  -0.207493  -2.1e-05  3.982536  0.0
C  C86  1  0.00000245  0.27591911  0.11960994  1  0.089556  -7e-06  -0.014436  -0.021313  -4e-06  3.955773  0.0
C  C87  1  0.99999797  0.35737225  0.07461812  1  1.510551  -1e-06  0.219018  0.580551  -1e-06  4.146286  0.0
C  C88  1  0.88043747  0.00000025  0.70315224  1  -0.568509  -3.1e-05  -0.05541  -0.207428  -2.1e-05  3.982596  0.0
C  C89  1  0.72408492  0.00000094  0.61960710  1  0.089195  -2.5e-05  -0.014286  -0.021083  -1.7e-05  3.955712  0.0
C  C90  1  0.64261935  0.99998628  0.57461591  1  1.510678  -0.0  0.219002  0.580417  0.0  4.146604  0.0
C  C91  1  0.11956297  0.00000034  0.70315252  1  -0.568491  3.1e-05  -0.055383  -0.207382  2.1e-05  3.982555  0.0
C  C92  1  0.27591542  0.00000179  0.61960703  1  0.089733  1e-06  -0.014338  -0.021149  -1e-06  3.955796  0.0
C  C93  1  0.35737989  0.99998711  0.57461586  1  1.510689  1e-06  0.219015  0.580418  1e-06  4.14657  0.0
O  O94  1  0.90831362  0.61099705  0.94277477  1  -1.089917  0.091224  -0.315384  -0.519976  0.06011  2.324872  0.083
O  O95  1  0.09168781  0.38901143  0.94277701  1  -1.089548  -0.091231  -0.315394  -0.520051  -0.060112  2.324722  -0.083
O  O96  1  0.38901025  0.90831012  0.44277438  1  -1.089796  -0.091199  -0.315419  -0.519949  -0.060092  2.325155  -0.082
O  O97  1  0.61098413  0.09168226  0.44277652  1  -1.089654  0.091231  -0.315408  -0.519975  0.060112  2.324785  0.083
O  O98  1  0.09168804  0.61099167  0.05722187  1  -1.089514  -0.091234  -0.315396  -0.520081  -0.060115  2.324705  -0.083
O  O99  1  0.90831470  0.38900586  0.05722478  1  -1.089903  0.091219  -0.315424  -0.520091  0.060106  2.324885  0.083
O  O100  1  0.61099214  0.90831108  0.55722539  1  -1.089926  -0.091195  -0.315447  -0.520043  -0.060089  2.325272  -0.082
O  O101  1  0.38901443  0.09168247  0.55722296  1  -1.089652  0.091234  -0.315438  -0.520047  0.060114  2.324659  0.083
O  O102  1  0.09168726  0.38901158  0.05722219  1  -1.089517  -0.091236  -0.315398  -0.520091  -0.060115  2.324673  -0.083
O  O103  1  0.90831548  0.61099720  0.05722446  1  -1.089904  0.091216  -0.315389  -0.519988  0.060105  2.324883  0.083
O  O104  1  0.61098581  0.09168084  0.55722259  1  -1.089633  0.091229  -0.315414  -0.520036  0.060111  2.324696  0.083
O  O105  1  0.38900872  0.90831111  0.55722536  1  -1.08991  -0.091193  -0.315426  -0.52003  -0.060088  2.325239  -0.082
O  O106  1  0.90831445  0.38900571  0.94277509  1  -1.089909  0.09122  -0.315373  -0.520004  0.060107  2.324915  0.083
O  O107  1  0.09168698  0.61099152  0.94277710  1  -1.089523  -0.091229  -0.315367  -0.520029  -0.060111  2.324728  -0.083
O  O108  1  0.38901597  0.09168228  0.44277690  1  -1.089666  0.091233  -0.315404  -0.519968  0.060113  2.324747  0.083
O  O109  1  0.61098966  0.90830929  0.44277441  1  -1.089821  -0.091201  -0.315413  -0.519925  -0.060093  2.325215  -0.082
