# generated using pymatgen
data_Al4H13C39N3O20
_symmetry_space_group_name_H-M   'P 1'
_cell_length_a   6.68633186
_cell_length_b   16.67088012
_cell_length_c   18.60660119
_cell_angle_alpha   74.30958536
_cell_angle_beta   89.70249359
_cell_angle_gamma   89.74956198
_symmetry_Int_Tables_number   1
_chemical_formula_structural   Al4H13C39N3O20
_chemical_formula_sum   'Al4 H13 C39 N3 O20'
_cell_volume   1996.70200010
_cell_formula_units_Z   1
loop_
 _symmetry_equiv_pos_site_id
 _symmetry_equiv_pos_as_xyz
  1  'x, y, z'
loop_
 _atom_site_type_symbol
 _atom_site_label
 _atom_site_symmetry_multiplicity
 _atom_site_fract_x
 _atom_site_fract_y
 _atom_site_fract_z
 _atom_site_occupancy
 _atom_site_pbe_bader_charge
 _atom_site_pbe_bader_spin_density
 _atom_site_pbe_cm5_charge
 _atom_site_pbe_ddec_charge
 _atom_site_pbe_ddec_spin_density
 _atom_site_pbe_ddec_sum_bond_order
 _atom_site_pbe_magmom
Al  Al0  1  0.11196491  0.50264329  0.50269599  1  2.501952  0  0.402007  1.640914  0  2.578071  0
Al  Al1  1  0.61055888  0.50294649  0.50002245  1  2.501543  0  0.403191  1.64195  0  2.576422  0
Al  Al2  1  0.62451133  0.00127450  0.99786361  1  2.501767  0  0.403436  1.643632  0  2.571138  0
Al  Al3  1  0.12623934  0.00315084  0.99889649  1  2.50135  0  0.404258  1.640136  0  2.577775  0
H  H4  1  0.59176735  0.64289769  0.26808568  1  0.100822  0  0.120581  0.128805  0  0.981555  0
H  H5  1  0.19174838  0.89259151  0.27162438  1  0.111225  0  0.11499  0.135551  0  0.956126  0
H  H6  1  0.33901770  0.84806199  0.21134201  1  0.092526  0  0.105794  0.127676  0  1.004867  0
H  H7  1  0.34582592  0.71116353  0.30682852  1  0.11336  0  0.124119  0.116161  0  0.967997  0
H  H8  1  0.08744293  0.35403374  0.73027012  1  0.097009  0  0.113757  0.117667  0  0.988074  0
H  H9  1  0.09886979  0.23579419  0.84551326  1  0.078089  0  0.111353  0.115088  0  0.994271  0
H  H10  1  0.71898012  0.22734253  0.62297616  1  0.080923  0  0.110061  0.127718  0  0.963429  0
H  H11  1  0.85080166  0.29373720  0.66727819  1  0.069918  0  0.105004  0.125058  0  1.000174  0
H  H12  1  0.86225168  0.17916862  0.78613004  1  0.124214  0  0.120482  0.112619  0  0.971216  0
H  H13  1  0.35878519  0.60971171  0.49675363  1  0.625207  0  0.345025  0.43125  0  0.868815  0
H  H14  1  0.86372680  0.40322679  0.48971539  1  0.608524  0  0.35401  0.432012  0  0.851642  0
H  H15  1  0.37314807  0.89149068  0.02712780  1  0.6407  0  0.341731  0.430937  0  0.870968  0
H  H16  1  0.86986323  0.09871204  0.01703873  1  0.624652  0  0.352287  0.432123  0  0.852998  0
C  C17  1  0.36266711  0.41143602  0.41890166  1  1.699233  0  0.275179  0.700309  0  4.182449  0
C  C18  1  0.36207946  0.39325060  0.61669787  1  1.578411  0  0.271095  0.648049  0  4.107757  0
C  C19  1  0.85724340  0.59215668  0.58322167  1  1.675645  0  0.281603  0.710423  0  4.166074  0
C  C20  1  0.86366905  0.60906347  0.38282859  1  1.62046  0  0.269881  0.643342  0  4.115631  0
C  C21  1  0.02571991  0.73215876  0.29264457  1  -0.077001  0  0.01517  0.041395  0  3.857625  0
C  C22  1  0.86968507  0.67546406  0.31067974  1  0.03337  0  0.002744  -0.050966  0  3.966356  0
C  C23  1  0.71453404  0.68741418  0.25825039  1  0.021308  0  -0.059623  -0.123465  0  3.9075  0
C  C24  1  0.71594401  0.75426209  0.19299963  1  0.07872  0  0.017867  0.038629  0  4.050692  0
C  C25  1  0.87186691  0.81463067  0.17803608  1  0.02572  0  0.014417  -0.083165  0  3.887149  0
C  C26  1  0.02462780  0.80082526  0.23021223  1  0.070704  0  0.008994  0.076155  0  3.900717  0
C  C27  1  0.21575986  0.83699464  0.25175948  1  -0.032646  0  -0.13001  -0.220468  0  3.783468  0
C  C28  1  0.23016464  0.75338518  0.31815664  1  0.096937  0  -0.040328  -0.038399  0  3.896817  0
C  C29  1  0.88539484  0.86480149  0.86385150  1  0.363794  0  0.012247  -0.117303  0  3.808733  0
C  C30  1  0.88062725  0.82050731  0.82096290  1  -0.390383  0  0.007891  0.047743  0  4.215503  0
C  C31  1  0.87396890  0.77296194  0.77336680  1  0.03762  0  0.016398  0.018422  0  4.154591  0
C  C32  1  0.86669966  0.72978292  0.72904650  1  0.017581  0  0.008005  -0.000514  0  4.161723  0
C  C33  1  0.86044655  0.68352113  0.68034986  1  -0.293906  0  0.0053  0.050315  0  4.236239  0
C  C34  1  0.85548601  0.64143715  0.63554246  1  0.19832  0  -0.001316  -0.148246  0  3.829975  0
C  C35  1  0.36051333  0.36006673  0.36798625  1  0.126037  0  -0.001369  -0.142092  0  3.832723  0
C  C36  1  0.36149979  0.31666861  0.32424980  1  -0.270721  0  -0.004576  0.034006  0  4.25517  0
C  C37  1  0.36374491  0.26946268  0.27626094  1  0.036095  0  0.004123  0.000576  0  4.179398  0
C  C38  1  0.36688549  0.22625512  0.23191579  1  0.029345  0  0.004607  0.00346  0  4.179162  0
C  C39  1  0.36988718  0.17953086  0.18353269  1  -0.295608  0  -0.00737  0.028448  0  4.259115  0
C  C40  1  0.37246969  0.13692943  0.13912681  1  0.185206  0  -0.001917  -0.139596  0  3.836409  0
C  C41  1  0.53288826  0.27079258  0.70394002  1  -0.041167  0  0.002411  0.068042  0  3.902604  0
C  C42  1  0.37110332  0.32564448  0.68749118  1  0.027664  0  -0.003856  -0.071731  0  3.963031  0
C  C43  1  0.21482115  0.31147999  0.74050739  1  -0.026799  0  -0.075699  -0.095154  0  3.977054  0
C  C44  1  0.22074553  0.24509995  0.80498302  1  -0.059188  0  -0.078591  -0.103026  0  3.980053  0
C  C45  1  0.38253280  0.18850894  0.82034017  1  -0.000171  0  -0.002411  -0.065503  0  3.969113  0
C  C46  1  0.53773609  0.20462486  0.76833002  1  0.014874  0  0.006234  0.02955  0  3.860626  0
C  C47  1  0.74043940  0.17308371  0.74851545  1  0.074532  0  -0.042437  -0.035608  0  3.886847  0
C  C48  1  0.72989380  0.24799968  0.67404316  1  -0.002045  0  -0.133643  -0.220772  0  3.804366  0
C  C49  1  0.38355648  0.11684507  0.88823239  1  1.593413  0  0.274645  0.648656  0  4.101773  0
C  C50  1  0.36932565  0.08812896  0.08597678  1  1.679515  0  0.271893  0.695866  0  4.188914  0
C  C51  1  0.87018269  0.88768303  0.11079698  1  1.596086  0  0.271486  0.64815  0  4.114628  0
C  C52  1  0.88487024  0.91707620  0.91374611  1  1.649979  0  0.282073  0.702368  0  4.169738  0
C  C53  1  0.55525042  0.75971894  0.14147410  1  0.83078  0  0.189786  0.243159  0  4.022045  0
C  C54  1  0.25680913  0.75668212  0.39454103  1  0.842611  0  0.184896  0.261773  0  3.958513  0
C  C55  1  0.74626935  0.09008787  0.73782199  1  0.844576  0  0.175324  0.256996  0  3.969225  0
N  N56  1  0.42067550  0.76201507  0.10111757  1  -1.129485  0  -0.295019  -0.34928  0  2.72525  0
N  N57  1  0.28217457  0.75560621  0.45677801  1  -1.127545  0  -0.304884  -0.364121  0  2.720294  0
N  N58  1  0.75047568  0.02428916  0.72719940  1  -1.130735  0  -0.3144  -0.375658  0  2.736098  0
O  O59  1  0.52977285  0.41658061  0.58531125  1  -1.255941  0  -0.230828  -0.586884  0  2.341897  0
O  O60  1  0.19344911  0.42992395  0.44190760  1  -1.227626  0  -0.224508  -0.576836  0  2.286531  0
O  O61  1  0.03279079  0.58595030  0.41225281  1  -1.249806  0  -0.227788  -0.581973  0  2.346574  0
O  O62  1  0.19012629  0.42028192  0.59227068  1  -1.254332  0  -0.232272  -0.588859  0  2.33308  0
O  O63  1  0.02853096  0.57212543  0.56311891  1  -1.228072  0  -0.22047  -0.575689  0  2.303273  0
O  O64  1  0.53396961  0.43317665  0.43627986  1  -1.226773  0  -0.224584  -0.57372  0  2.287577  0
O  O65  1  0.36080560  0.55316927  0.49135349  1  -1.428788  0  -0.449268  -1.001741  0  2.193933  0
O  O66  1  0.68857672  0.57264735  0.56114604  1  -1.235626  0  -0.224099  -0.579747  0  2.284336  0
O  O67  1  0.69159966  0.58467392  0.40876526  1  -1.242007  0  -0.230385  -0.58061  0  2.330089  0
O  O68  1  0.86201594  0.45245452  0.50807798  1  -1.408979  0  -0.447799  -0.991766  0  2.188506  0
O  O69  1  0.19777575  0.06331006  0.07188889  1  -1.224243  0  -0.226764  -0.575392  0  2.281182  0
O  O70  1  0.55215440  0.08257483  0.90829640  1  -1.253946  0  -0.224198  -0.575225  0  2.329689  0
O  O71  1  0.71588294  0.92923628  0.94105295  1  -1.230674  0  -0.220325  -0.573649  0  2.293201  0
O  O72  1  0.53695612  0.07550896  0.05802307  1  -1.22885  0  -0.227009  -0.57967  0  2.280318  0
O  O73  1  0.69971774  0.91853656  0.08905151  1  -1.247386  0  -0.228382  -0.588979  0  2.366107  0
O  O74  1  0.21696593  0.09633838  0.92149110  1  -1.254684  0  -0.230485  -0.588196  0  2.342204  0
O  O75  1  0.37480559  0.95205019  0.00810199  1  -1.441537  0  -0.448  -0.998543  0  2.186717  0
O  O76  1  0.03966289  0.91135941  0.08196949  1  -1.242233  0  -0.222943  -0.571853  0  2.335333  0
O  O77  1  0.05264882  0.94564496  0.92738799  1  -1.236783  0  -0.220013  -0.567443  0  2.275042  0
O  O78  1  0.87404332  0.05263011  0.99443391  1  -1.426632  0  -0.448787  -0.993285  0  2.179262  0
