# generated using pymatgen
data_KCdH24C15S3(NO2)3
_symmetry_space_group_name_H-M   'P 1'
_cell_length_a   10.43269705
_cell_length_b   10.43268159
_cell_length_c   10.59703749
_cell_angle_alpha   90.00041294
_cell_angle_beta   89.99992136
_cell_angle_gamma   90.85985545
_symmetry_Int_Tables_number   1
_chemical_formula_structural   KCdH24C15S3(NO2)3
_chemical_formula_sum   'K2 Cd2 H48 C30 S6 N6 O12'
_cell_volume   1153.26234521
_cell_formula_units_Z   2
loop_
 _symmetry_equiv_pos_site_id
 _symmetry_equiv_pos_as_xyz
  1  'x, y, z'
loop_
 _atom_site_type_symbol
 _atom_site_label
 _atom_site_symmetry_multiplicity
 _atom_site_fract_x
 _atom_site_fract_y
 _atom_site_fract_z
 _atom_site_occupancy
 _atom_site_pbe_bader_spin_density
 _atom_site_pbe_cm5_charge
 _atom_site_pbe_ddec_charge
 _atom_site_pbe_ddec_spin_density
 _atom_site_pbe_ddec_sum_bond_order
 _atom_site_pbe_magmom
K  K0  1  0.68438852  0.31561824  0.80209558  1  0  0.679626  0.796265  0  0.646083  0
K  K1  1  0.31560992  0.68439093  0.30209325  1  0  0.679616  0.796251  0  0.646111  0
Cd  Cd2  1  0.97119061  0.02881080  0.99496996  1  0  0.711791  0.804897  0  2.534226  0
Cd  Cd3  1  0.02881114  0.97118729  0.49497102  1  0  0.711802  0.804935  0  2.53418  0
H  H4  1  0.54922561  0.29139861  0.43768808  1  0  0.097324  0.05632  0  1.006475  0
H  H5  1  0.45077432  0.70860003  0.93768692  1  0  0.097335  0.056344  0  1.006389  0
H  H6  1  0.70860243  0.45077505  0.43768665  1  0  0.097313  0.056287  0  1.006543  0
H  H7  1  0.29139850  0.54922550  0.93768646  1  0  0.097312  0.05626  0  1.006571  0
H  H8  1  0.65862877  0.17356922  0.38187199  1  0  0.095389  0.063734  0  1.018585  0
H  H9  1  0.34137124  0.82642901  0.88186993  1  0  0.095385  0.063743  0  1.018552  0
H  H10  1  0.82643171  0.34137163  0.38186869  1  0  0.095382  0.063722  0  1.018571  0
H  H11  1  0.17357026  0.65862851  0.88186945  1  0  0.09538  0.063716  0  1.018539  0
H  H12  1  0.62740237  0.04830357  0.58089605  1  0  0.099794  0.07325  0  1.001208  0
H  H13  1  0.37259716  0.95169728  0.08089555  1  0  0.09982  0.073324  0  1.001138  0
H  H14  1  0.95169473  0.37259665  0.58089604  1  0  0.099801  0.073256  0  1.001182  0
H  H15  1  0.04830191  0.62740326  0.08089651  1  0  0.099795  0.073258  0  1.001148  0
H  H16  1  0.48331491  0.06600689  0.49130797  1  0  0.093416  0.069654  0  1.013684  0
H  H17  1  0.51668786  0.93399308  0.99130738  1  0  0.093444  0.069729  0  1.013634  0
H  H18  1  0.93399417  0.51668852  0.49130832  1  0  0.093425  0.069683  0  1.013678  0
H  H19  1  0.06600763  0.48331146  0.99130703  1  0  0.093428  0.069699  0  1.013691  0
H  H20  1  0.34852135  0.04264664  0.66814514  1  0  0.091396  0.064626  0  1.021402  0
H  H21  1  0.65147621  0.95735773  0.16814618  1  0  0.091377  0.064602  0  1.021349  0
H  H22  1  0.95735225  0.65147746  0.66814689  1  0  0.091392  0.064615  0  1.02141  0
H  H23  1  0.04264429  0.34852404  0.16814443  1  0  0.091397  0.064635  0  1.021363  0
H  H24  1  0.48654902  0.01393325  0.76455773  1  0  0.089578  0.053671  0  1.023855  0
H  H25  1  0.51344731  0.98606512  0.26456295  1  0  0.089547  0.053676  0  1.023772  0
H  H26  1  0.98606584  0.51345120  0.76455823  1  0  0.089567  0.053664  0  1.023875  0
H  H27  1  0.01393636  0.48655192  0.26456151  1  0  0.089559  0.053676  0  1.023815  0
H  H28  1  0.29300171  0.09257747  0.88351781  1  0  0.099411  0.076386  0  0.992983  0
H  H29  1  0.70699646  0.90742462  0.38351748  1  0  0.099442  0.076481  0  0.992982  0
H  H30  1  0.90742127  0.70699704  0.88351863  1  0  0.099393  0.076403  0  0.993004  0
H  H31  1  0.09257692  0.29300602  0.38351760  1  0  0.099434  0.076463  0  0.993072  0
H  H32  1  0.30059373  0.23764165  0.79534651  1  0  0.094336  0.059355  0  1.011185  0
H  H33  1  0.69940741  0.76235882  0.29534515  1  0  0.094314  0.059373  0  1.011159  0
H  H34  1  0.76235812  0.69940555  0.79534689  1  0  0.094337  0.059377  0  1.011193  0
H  H35  1  0.23764199  0.30059205  0.29534572  1  0  0.094334  0.059386  0  1.011129  0
H  H36  1  0.33186477  0.35510600  0.97659662  1  0  0.096827  0.059241  0  1.016367  0
H  H37  1  0.66813233  0.64489678  0.47659353  1  0  0.096816  0.059214  0  1.016432  0
H  H38  1  0.64489448  0.66813397  0.97659469  1  0  0.096815  0.059228  0  1.01642  0
H  H39  1  0.35510353  0.33186689  0.47659546  1  0  0.096811  0.059216  0  1.016389  0
H  H40  1  0.33185441  0.21700033  0.07470916  1  0  0.098211  0.07579  0  1.007739  0
H  H41  1  0.66814510  0.78299952  0.57470540  1  0  0.098205  0.075794  0  1.007768  0
H  H42  1  0.78299636  0.66814755  0.07470763  1  0  0.098215  0.075799  0  1.007679  0
H  H43  1  0.21699844  0.33185616  0.57470788  1  0  0.0982  0.075758  0  1.007774  0
H  H44  1  0.55969532  0.26933119  0.13881390  1  0  0.090653  0.056345  0  1.023853  0
H  H45  1  0.44030416  0.73067103  0.63881480  1  0  0.090649  0.056321  0  1.023847  0
H  H46  1  0.73066904  0.44030788  0.13881345  1  0  0.090669  0.056356  0  1.023886  0
H  H47  1  0.26932954  0.55969723  0.63881619  1  0  0.090658  0.056332  0  1.023812  0
H  H48  1  0.44715065  0.39119399  0.17869820  1  0  0.103844  0.065031  0  0.983617  0
H  H49  1  0.55285163  0.60880755  0.67869430  1  0  0.103842  0.064991  0  0.983723  0
H  H50  1  0.60880442  0.55285261  0.17869678  1  0  0.103863  0.065046  0  0.983567  0
H  H51  1  0.39119313  0.44715184  0.67869667  1  0  0.103843  0.06501  0  0.983672  0
C  C52  1  0.87146485  0.12853814  0.26517869  1  0  0.156423  0.269228  0  4.301105  0
C  C53  1  0.12853534  0.87146116  0.76517725  1  0  0.156528  0.269328  0  4.301178  0
C  C54  1  0.81230204  0.95217621  0.72465442  1  0  0.154382  0.273929  0  4.293798  0
C  C55  1  0.18770003  0.04781896  0.22466000  1  0  0.15427  0.273737  0  4.294383  0
C  C56  1  0.04782365  0.18769636  0.72464750  1  0  0.154427  0.273941  0  4.294192  0
C  C57  1  0.95217461  0.81229979  0.22465276  1  0  0.154458  0.274133  0  4.293693  0
C  C58  1  0.61958387  0.21906205  0.46745836  1  0  -0.075433  -0.000774  0  3.948888  0
C  C59  1  0.38041603  0.78093681  0.96745781  1  0  -0.075416  -0.000804  0  3.948745  0
C  C60  1  0.78093670  0.38041790  0.46745693  1  0  -0.075399  -0.00069  0  3.948835  0
C  C61  1  0.21906224  0.61958097  0.96745924  1  0  -0.075425  -0.000738  0  3.948934  0
C  C62  1  0.55601699  0.11800403  0.54819853  1  0  -0.078976  -0.008556  0  3.932064  0
C  C63  1  0.44398356  0.88199753  0.04819649  1  0  -0.079038  -0.008688  0  3.931972  0
C  C64  1  0.88199615  0.44398420  0.54819569  1  0  -0.079014  -0.008619  0  3.932066  0
C  C65  1  0.11800335  0.55601353  0.04819461  1  0  -0.078978  -0.008545  0  3.932036  0
C  C66  1  0.42304864  0.08894460  0.72724856  1  0  -0.081214  -0.007266  0  3.945092  0
C  C67  1  0.57694873  0.91105444  0.22724560  1  0  -0.081194  -0.007233  0  3.944908  0
C  C68  1  0.91105482  0.57694895  0.72724619  1  0  -0.081204  -0.007252  0  3.945018  0
C  C69  1  0.08894640  0.42305103  0.22724798  1  0  -0.081207  -0.007258  0  3.945104  0
C  C70  1  0.35882551  0.15895299  0.83335021  1  0  -0.078013  -0.002663  0  3.935768  0
C  C71  1  0.64117468  0.84105064  0.33335327  1  0  -0.078044  -0.002811  0  3.935789  0
C  C72  1  0.84104706  0.64117534  0.83335254  1  0  -0.078031  -0.002754  0  3.935864  0
C  C73  1  0.15894738  0.35882834  0.33335377  1  0  -0.078052  -0.00282  0  3.936012  0
C  C74  1  0.39382529  0.28082664  0.01734426  1  0  -0.077661  -0.005161  0  3.943461  0
C  C75  1  0.60617527  0.71917374  0.51734107  1  0  -0.077623  -0.0051  0  3.943603  0
C  C76  1  0.71917042  0.60617752  0.01734142  1  0  -0.077634  -0.005117  0  3.943441  0
C  C77  1  0.28082646  0.39382960  0.51734297  1  0  -0.077606  -0.005085  0  3.943614  0
C  C78  1  0.49512963  0.34219280  0.09945603  1  0  -0.074699  -0.003242  0  3.95476  0
C  C79  1  0.50487085  0.65780913  0.59945538  1  0  -0.074671  -0.003156  0  3.954831  0
C  C80  1  0.65780657  0.50487109  0.09945744  1  0  -0.074712  -0.003266  0  3.954778  0
C  C81  1  0.34219195  0.49512894  0.59945491  1  0  -0.074724  -0.003229  0  3.954875  0
S  S82  1  0.81549836  0.18450335  0.13298538  1  0  -0.116827  -0.299767  0  2.534358  0
S  S83  1  0.18450289  0.81549211  0.63298063  1  0  -0.116885  -0.299842  0  2.534311  0
S  S84  1  0.74581812  0.99080790  0.85858448  1  0  -0.145114  -0.345466  0  2.52219  0
S  S85  1  0.25418187  0.00918825  0.35859253  1  0  -0.145128  -0.345453  0  2.522252  0
S  S86  1  0.00918903  0.25418138  0.85858709  1  0  -0.145149  -0.345525  0  2.521857  0
S  S87  1  0.99080629  0.74582056  0.35858049  1  0  -0.145127  -0.34555  0  2.522401  0
N  N88  1  0.91081915  0.08918179  0.36193575  1  0  -0.385605  -0.437486  0  3.16412  0
N  N89  1  0.08917998  0.91081918  0.86192993  1  0  -0.385654  -0.437504  0  3.164342  0
N  N90  1  0.85809918  0.92136831  0.62723837  1  0  -0.388641  -0.464152  0  3.120751  0
N  N91  1  0.14190293  0.07862231  0.12724990  1  0  -0.388535  -0.463974  0  3.121251  0
N  N92  1  0.07862709  0.14190459  0.62724651  1  0  -0.388658  -0.464107  0  3.121452  0
N  N93  1  0.92137149  0.85809948  0.12723421  1  0  -0.388706  -0.464297  0  3.120584  0
O  O94  1  0.71988445  0.28011594  0.53791216  1  0  -0.275537  -0.243451  0  2.510461  0
O  O95  1  0.28011609  0.71988459  0.03791108  1  0  -0.275535  -0.243365  0  2.510534  0
O  O96  1  0.49674789  0.17870458  0.65388399  1  0  -0.277695  -0.259728  0  2.518178  0
O  O97  1  0.50325342  0.82129487  0.15388427  1  0  -0.277665  -0.259745  0  2.518196  0
O  O98  1  0.82129411  0.50325187  0.65388398  1  0  -0.277677  -0.259703  0  2.518171  0
O  O99  1  0.17870431  0.49674664  0.15388428  1  0  -0.277664  -0.259749  0  2.518225  0
O  O100  1  0.45350334  0.21017016  0.91816743  1  0  -0.277366  -0.266076  0  2.507283  0
O  O101  1  0.54649572  0.78983122  0.41816459  1  0  -0.277376  -0.266082  0  2.507367  0
O  O102  1  0.78983060  0.54649665  0.91816650  1  0  -0.277362  -0.26605  0  2.507317  0
O  O103  1  0.21017132  0.45350375  0.41816551  1  0  -0.277364  -0.266044  0  2.507426  0
O  O104  1  0.56694187  0.43305803  0.02566965  1  0  -0.269385  -0.258275  0  2.5101  0
O  O105  1  0.43305681  0.56694434  0.52566845  1  0  -0.269377  -0.258265  0  2.510096  0
