# generated using pymatgen
data_Cu2BH26WC22(SN3)3
_symmetry_space_group_name_H-M   'P 1'
_cell_length_a   12.62622170
_cell_length_b   23.21342255
_cell_length_c   23.21348569
_cell_angle_alpha   120.00031128
_cell_angle_beta   90.00024382
_cell_angle_gamma   89.99986777
_symmetry_Int_Tables_number   1
_chemical_formula_structural   Cu2BH26WC22(SN3)3
_chemical_formula_sum   'Cu12 B6 H156 W6 C132 S18 N54'
_cell_volume   5892.26424956
_cell_formula_units_Z   6
loop_
 _symmetry_equiv_pos_site_id
 _symmetry_equiv_pos_as_xyz
  1  'x, y, z'
loop_
 _atom_site_type_symbol
 _atom_site_label
 _atom_site_symmetry_multiplicity
 _atom_site_fract_x
 _atom_site_fract_y
 _atom_site_fract_z
 _atom_site_occupancy
 _atom_site_pbe_bader_charge
 _atom_site_pbe_bader_spin_density
 _atom_site_pbe_cm5_charge
 _atom_site_pbe_ddec_charge
 _atom_site_pbe_ddec_spin_density
 _atom_site_pbe_ddec_sum_bond_order
 _atom_site_pbe_magmom
Cu  Cu0  1  0.94360266  0.57583621  0.03579376  1  0.628001  0  0.500406  0.380211  0  2.971583  0
Cu  Cu1  1  0.94359413  0.45996003  0.42416355  1  0.631546  0  0.500332  0.380161  0  2.97151  0
Cu  Cu2  1  0.94359906  0.96421111  0.54004733  1  0.629885  0  0.500371  0.38015  0  2.971512  0
Cu  Cu3  1  0.44360193  0.42416297  0.96420725  1  0.62805  0  0.500426  0.380252  0  2.971457  0
Cu  Cu4  1  0.44359541  0.54004254  0.57582891  1  0.631338  0  0.500349  0.380175  0  2.971366  0
Cu  Cu5  1  0.44360157  0.03579632  0.45996093  1  0.630027  0  0.500359  0.380162  0  2.971432  0
Cu  Cu6  1  0.16595197  0.59457617  0.04462851  1  0.540741  0  0.39935  0.254835  0  3.18113  0
Cu  Cu7  1  0.16594022  0.45005032  0.40541566  1  0.543084  0  0.399309  0.254726  0  3.181382  0
Cu  Cu8  1  0.16595397  0.95537495  0.54995527  1  0.544085  0  0.399374  0.254958  0  3.18112  0
Cu  Cu9  1  0.66595586  0.40542208  0.95537886  1  0.540855  0  0.39936  0.254826  0  3.181213  0
Cu  Cu10  1  0.66594939  0.54994984  0.59458119  1  0.542663  0  0.399303  0.254717  0  3.181186  0
Cu  Cu11  1  0.66594039  0.04463390  0.45005873  1  0.543613  0  0.399275  0.254716  0  3.181127  0
B  B12  1  0.99833738  0.84845845  0.23912213  1  2.074424  0  -0.068372  0.296513  0  3.574299  0
B  B13  1  0.99833643  0.39066876  0.15154261  1  2.06133  0  -0.068251  0.296804  0  3.574195  0
B  B14  1  0.99833664  0.76087631  0.60933527  1  2.063015  0  -0.06831  0.296686  0  3.574256  0
B  B15  1  0.49833621  0.15153975  0.76087653  1  2.074431  0  -0.06837  0.29661  0  3.574114  0
B  B16  1  0.49833479  0.60933288  0.84845949  1  2.061475  0  -0.068284  0.296741  0  3.574353  0
B  B17  1  0.49833141  0.23912453  0.39066504  1  2.063068  0  -0.068374  0.296428  0  3.57443  0
H  H18  1  0.98756939  0.90288477  0.28654757  1  -0.566511  0  0.07795  -0.138435  0  1.01425  0
H  H19  1  0.98756658  0.38366893  0.09711669  1  -0.545833  0  0.077949  -0.138499  0  1.01423  0
H  H20  1  0.98757028  0.71344988  0.61633479  1  -0.554407  0  0.077949  -0.138489  0  1.014252  0
H  H21  1  0.48756808  0.09711467  0.71344982  1  -0.566569  0  0.077946  -0.138499  0  1.014253  0
H  H22  1  0.48756772  0.61633049  0.90288417  1  -0.545881  0  0.077952  -0.138522  0  1.014265  0
H  H23  1  0.48756718  0.28654967  0.38366421  1  -0.554406  0  0.077962  -0.138454  0  1.014258  0
H  H24  1  0.02996378  0.59207806  0.91523682  1  0.096836  0  0.113466  0.091876  0  0.998425  0
H  H25  1  0.02998058  0.32315989  0.40792024  1  0.104871  0  0.113441  0.091866  0  0.998362  0
H  H26  1  0.02997184  0.08475963  0.67683778  1  0.100864  0  0.113396  0.091753  0  0.998437  0
H  H27  1  0.52996799  0.40792175  0.08475836  1  0.096826  0  0.113449  0.09188  0  0.998437  0
H  H28  1  0.52997257  0.67684096  0.59207648  1  0.104972  0  0.113462  0.091845  0  0.99839  0
H  H29  1  0.52997022  0.91524053  0.32316223  1  0.100833  0  0.113434  0.091846  0  0.998424  0
H  H30  1  0.02740926  0.51285816  0.79127458  1  0.110526  0  0.11567  0.119973  0  1.001758  0
H  H31  1  0.02740856  0.27841584  0.48713982  1  0.124897  0  0.115692  0.119995  0  1.001787  0
H  H32  1  0.02740963  0.20872171  0.72158404  1  0.079305  0  0.115657  0.119977  0  1.001839  0
H  H33  1  0.52741251  0.48714109  0.20872202  1  0.110615  0  0.115644  0.11995  0  1.001796  0
H  H34  1  0.52741241  0.72158348  0.51285586  1  0.124909  0  0.115647  0.120034  0  1.001735  0
H  H35  1  0.52741372  0.79127901  0.27841454  1  0.079259  0  0.115631  0.119964  0  1.001875  0
H  H36  1  0.04505875  0.35160713  0.83286028  1  0.138664  0  0.117069  0.122152  0  0.99845  0
H  H37  1  0.04506013  0.48125117  0.64839346  1  0.098931  0  0.117035  0.122095  0  0.998379  0
H  H38  1  0.04505712  0.16714264  0.51874899  1  0.112092  0  0.117077  0.122156  0  0.998341  0
H  H39  1  0.54506258  0.64839259  0.16713933  1  0.138641  0  0.117084  0.122198  0  0.998381  0
H  H40  1  0.54505961  0.51874783  0.35160343  1  0.098866  0  0.117108  0.122198  0  0.998353  0
H  H41  1  0.54506025  0.83285888  0.48125142  1  0.112094  0  0.117049  0.122128  0  0.99835  0
H  H42  1  0.05013578  0.43713712  0.95432666  1  0.085777  0  0.122595  0.095154  0  0.969128  0
H  H43  1  0.05015150  0.51718988  0.56286465  1  0.088507  0  0.122604  0.095129  0  0.96906  0
H  H44  1  0.05013714  0.04567489  0.48280791  1  0.094536  0  0.122579  0.095099  0  0.969076  0
H  H45  1  0.55013823  0.56286583  0.04567319  1  0.085677  0  0.12259  0.095125  0  0.969064  0
H  H46  1  0.55013359  0.48280962  0.43713176  1  0.08844  0  0.122572  0.095107  0  0.969127  0
H  H47  1  0.55014083  0.95432472  0.51719011  1  0.09461  0  0.122603  0.09517  0  0.969028  0
H  H48  1  0.89070309  0.89699275  0.37757990  1  0.056822  0  0.094509  0.139782  0  1.014401  0
H  H49  1  0.89070131  0.48059184  0.10301581  1  0.060706  0  0.094514  0.139838  0  1.01449  0
H  H50  1  0.89070106  0.62242093  0.51941487  1  0.069371  0  0.09451  0.139804  0  1.014385  0
H  H51  1  0.39070183  0.10300908  0.62242264  1  0.056905  0  0.094514  0.139786  0  1.014426  0
H  H52  1  0.39069807  0.51940801  0.89698872  1  0.060617  0  0.094503  0.139799  0  1.014474  0
H  H53  1  0.39069515  0.37757906  0.48058434  1  0.069405  0  0.094522  0.139836  0  1.01437  0
H  H54  1  0.75395199  0.87937146  0.37329895  1  0.05007  0  0.091304  0.137804  0  1.016109  0
H  H55  1  0.75394865  0.49393275  0.12063539  1  0.049969  0  0.091344  0.137893  0  1.016117  0
H  H56  1  0.75394908  0.62669987  0.50607381  1  0.045359  0  0.091276  0.137755  0  1.016172  0
H  H57  1  0.25394831  0.12062892  0.62670131  1  0.050032  0  0.091299  0.137803  0  1.016037  0
H  H58  1  0.25394611  0.50606725  0.87936698  1  0.049996  0  0.091332  0.137868  0  1.016117  0
H  H59  1  0.25394488  0.37329990  0.49392534  1  0.045314  0  0.091295  0.137789  0  1.016131  0
H  H60  1  0.80566713  0.91934060  0.33144497  1  0.075705  0  0.090381  0.13622  0  1.019106  0
H  H61  1  0.80566485  0.41210853  0.08066581  1  0.08299  0  0.090343  0.136174  0  1.019048  0
H  H62  1  0.80566708  0.66855890  0.58789703  1  0.078791  0  0.090365  0.136193  0  1.019129  0
H  H63  1  0.30566554  0.08066143  0.66855806  1  0.075733  0  0.090396  0.136257  0  1.019071  0
H  H64  1  0.30566386  0.58789098  0.91933371  1  0.083005  0  0.090353  0.136194  0  1.019024  0
H  H65  1  0.30566163  0.33144104  0.41210292  1  0.078746  0  0.090384  0.136241  0  1.019146  0
H  H66  1  0.72045895  0.74585368  0.29088991  1  0.069114  0  0.094528  0.128234  0  1.060525  0
H  H67  1  0.72044022  0.54502969  0.25414923  1  0.076642  0  0.09457  0.128226  0  1.060565  0
H  H68  1  0.72045254  0.70911090  0.45496407  1  0.061649  0  0.094543  0.128246  0  1.060537  0
H  H69  1  0.22045219  0.25414533  0.70911338  1  0.069089  0  0.094553  0.128271  0  1.060567  0
H  H70  1  0.22044636  0.45496526  0.74584950  1  0.07596  0  0.094566  0.128217  0  1.060506  0
H  H71  1  0.22045226  0.29089170  0.54503735  1  0.061602  0  0.094525  0.128222  0  1.060504  0
H  H72  1  0.78317010  0.61854753  0.11788106  1  0.084895  0  0.084862  0.131448  0  1.039835  0
H  H73  1  0.78316821  0.49933392  0.38145542  1  0.08051  0  0.084873  0.131447  0  1.039779  0
H  H74  1  0.78317579  0.88211511  0.50066378  1  0.089816  0  0.084861  0.131454  0  1.039807  0
H  H75  1  0.28316969  0.38145217  0.88211909  1  0.084875  0  0.084865  0.131461  0  1.039851  0
H  H76  1  0.28316762  0.50066632  0.61854677  1  0.080556  0  0.084873  0.131455  0  1.039825  0
H  H77  1  0.28317351  0.11788594  0.49933673  1  0.089845  0  0.084866  0.131453  0  1.039827  0
H  H78  1  0.73616423  0.62752571  0.19422856  1  0.017365  0  0.085851  0.125388  0  1.031231  0
H  H79  1  0.73616031  0.56670216  0.37247703  1  0.016473  0  0.085868  0.125369  0  1.031248  0
H  H80  1  0.73616796  0.80576896  0.43329425  1  0.025352  0  0.085888  0.125394  0  1.031279  0
H  H81  1  0.23616565  0.37247510  0.80577209  1  0.017374  0  0.085861  0.125371  0  1.031249  0
H  H82  1  0.23615928  0.43329748  0.62752394  1  0.016167  0  0.085845  0.125337  0  1.03127  0
H  H83  1  0.23616588  0.19423149  0.56670504  1  0.025195  0  0.085867  0.125373  0  1.031285  0
H  H84  1  0.86883174  0.60298333  0.16889547  1  0.072908  0  0.087937  0.151269  0  1.018936  0
H  H85  1  0.86882638  0.56591183  0.39701928  1  0.060437  0  0.087923  0.151291  0  1.019  0
H  H86  1  0.86883467  0.83110089  0.43408629  1  0.072584  0  0.087927  0.151251  0  1.01894  0
H  H87  1  0.36883008  0.39701919  0.83110721  1  0.0721  0  0.087942  0.151303  0  1.018885  0
H  H88  1  0.36882595  0.43408810  0.60298081  1  0.060084  0  0.08793  0.151296  0  1.018993  0
H  H89  1  0.36883111  0.16890040  0.56591417  1  0.072606  0  0.087903  0.151246  0  1.019053  0
H  H90  1  0.86462339  0.96890916  0.25249803  1  0.074414  0  0.094678  0.143862  0  1.004144  0
H  H91  1  0.86462080  0.28359432  0.03109093  1  0.074707  0  0.094646  0.143826  0  1.004192  0
H  H92  1  0.86462092  0.74750241  0.71640998  1  0.083057  0  0.094673  0.143877  0  1.004201  0
H  H93  1  0.36461787  0.03109016  0.74750094  1  0.074451  0  0.094671  0.143827  0  1.004152  0
H  H94  1  0.36462283  0.71640777  0.96891131  1  0.074778  0  0.094662  0.143847  0  1.004124  0
H  H95  1  0.36462113  0.25249863  0.28359072  1  0.083022  0  0.094656  0.143825  0  1.004214  0
H  H96  1  0.91494275  0.00520085  0.20656397  1  0.040147  0  0.098646  0.13952  0  0.984261  0
H  H97  1  0.91493988  0.20136779  0.99479987  1  0.040546  0  0.098613  0.139426  0  0.984345  0
H  H98  1  0.91494182  0.79344033  0.79863709  1  0.08317  0  0.098656  0.139529  0  0.984237  0
H  H99  1  0.41493827  0.99479976  0.79343641  1  0.040118  0  0.098671  0.139515  0  0.984319  0
H  H100  1  0.41493956  0.79863516  0.00520334  1  0.040457  0  0.098628  0.139479  0  0.984234  0
H  H101  1  0.41494000  0.20656250  0.20136452  1  0.083149  0  0.098612  0.139471  0  0.98431  0
H  H102  1  0.99923292  0.99298675  0.26094760  1  0.059589  0  0.100142  0.139558  0  0.98846  0
H  H103  1  0.99922871  0.26796633  0.00701434  1  0.065503  0  0.100109  0.139463  0  0.988469  0
H  H104  1  0.99923134  0.73905402  0.73203966  1  0.052722  0  0.100135  0.139567  0  0.988501  0
H  H105  1  0.49922744  0.00701298  0.73905210  1  0.059678  0  0.100123  0.139499  0  0.98861  0
H  H106  1  0.49923244  0.73203674  0.99298720  1  0.065452  0  0.100111  0.139483  0  0.988503  0
H  H107  1  0.49923060  0.26094787  0.26796220  1  0.052702  0  0.100141  0.13954  0  0.988475  0
H  H108  1  0.94984467  0.91194278  0.07655052  1  0.044396  0  0.104409  0.138277  0  1.015592  0
H  H109  1  0.94983838  0.16461173  0.08805621  1  0.044061  0  0.104369  0.138197  0  1.015656  0
H  H110  1  0.94984761  0.92344976  0.83539237  1  0.103018  0  0.104413  0.138313  0  1.015669  0
H  H111  1  0.44984108  0.08805671  0.92344932  1  0.044375  0  0.104389  0.138261  0  1.015652  0
H  H112  1  0.44984104  0.83539016  0.91194554  1  0.044052  0  0.104395  0.138259  0  1.015725  0
H  H113  1  0.44984131  0.07654967  0.16460840  1  0.10306  0  0.104412  0.1383  0  1.015682  0
H  H114  1  0.98024705  0.79676608  0.96930052  1  0.02103  0  0.093818  0.134379  0  0.987806  0
H  H115  1  0.98024933  0.17253781  0.20323234  1  0.007111  0  0.093831  0.134434  0  0.987741  0
H  H116  1  0.98024970  0.03069939  0.82746362  1  0.040049  0  0.093828  0.134403  0  0.987818  0
H  H117  1  0.48024549  0.20323422  0.03069772  1  0.02106  0  0.093815  0.134413  0  0.98777  0
H  H118  1  0.48024717  0.82746328  0.79676769  1  0.007092  0  0.093809  0.134424  0  0.987759  0
H  H119  1  0.48024601  0.96930153  0.17253573  1  0.04007  0  0.093807  0.134399  0  0.987782  0
H  H120  1  0.97058876  0.72372604  0.97625765  1  0.040829  0  0.082491  0.141772  0  1.037394  0
H  H121  1  0.97059336  0.25253395  0.27627232  1  0.080774  0  0.082426  0.141685  0  1.037411  0
H  H122  1  0.97059331  0.02373939  0.74746606  1  0.044836  0  0.08244  0.141692  0  1.037404  0
H  H123  1  0.47058843  0.27627376  0.02374106  1  0.040826  0  0.082493  0.141802  0  1.037415  0
H  H124  1  0.47059016  0.74746676  0.72372979  1  0.080795  0  0.082401  0.141622  0  1.037479  0
H  H125  1  0.47058942  0.97625769  0.25253192  1  0.044757  0  0.082502  0.141801  0  1.037402  0
H  H126  1  0.09561912  0.76127137  0.98332806  1  0.055987  0  0.089387  0.144984  0  0.999429  0
H  H127  1  0.09562131  0.22206063  0.23872610  1  0.059843  0  0.089377  0.144961  0  0.999505  0
H  H128  1  0.09562227  0.01667144  0.77794280  1  0.057078  0  0.089387  0.144994  0  0.999485  0
H  H129  1  0.59561717  0.23872762  0.01666895  1  0.056051  0  0.089388  0.144962  0  0.999423  0
H  H130  1  0.59561894  0.77794039  0.76127492  1  0.05984  0  0.089383  0.144987  0  0.99949  0
H  H131  1  0.59561877  0.98332976  0.22205890  1  0.057177  0  0.089403  0.144987  0  0.99944  0
H  H132  1  0.16639824  0.95409593  0.33524963  1  0.051335  0  0.093296  0.139124  0  0.993307  0
H  H133  1  0.16640307  0.38115128  0.04590503  1  0.065728  0  0.093304  0.139147  0  0.993356  0
H  H134  1  0.16639442  0.66474566  0.61884217  1  0.02161  0  0.093279  0.139057  0  0.993451  0
H  H135  1  0.66639821  0.04590131  0.66474928  1  0.051366  0  0.093316  0.139129  0  0.993374  0
H  H136  1  0.66639972  0.61884515  0.95409556  1  0.065643  0  0.093278  0.139041  0  0.993387  0
H  H137  1  0.66639808  0.33524685  0.38115200  1  0.021481  0  0.093321  0.139186  0  0.993353  0
H  H138  1  0.24123559  0.92616447  0.38116718  1  0.078078  0  0.091889  0.146631  0  1.011781  0
H  H139  1  0.24124093  0.45499925  0.07383406  1  0.07736  0  0.091864  0.146613  0  1.011804  0
H  H140  1  0.24123055  0.61882958  0.54499281  1  0.095775  0  0.091903  0.146628  0  1.011863  0
H  H141  1  0.74123509  0.07383424  0.61883387  1  0.078102  0  0.091868  0.146646  0  1.011781  0
H  H142  1  0.74123767  0.54499576  0.92616379  1  0.077365  0  0.091882  0.146606  0  1.011779  0
H  H143  1  0.74123221  0.38116484  0.45500046  1  0.094649  0  0.091873  0.146648  0  1.011786  0
H  H144  1  0.10126736  0.91983896  0.37927656  1  0.050011  0  0.090931  0.135987  0  1.016998  0
H  H145  1  0.10127192  0.45943506  0.08015743  1  0.050421  0  0.090969  0.136067  0  1.016973  0
H  H146  1  0.10126308  0.62072130  0.54055760  1  0.045569  0  0.090943  0.135998  0  1.016935  0
H  H147  1  0.60126922  0.08016045  0.62072435  1  0.050004  0  0.090945  0.136042  0  1.016991  0
H  H148  1  0.60126862  0.54056017  0.91983732  1  0.050488  0  0.090939  0.136003  0  1.016934  0
H  H149  1  0.60126717  0.37927463  0.45943387  1  0.045218  0  0.090951  0.136048  0  1.01698  0
H  H150  1  0.33231504  0.80641665  0.30162961  1  0.086839  0  0.095982  0.131307  0  1.056279  0
H  H151  1  0.33231686  0.49521346  0.19358375  1  0.077078  0  0.095948  0.131269  0  1.056289  0
H  H152  1  0.33230893  0.69836625  0.50478308  1  0.100862  0  0.09598  0.131302  0  1.056273  0
H  H153  1  0.83231386  0.19358243  0.69836953  1  0.086846  0  0.095979  0.131325  0  1.056262  0
H  H154  1  0.83231521  0.50478920  0.80641699  1  0.077109  0  0.09598  0.13132  0  1.056276  0
H  H155  1  0.83231046  0.30162820  0.49521294  1  0.100653  0  0.096001  0.131331  0  1.056295  0
H  H156  1  0.25438579  0.63970776  0.17244128  1  0.078058  0  0.087155  0.146529  0  1.008998  0
H  H157  1  0.25438279  0.53273379  0.36029292  1  0.050839  0  0.087134  0.146506  0  1.008969  0
H  H158  1  0.25438734  0.82755803  0.46726567  1  0.068993  0  0.087143  0.146549  0  1.008962  0
H  H159  1  0.75438888  0.36029145  0.82755930  1  0.077993  0  0.08717  0.146567  0  1.008954  0
H  H160  1  0.75438950  0.46726820  0.63970746  1  0.050867  0  0.087174  0.146601  0  1.008877  0
H  H161  1  0.75438971  0.17243939  0.53273412  1  0.068994  0  0.087116  0.146524  0  1.008977  0
H  H162  1  0.36989621  0.68983722  0.20340845  1  0.035926  0  0.086926  0.128084  0  1.028921  0
H  H163  1  0.36989542  0.51357350  0.31016655  1  0.033204  0  0.086905  0.128051  0  1.028928  0
H  H164  1  0.36989472  0.79658819  0.48642762  1  0.031509  0  0.086955  0.128126  0  1.028821  0
H  H165  1  0.86989610  0.31016067  0.79659110  1  0.035836  0  0.086945  0.128126  0  1.028856  0
H  H166  1  0.86989689  0.48643153  0.68983964  1  0.033279  0  0.086946  0.128118  0  1.028793  0
H  H167  1  0.86989364  0.20340927  0.51357149  1  0.031469  0  0.086941  0.128072  0  1.028922  0
H  H168  1  0.31391641  0.67222323  0.12568944  1  0.066611  0  0.083461  0.13181  0  1.031377  0
H  H169  1  0.31391608  0.45346778  0.32777921  1  0.056613  0  0.083461  0.131804  0  1.031374  0
H  H170  1  0.31391605  0.87430785  0.54653471  1  0.066091  0  0.083466  0.131835  0  1.031294  0
H  H171  1  0.81391683  0.32777381  0.87430912  1  0.066575  0  0.083467  0.131819  0  1.031375  0
H  H172  1  0.81391717  0.54653684  0.67222643  1  0.056398  0  0.083463  0.131828  0  1.031327  0
H  H173  1  0.81391799  0.12568967  0.45346682  1  0.066002  0  0.083463  0.131829  0  1.031361  0
W  W174  1  0.03121096  0.69449247  0.10354065  1  1.881289  0  1.117663  0.993335  0  5.180221  0
W  W175  1  0.03120840  0.40904900  0.30550409  1  1.881791  0  1.117738  0.993452  0  5.180367  0
W  W176  1  0.03121323  0.89645717  0.59095192  1  1.882639  0  1.117625  0.993364  0  5.180385  0
W  W177  1  0.53121482  0.30550583  0.89645950  1  1.880939  0  1.11765  0.993448  0  5.180174  0
W  W178  1  0.53120867  0.59095012  0.69449438  1  1.881915  0  1.117703  0.993426  0  5.180302  0
W  W179  1  0.53120701  0.10354392  0.40904803  1  1.882673  0  1.117694  0.993398  0  5.18046  0
C  C180  1  0.77372997  0.46811154  0.98655889  1  0.737657  0  -0.026404  -0.038339  0  3.803321  0
C  C181  1  0.77372175  0.51843694  0.53189330  1  0.741094  0  -0.026413  -0.038441  0  3.803537  0
C  C182  1  0.77371154  0.01345360  0.48156723  1  0.747474  0  -0.026585  -0.038538  0  3.803165  0
C  C183  1  0.27371739  0.53188214  0.01344467  1  0.737531  0  -0.026451  -0.038465  0  3.803235  0
C  C184  1  0.27370977  0.48156047  0.46810653  1  0.740842  0  -0.026512  -0.038559  0  3.803507  0
C  C185  1  0.27371999  0.98655643  0.51844323  1  0.747212  0  -0.026468  -0.038562  0  3.803369  0
C  C186  1  0.03324667  0.53818874  0.89432943  1  0.509573  0  0.052103  0.100237  0  3.932299  0
C  C187  1  0.03325566  0.35613906  0.46180916  1  0.498533  0  0.052088  0.100203  0  3.932217  0
C  C188  1  0.03324502  0.10567187  0.64385935  1  0.417537  0  0.052064  0.100252  0  3.932141  0
C  C189  1  0.53324764  0.46181081  0.10566947  1  0.509599  0  0.051933  0.09999  0  3.932242  0
C  C190  1  0.53324577  0.64386093  0.53818671  1  0.498537  0  0.052108  0.100299  0  3.932152  0
C  C191  1  0.53324691  0.89432903  0.35613992  1  0.417731  0  0.052123  0.100248  0  3.932276  0
C  C192  1  0.03084514  0.49441940  0.82608482  1  0.016719  0  -0.070472  -0.142891  0  3.937778  0
C  C193  1  0.03084581  0.33166436  0.50557688  1  -0.062403  0  -0.07049  -0.142862  0  3.937666  0
C  C194  1  0.03084282  0.17391351  0.66833433  1  0.107639  0  -0.070409  -0.142826  0  3.937877  0
C  C195  1  0.53084804  0.50558114  0.17391309  1  0.01659  0  -0.070428  -0.142825  0  3.937911  0
C  C196  1  0.53084578  0.66833588  0.49441874  1  -0.0624  0  -0.070468  -0.142905  0  3.937733  0
C  C197  1  0.53084719  0.82608586  0.33166389  1  0.107615  0  -0.07043  -0.142835  0  3.93786  0
C  C198  1  0.03312062  0.42574393  0.80261058  1  -0.049842  0  0.008885  0.026162  0  3.964241  0
C  C199  1  0.03312141  0.37686466  0.57425412  1  0.047431  0  0.008945  0.026171  0  3.96405  0
C  C200  1  0.03311644  0.19738915  0.62313430  1  -0.054945  0  0.008896  0.02617  0  3.96419  0
C  C201  1  0.53312658  0.57425469  0.19738839  1  -0.049837  0  0.008856  0.026143  0  3.964413  0
C  C202  1  0.53312262  0.62313366  0.42574257  1  0.047346  0  0.008919  0.026116  0  3.964226  0
C  C203  1  0.53312363  0.80260903  0.37686424  1  -0.055068  0  0.008935  0.026215  0  3.964107  0
C  C204  1  0.04077476  0.40439627  0.84930986  1  -0.003708  0  -0.067493  -0.132046  0  3.929153  0
C  C205  1  0.04077685  0.44491531  0.59560132  1  -0.037916  0  -0.067449  -0.131946  0  3.929165  0
C  C206  1  0.04076939  0.15068729  0.55508499  1  0.008529  0  -0.067482  -0.132028  0  3.929238  0
C  C207  1  0.54077551  0.59560470  0.15068850  1  -0.003547  0  -0.067501  -0.132073  0  3.928929  0
C  C208  1  0.54077342  0.55508443  0.40439482  1  -0.038066  0  -0.067599  -0.132153  0  3.92925  0
C  C209  1  0.54077533  0.84931257  0.44491275  1  0.008653  0  -0.067516  -0.132072  0  3.929166  0
C  C210  1  0.04421063  0.45167482  0.91642667  1  0.478524  0  0.053172  0.105869  0  3.929992  0
C  C211  1  0.04422183  0.46475141  0.54832516  1  0.479414  0  0.053071  0.105781  0  3.930251  0
C  C212  1  0.04420595  0.08357363  0.53524683  1  0.497566  0  0.053124  0.105883  0  3.930208  0
C  C213  1  0.54421264  0.54832572  0.08357126  1  0.478609  0  0.05323  0.105969  0  3.929829  0
C  C214  1  0.54420619  0.53524734  0.45167198  1  0.47957  0  0.053197  0.105946  0  3.930066  0
C  C215  1  0.54420860  0.91642617  0.46475186  1  0.497437  0  0.053132  0.105815  0  3.930147  0
C  C216  1  0.03018132  0.37689989  0.73064228  1  1.079574  0  0.264834  0.378318  0  4.008244  0
C  C217  1  0.03017540  0.35374288  0.62309798  1  1.036986  0  0.264768  0.378224  0  4.008227  0
C  C218  1  0.03017725  0.26935550  0.64625477  1  1.102439  0  0.26478  0.378267  0  4.008222  0
C  C219  1  0.53018130  0.62309800  0.26935396  1  1.080682  0  0.264828  0.37824  0  4.008268  0
C  C220  1  0.53018088  0.64625508  0.37689734  1  1.03703  0  0.264815  0.378161  0  4.008414  0
C  C221  1  0.53018378  0.73064214  0.35374173  1  1.10271  0  0.264818  0.37832  0  4.008294  0
C  C222  1  0.82148831  0.88077302  0.34452623  1  -0.064218  0  -0.237232  -0.436095  0  3.977671  0
C  C223  1  0.82148435  0.46375828  0.11923318  1  -0.076977  0  -0.237276  -0.436247  0  3.977551  0
C  C224  1  0.82148557  0.65547382  0.53624705  1  -0.076209  0  -0.237213  -0.436069  0  3.977598  0
C  C225  1  0.32148566  0.11922839  0.65547573  1  -0.06422  0  -0.237225  -0.436144  0  3.977561  0
C  C226  1  0.32148328  0.53624084  0.88076848  1  -0.07698  0  -0.237261  -0.436207  0  3.977577  0
C  C227  1  0.32148126  0.34452686  0.46375219  1  -0.075966  0  -0.237195  -0.436154  0  3.977737  0
C  C228  1  0.83803156  0.81410832  0.28525043  1  0.432916  0  0.111357  0.260836  0  3.996782  0
C  C229  1  0.83802873  0.47114594  0.18589761  1  0.393586  0  0.11135  0.260767  0  3.996653  0
C  C230  1  0.83803035  0.71474932  0.52885743  1  0.414814  0  0.111409  0.260843  0  3.996655  0
C  C231  1  0.33803068  0.18589334  0.71475131  1  0.433015  0  0.111371  0.260908  0  3.996655  0
C  C232  1  0.33802797  0.52885207  0.81410347  1  0.3929  0  0.11136  0.260823  0  3.996823  0
C  C233  1  0.33802714  0.28525179  0.47114228  1  0.415405  0  0.111349  0.260835  0  3.99672  0
C  C234  1  0.78578954  0.75440850  0.26586455  1  -0.023742  0  -0.134057  -0.366523  0  3.982079  0
C  C235  1  0.78578047  0.51145758  0.24559730  1  0.004198  0  -0.134024  -0.366349  0  3.981811  0
C  C236  1  0.78578729  0.73413350  0.48854143  1  -0.003088  0  -0.134061  -0.366499  0  3.981804  0
C  C237  1  0.28578697  0.24559374  0.73413565  1  -0.024302  0  -0.134113  -0.366598  0  3.981876  0
C  C238  1  0.28578416  0.48853951  0.75440374  1  0.005215  0  -0.134125  -0.366472  0  3.9819  0
C  C239  1  0.28578368  0.26586694  0.51145798  1  -0.003124  0  -0.134035  -0.36648  0  3.981751  0
C  C240  1  0.83458865  0.70638484  0.20708420  1  0.447528  0  0.09448  0.281011  0  3.996737  0
C  C241  1  0.83458467  0.50070039  0.29362002  1  0.404644  0  0.094411  0.280915  0  3.996778  0
C  C242  1  0.83459040  0.79291466  0.49929804  1  0.414944  0  0.094453  0.281059  0  3.996681  0
C  C243  1  0.33459109  0.29361664  0.79291686  1  0.448115  0  0.094463  0.281017  0  3.996637  0
C  C244  1  0.33458557  0.49929874  0.70638167  1  0.404703  0  0.094476  0.281032  0  3.996612  0
C  C245  1  0.33458696  0.20708671  0.50070141  1  0.414974  0  0.094472  0.280988  0  3.996615  0
C  C246  1  0.80448226  0.63511074  0.16973963  1  -0.09333  0  -0.248113  -0.442906  0  3.965923  0
C  C247  1  0.80447928  0.53462877  0.36489306  1  -0.03997  0  -0.248135  -0.442893  0  3.966007  0
C  C248  1  0.80448380  0.83025742  0.46536900  1  -0.073209  0  -0.248127  -0.442896  0  3.966079  0
C  C249  1  0.30448073  0.36488981  0.83026143  1  -0.092478  0  -0.248086  -0.442876  0  3.965881  0
C  C250  1  0.30447976  0.46537111  0.63510781  1  -0.039332  0  -0.248146  -0.442905  0  3.965979  0
C  C251  1  0.30448078  0.16974320  0.53463113  1  -0.073128  0  -0.248122  -0.442873  0  3.966107  0
C  C252  1  0.93394568  0.97124241  0.22507334  1  -0.051323  0  -0.225883  -0.427269  0  3.975703  0
C  C253  1  0.93394167  0.25383842  0.02875925  1  -0.05687  0  -0.225784  -0.42699  0  3.975648  0
C  C254  1  0.93394338  0.77492746  0.74616848  1  -0.094667  0  -0.225885  -0.427278  0  3.975818  0
C  C255  1  0.43393959  0.02875733  0.77492622  1  -0.051226  0  -0.225861  -0.427107  0  3.97585  0
C  C256  1  0.43394280  0.74616502  0.97124350  1  -0.056897  0  -0.225779  -0.427065  0  3.97563  0
C  C257  1  0.43394268  0.22507400  0.25383280  1  -0.09457  0  -0.225841  -0.427143  0  3.975791  0
C  C258  1  0.96207832  0.90455183  0.16807128  1  0.397957  0  0.11089  0.254563  0  4.002675  0
C  C259  1  0.96207543  0.26352718  0.09545057  1  0.396215  0  0.110987  0.254643  0  4.002706  0
C  C260  1  0.96207990  0.83192859  0.73647914  1  0.384701  0  0.110876  0.254472  0  4.002818  0
C  C261  1  0.46207398  0.09544730  0.83192723  1  0.397679  0  0.110889  0.254523  0  4.00259  0
C  C262  1  0.46207449  0.73647619  0.90455318  1  0.396325  0  0.11092  0.254509  0  4.00286  0
C  C263  1  0.46207794  0.16807244  0.26352178  1  0.384449  0  0.110872  0.254493  0  4.002796  0
C  C264  1  0.96594624  0.88277318  0.10026883  1  0.031675  0  -0.131179  -0.375752  0  4.000512  0
C  C265  1  0.96593979  0.21750326  0.11722790  1  -0.025505  0  -0.131185  -0.375783  0  4.000649  0
C  C266  1  0.96594966  0.89973245  0.78250556  1  -0.021542  0  -0.131166  -0.375783  0  4.000568  0
C  C267  1  0.46593838  0.11722638  0.89973013  1  0.031824  0  -0.13119  -0.375793  0  4.000615  0
C  C268  1  0.46593928  0.78250264  0.88277590  1  -0.025865  0  -0.131198  -0.375757  0  4.000595  0
C  C269  1  0.46594288  0.10026938  0.21749715  1  -0.020943  0  -0.131162  -0.375815  0  4.000648  0
C  C270  1  0.99466585  0.81539882  0.06817705  1  0.438075  0  0.09581  0.27869  0  3.986959  0
C  C271  1  0.99466591  0.25278200  0.18459955  1  0.465127  0  0.095798  0.278642  0  3.987028  0
C  C272  1  0.99467064  0.93182203  0.74721975  1  0.402054  0  0.095817  0.278667  0  3.987202  0
C  C273  1  0.49466192  0.18460030  0.93182153  1  0.437927  0  0.095908  0.278771  0  3.986892  0
C  C274  1  0.49466582  0.74721902  0.81540144  1  0.465161  0  0.09575  0.278561  0  3.987056  0
C  C275  1  0.49466585  0.06817820  0.25277944  1  0.401347  0  0.095837  0.278768  0  3.986849  0
C  C276  1  0.01110217  0.77172645  0.99527380  1  -0.035561  0  -0.241671  -0.43269  0  3.963555  0
C  C277  1  0.01110509  0.22355091  0.22827109  1  -0.02923  0  -0.24161  -0.432609  0  3.963384  0
C  C278  1  0.01110611  0.00472492  0.77645210  1  -0.022192  0  -0.241632  -0.432628  0  3.963555  0
C  C279  1  0.51109938  0.22827267  0.00472463  1  -0.035538  0  -0.241657  -0.432676  0  3.963427  0
C  C280  1  0.51110281  0.77645104  0.77172967  1  -0.029225  0  -0.241598  -0.432597  0  3.963441  0
C  C281  1  0.51110178  0.99527449  0.22354862  1  -0.022194  0  -0.241664  -0.432733  0  3.963457  0
C  C282  1  0.17150679  0.91553979  0.34939984  1  -0.060158  0  -0.234509  -0.432175  0  3.958963  0
C  C283  1  0.17150915  0.43385980  0.08445871  1  -0.051007  0  -0.234542  -0.432304  0  3.958975  0
C  C284  1  0.17150266  0.65059797  0.56613704  1  -0.038842  0  -0.234557  -0.432158  0  3.959142  0
C  C285  1  0.67150570  0.08445770  0.65059883  1  -0.060283  0  -0.234542  -0.432286  0  3.959057  0
C  C286  1  0.67150889  0.56613794  0.91553972  1  -0.050987  0  -0.234494  -0.432044  0  3.958927  0
C  C287  1  0.67150271  0.34940064  0.43385878  1  -0.037225  0  -0.234533  -0.432315  0  3.959043  0
C  C288  1  0.18074304  0.84775987  0.29016832  1  0.421861  0  0.114867  0.267732  0  3.981243  0
C  C289  1  0.18074415  0.44241088  0.15224029  1  0.434822  0  0.114924  0.26791  0  3.980809  0
C  C290  1  0.18073646  0.70982921  0.55758891  1  0.433355  0  0.114937  0.267896  0  3.980973  0
C  C291  1  0.68074450  0.15223798  0.70983173  1  0.422255  0  0.114919  0.267844  0  3.981056  0
C  C292  1  0.68074022  0.55759105  0.84776085  1  0.434618  0  0.114868  0.267754  0  3.980935  0
C  C293  1  0.68074079  0.29016859  0.44240861  1  0.433654  0  0.114913  0.267857  0  3.9809  0
C  C294  1  0.26096976  0.80094568  0.27342769  1  -0.032446  0  -0.131507  -0.361769  0  3.973061  0
C  C295  1  0.26097413  0.47248310  0.19905492  1  -0.059619  0  -0.13147  -0.361753  0  3.972947  0
C  C296  1  0.26096616  0.72656673  0.52751273  1  -0.054868  0  -0.131485  -0.361817  0  3.97275  0
C  C297  1  0.76097037  0.19905309  0.72657247  1  -0.032673  0  -0.131534  -0.361895  0  3.972999  0
C  C298  1  0.76097471  0.52751746  0.80094604  1  -0.05956  0  -0.131491  -0.361786  0  3.972683  0
C  C299  1  0.76097001  0.27342773  0.47248313  1  -0.054919  0  -0.131533  -0.361847  0  3.972957  0
C  C300  1  0.23149448  0.74514160  0.21314336  1  0.434705  0  0.09578  0.28077  0  3.990897  0
C  C301  1  0.23149681  0.46800388  0.25485873  1  0.442017  0  0.095865  0.280881  0  3.990934  0
C  C302  1  0.23149168  0.78685337  0.53199499  1  0.423879  0  0.095771  0.280822  0  3.990597  0
C  C303  1  0.73149611  0.25485749  0.78685556  1  0.434654  0  0.095765  0.280798  0  3.990786  0
C  C304  1  0.73149298  0.53199811  0.74514160  1  0.44171  0  0.095796  0.280806  0  3.990844  0
C  C305  1  0.73149257  0.21314307  0.46800228  1  0.424437  0  0.095817  0.28086  0  3.990777  0
C  C306  1  0.29538056  0.68334817  0.17653132  1  -0.082176  0  -0.24658  -0.439392  0  3.963758  0
C  C307  1  0.29537914  0.49318388  0.31665281  1  -0.035479  0  -0.246553  -0.439343  0  3.963687  0
C  C308  1  0.29537760  0.82346590  0.50681577  1  -0.057841  0  -0.246604  -0.439502  0  3.963606  0
C  C309  1  0.79537984  0.31665041  0.82346824  1  -0.081959  0  -0.246629  -0.439488  0  3.96371  0
C  C310  1  0.79537968  0.50681907  0.68335014  1  -0.03533  0  -0.246622  -0.439509  0  3.963577  0
C  C311  1  0.79537884  0.17653132  0.49318343  1  -0.058557  0  -0.246578  -0.439419  0  3.96371  0
S  S312  1  0.88964254  0.66648619  0.03574185  1  -0.637486  0  -0.385657  -0.484225  0  2.411581  0
S  S313  1  0.88964592  0.36925668  0.33351253  1  -0.636714  0  -0.385642  -0.484237  0  2.411667  0
S  S314  1  0.88964503  0.96425542  0.63074449  1  -0.639317  0  -0.38564  -0.484168  0  2.411607  0
S  S315  1  0.38964457  0.33351252  0.96425607  1  -0.637423  0  -0.385626  -0.484218  0  2.41163  0
S  S316  1  0.38964277  0.63073949  0.66648534  1  -0.636687  0  -0.385629  -0.484178  0  2.411603  0
S  S317  1  0.38963891  0.03574475  0.36925887  1  -0.639561  0  -0.385642  -0.48424  0  2.411577  0
S  S318  1  0.05378885  0.60546581  0.12290281  1  -0.680325  0  -0.403936  -0.489724  0  2.741906  0
S  S319  1  0.05377980  0.51743525  0.39452936  1  -0.688439  0  -0.404006  -0.489814  0  2.742111  0
S  S320  1  0.05378888  0.87710202  0.48256702  1  -0.684007  0  -0.404002  -0.489867  0  2.742038  0
S  S321  1  0.55379613  0.39453667  0.87710355  1  -0.680619  0  -0.404009  -0.489896  0  2.742033  0
S  S322  1  0.55377984  0.48256585  0.60546717  1  -0.688437  0  -0.403988  -0.48981  0  2.741982  0
S  S323  1  0.55377946  0.12291364  0.51743909  1  -0.6833  0  -0.403938  -0.489732  0  2.741978  0
S  S324  1  0.16778285  0.68487382  0.03625557  1  -0.656464  0  -0.389087  -0.477832  0  2.441282  0
S  S325  1  0.16778148  0.35138215  0.31511836  1  -0.657517  0  -0.389083  -0.477798  0  2.441356  0
S  S326  1  0.16778624  0.96374067  0.64862171  1  -0.66048  0  -0.38909  -0.477883  0  2.441368  0
S  S327  1  0.66779036  0.31512003  0.96374243  1  -0.656144  0  -0.389116  -0.477892  0  2.441335  0
S  S328  1  0.66778698  0.64861742  0.68488338  1  -0.657447  0  -0.389098  -0.477821  0  2.441298  0
S  S329  1  0.66778381  0.03626227  0.35138787  1  -0.660703  0  -0.389087  -0.477793  0  2.441246  0
N  N330  1  0.84266038  0.50725118  0.00600498  1  -1.367619  0  -0.431914  -0.316775  0  3.642635  0
N  N331  1  0.84264646  0.49874851  0.49275363  1  -1.372071  0  -0.431825  -0.316609  0  3.642763  0
N  N332  1  0.84263990  0.99400631  0.50125825  1  -1.378549  0  -0.431676  -0.31656  0  3.642205  0
N  N333  1  0.34264612  0.49274359  0.99398988  1  -1.367497  0  -0.431892  -0.316708  0  3.642368  0
N  N334  1  0.34263549  0.50124896  0.50724543  1  -1.372017  0  -0.431723  -0.316504  0  3.642481  0
N  N335  1  0.34264918  0.00600408  0.49875373  1  -1.378345  0  -0.431841  -0.316564  0  3.642435  0
N  N336  1  0.03905226  0.51745938  0.93893454  1  -1.248783  0  -0.330003  -0.232943  0  3.557356  0
N  N337  1  0.03906335  0.42147632  0.48254062  1  -1.210067  0  -0.329898  -0.232862  0  3.557159  0
N  N338  1  0.03904469  0.06106454  0.57852137  1  -1.221959  0  -0.329931  -0.232912  0  3.557167  0
N  N339  1  0.53905042  0.48254277  0.06106350  1  -1.248896  0  -0.329856  -0.232786  0  3.557189  0
N  N340  1  0.53904725  0.57852311  0.51745669  1  -1.209807  0  -0.329959  -0.232947  0  3.55712  0
N  N341  1  0.53905007  0.93893483  0.42147687  1  -1.22206  0  -0.329951  -0.232929  0  3.557319  0
N  N342  1  0.02999289  0.31193357  0.71222024  1  -1.231162  0  -0.298596  -0.400718  0  3.219193  0
N  N343  1  0.02998864  0.40028742  0.68806511  1  -1.155488  0  -0.298565  -0.400587  0  3.219183  0
N  N344  1  0.02998695  0.28777783  0.59971172  1  -1.171634  0  -0.298547  -0.40058  0  3.219209  0
N  N345  1  0.52999195  0.68806444  0.28777762  1  -1.231465  0  -0.298617  -0.400697  0  3.219326  0
N  N346  1  0.52998748  0.59971066  0.31193182  1  -1.15661  0  -0.298566  -0.400489  0  3.219191  0
N  N347  1  0.52998996  0.71222050  0.40028495  1  -1.17156  0  -0.298644  -0.400691  0  3.219206  0
N  N348  1  0.91404227  0.80135683  0.23935307  1  -1.013257  0  -0.135116  -0.085607  0  3.675495  0
N  N349  1  0.91404209  0.43800082  0.19864666  1  -1.000397  0  -0.135143  -0.085669  0  3.675627  0
N  N350  1  0.91404125  0.76064605  0.56200414  1  -1.005361  0  -0.135066  -0.085515  0  3.675525  0
N  N351  1  0.41404249  0.19864260  0.76064762  1  -1.013631  0  -0.135183  -0.085769  0  3.675567  0
N  N352  1  0.41404188  0.56199916  0.80135607  1  -1.000334  0  -0.135006  -0.085543  0  3.675449  0
N  N353  1  0.41403639  0.23935437  0.43799556  1  -1.006228  0  -0.13503  -0.085439  0  3.675535  0
N  N354  1  0.91345377  0.73564875  0.19096897  1  -0.781187  0  -0.260622  -0.222328  0  3.381146  0
N  N355  1  0.91345385  0.45532269  0.26435363  1  -0.781443  0  -0.260586  -0.222263  0  3.381308  0
N  N356  1  0.91345499  0.80902807  0.54467857  1  -0.782362  0  -0.260689  -0.222514  0  3.381352  0
N  N357  1  0.41345566  0.26435167  0.80903072  1  -0.78097  0  -0.260555  -0.222254  0  3.381145  0
N  N358  1  0.41345399  0.54467711  0.73564842  1  -0.781306  0  -0.260651  -0.222417  0  3.381234  0
N  N359  1  0.41344889  0.19097174  0.45532001  1  -0.782253  0  -0.260714  -0.222472  0  3.381369  0
N  N360  1  0.98797298  0.85190418  0.17529147  1  -0.985996  0  -0.132772  -0.087773  0  3.677499  0
N  N361  1  0.98797795  0.32339288  0.14809606  1  -0.994308  0  -0.132993  -0.087993  0  3.677954  0
N  N362  1  0.98797658  0.82470609  0.67661109  1  -0.983484  0  -0.132854  -0.087756  0  3.677601  0
N  N363  1  0.48797232  0.14809451  0.82470667  1  -0.986058  0  -0.132809  -0.087654  0  3.677398  0
N  N364  1  0.48797210  0.67661005  0.85190732  1  -0.994235  0  -0.132898  -0.087762  0  3.677859  0
N  N365  1  0.48797347  0.17529315  0.32338908  1  -0.983645  0  -0.132827  -0.087683  0  3.677665  0
N  N366  1  0.00708085  0.79681427  0.11478650  1  -0.77934  0  -0.261039  -0.204479  0  3.389514  0
N  N367  1  0.00708617  0.31797691  0.20318484  1  -0.778521  0  -0.261009  -0.204395  0  3.389692  0
N  N368  1  0.00708922  0.88521190  0.68202768  1  -0.777462  0  -0.261016  -0.204471  0  3.389805  0
N  N369  1  0.50708109  0.20318417  0.88521173  1  -0.77919  0  -0.26111  -0.204722  0  3.38969  0
N  N370  1  0.50708448  0.68202516  0.79681752  1  -0.778358  0  -0.260948  -0.204433  0  3.389732  0
N  N371  1  0.50708064  0.11478813  0.31797413  1  -0.777032  0  -0.261048  -0.20454  0  3.38956  0
N  N372  1  0.10702251  0.82034310  0.24134876  1  -0.999138  0  -0.133063  -0.087901  0  3.659104  0
N  N373  1  0.10702074  0.42101201  0.17965876  1  -1.016715  0  -0.133151  -0.088165  0  3.659074  0
N  N374  1  0.10701921  0.75864975  0.57899263  1  -1.012076  0  -0.133102  -0.088088  0  3.659277  0
N  N375  1  0.60702345  0.17965563  0.75865199  1  -0.999285  0  -0.133089  -0.087934  0  3.659086  0
N  N376  1  0.60701809  0.57898968  0.82034246  1  -1.016582  0  -0.133093  -0.08806  0  3.65926  0
N  N377  1  0.60701883  0.24134843  0.42100607  1  -1.011981  0  -0.133096  -0.087991  0  3.659107  0
N  N378  1  0.13638279  0.75726961  0.19375830  1  -0.788806  0  -0.263585  -0.223584  0  3.385073  0
N  N379  1  0.13638366  0.43649264  0.24273113  1  -0.786827  0  -0.263622  -0.223619  0  3.385279  0
N  N380  1  0.13638096  0.80623902  0.56350923  1  -0.781622  0  -0.263589  -0.223526  0  3.385174  0
N  N381  1  0.63638145  0.24272992  0.80624084  1  -0.788733  0  -0.263559  -0.223543  0  3.385024  0
N  N382  1  0.63637821  0.56350819  0.75726930  1  -0.786536  0  -0.263605  -0.223564  0  3.385246  0
N  N383  1  0.63637932  0.19375927  0.43649115  1  -0.781458  0  -0.26362  -0.223603  0  3.385262  0
