# generated using pymatgen
data_ZnH17C18N5O4
_symmetry_space_group_name_H-M   'P 1'
_cell_length_a   9.30939081
_cell_length_b   13.59668503
_cell_length_c   16.09398604
_cell_angle_alpha   90.00010674
_cell_angle_beta   92.51307512
_cell_angle_gamma   89.99997872
_symmetry_Int_Tables_number   1
_chemical_formula_structural   ZnH17C18N5O4
_chemical_formula_sum   'Zn4 H68 C72 N20 O16'
_cell_volume   2035.16690739
_cell_formula_units_Z   4
loop_
 _symmetry_equiv_pos_site_id
 _symmetry_equiv_pos_as_xyz
  1  'x, y, z'
loop_
 _atom_site_type_symbol
 _atom_site_label
 _atom_site_symmetry_multiplicity
 _atom_site_fract_x
 _atom_site_fract_y
 _atom_site_fract_z
 _atom_site_occupancy
 _atom_site_pbe_bader_charge
 _atom_site_pbe_bader_spin_density
 _atom_site_pbe_cm5_charge
 _atom_site_pbe_ddec_charge
 _atom_site_pbe_ddec_spin_density
 _atom_site_pbe_ddec_sum_bond_order
 _atom_site_pbe_magmom
Zn  Zn0  1  0.26364543  0.85196592  0.17965601  1  1.260608  0  0.700073  0.793306  0  2.387786  0
Zn  Zn1  1  0.23635975  0.35196111  0.32034528  1  1.26065  0  0.700101  0.793346  0  2.387767  0
Zn  Zn2  1  0.73636069  0.14803321  0.82035090  1  1.260613  0  0.700118  0.793332  0  2.387825  0
Zn  Zn3  1  0.76364570  0.64803654  0.67965042  1  1.260519  0  0.700078  0.793277  0  2.387929  0
H  H4  1  0.01280761  0.79239493  0.95608163  1  0.139049  0  0.101913  0.107106  0  1.02399  0
H  H5  1  0.48721095  0.29238062  0.54391338  1  0.139297  0  0.101895  0.107158  0  1.023761  0
H  H6  1  0.98719939  0.20759316  0.04390107  1  0.139267  0  0.101979  0.107217  0  1.023947  0
H  H7  1  0.51280364  0.70759570  0.45609758  1  0.139195  0  0.101962  0.10721  0  1.023922  0
H  H8  1  0.73224867  0.98041250  0.09055883  1  0.120378  0  0.105723  0.109088  0  1.028742  0
H  H9  1  0.76775967  0.48041009  0.40943920  1  0.120359  0  0.105683  0.109057  0  1.028745  0
H  H10  1  0.26777940  0.01957339  0.90943647  1  0.119921  0  0.105692  0.109048  0  1.028578  0
H  H11  1  0.23222399  0.51958168  0.59056375  1  0.120154  0  0.105657  0.109016  0  1.028736  0
H  H12  1  0.59045985  0.85853071  0.85330793  1  0.106772  0  0.104969  0.109433  0  1.020505  0
H  H13  1  0.90954649  0.35853725  0.64669309  1  0.106714  0  0.104957  0.109451  0  1.020445  0
H  H14  1  0.40953481  0.14146547  0.14668860  1  0.106669  0  0.10495  0.109366  0  1.02061  0
H  H15  1  0.09046736  0.64146776  0.35330852  1  0.106546  0  0.104975  0.109414  0  1.020594  0
H  H16  1  0.72079405  0.66664337  0.08721217  1  0.126606  0  0.120539  0.113306  0  1.045444  0
H  H17  1  0.77919822  0.16664832  0.41278663  1  0.126638  0  0.120522  0.113296  0  1.04547  0
H  H18  1  0.27920891  0.33335649  0.91279276  1  0.126617  0  0.12053  0.11331  0  1.045497  0
H  H19  1  0.22079225  0.83336184  0.58720664  1  0.126886  0  0.120525  0.113331  0  1.045384  0
H  H20  1  0.31284861  0.76678355  0.99683605  1  0.164305  0  0.146114  0.121677  0  0.973467  0
H  H21  1  0.18714503  0.26678247  0.50316359  1  0.164279  0  0.146041  0.121611  0  0.973419  0
H  H22  1  0.68715433  0.23322293  0.00316950  1  0.164109  0  0.146082  0.121668  0  0.973494  0
H  H23  1  0.81284967  0.73322254  0.49683171  1  0.164141  0  0.14606  0.121643  0  0.9736  0
H  H24  1  0.59834785  0.78494662  0.20691017  1  0.152025  0  0.125731  0.13443  0  1.00148  0
H  H25  1  0.90164656  0.28494686  0.29308765  1  0.152385  0  0.125728  0.134413  0  1.001478  0
H  H26  1  0.40165182  0.21504883  0.79309649  1  0.151493  0  0.125751  0.134468  0  1.001369  0
H  H27  1  0.09835042  0.71505521  0.70690400  1  0.15184  0  0.125753  0.13444  0  1.001459  0
H  H28  1  0.64560327  0.62390376  0.93715700  1  0.060075  0  0.112875  0.095726  0  0.985829  0
H  H29  1  0.85438272  0.12391306  0.56284289  1  0.060028  0  0.112907  0.095859  0  0.98578  0
H  H30  1  0.35439105  0.37609243  0.06284885  1  0.06011  0  0.112888  0.095715  0  0.985945  0
H  H31  1  0.14560010  0.87610298  0.43715320  1  0.060131  0  0.112892  0.09572  0  0.985808  0
H  H32  1  0.47958162  0.66664356  0.89503797  1  0.102843  0  0.124162  0.115444  0  0.943078  0
H  H33  1  0.02040780  0.16664570  0.60496010  1  0.102914  0  0.124139  0.115457  0  0.94299  0
H  H34  1  0.52041706  0.33335851  0.10496617  1  0.102786  0  0.124116  0.115439  0  0.942988  0
H  H35  1  0.97958157  0.83335931  0.39503375  1  0.102784  0  0.124103  0.115384  0  0.943034  0
H  H36  1  0.34884207  0.53950239  0.97637954  1  0.022459  0  0.087772  0.076351  0  1.019199  0
H  H37  1  0.15113989  0.03950357  0.52361743  1  0.022428  0  0.08776  0.076368  0  1.019111  0
H  H38  1  0.65114902  0.46050409  0.02362618  1  0.02238  0  0.087808  0.076408  0  1.019098  0
H  H39  1  0.84883255  0.96050291  0.47636833  1  0.022187  0  0.087783  0.076388  0  1.019045  0
H  H40  1  0.46844866  0.48931506  0.90558375  1  0.054801  0  0.097566  0.096974  0  1.005747  0
H  H41  1  0.03153097  0.98931827  0.59441446  1  0.054911  0  0.097661  0.097089  0  1.005736  0
H  H42  1  0.53153916  0.51068774  0.09442310  1  0.054689  0  0.097594  0.097019  0  1.005735  0
H  H43  1  0.96844458  0.01068821  0.40557452  1  0.054619  0  0.097578  0.096976  0  1.005906  0
H  H44  1  0.21406371  0.12712992  0.39532488  1  0.096842  0  0.115627  0.10424  0  1.073308  0
H  H45  1  0.28592664  0.62712573  0.10467177  1  0.096947  0  0.115643  0.104226  0  1.073186  0
H  H46  1  0.78593103  0.87288244  0.60466917  1  0.096968  0  0.11564  0.104241  0  1.073145  0
H  H47  1  0.71407122  0.37288149  0.89532551  1  0.097012  0  0.115647  0.104271  0  1.073188  0
H  H48  1  0.50812436  0.17627717  0.40870877  1  0.123101  0  0.114259  0.105379  0  0.990773  0
H  H49  1  0.99187300  0.67627510  0.09129769  1  0.123161  0  0.114239  0.105353  0  0.990738  0
H  H50  1  0.49186987  0.82372637  0.59129956  1  0.123194  0  0.114244  0.105407  0  0.990699  0
H  H51  1  0.00812250  0.32372697  0.90870509  1  0.12317  0  0.114279  0.105427  0  0.990756  0
H  H52  1  0.61663808  0.07208629  0.38551461  1  0.050492  0  0.113037  0.086563  0  0.983887  0
H  H53  1  0.88335601  0.57208798  0.11449405  1  0.050436  0  0.113029  0.086578  0  0.983898  0
H  H54  1  0.38335706  0.92791357  0.61449810  1  0.050395  0  0.113039  0.086621  0  0.983837  0
H  H55  1  0.11664368  0.42791115  0.88551199  1  0.050427  0  0.113057  0.086611  0  0.983972  0
H  H56  1  0.52911110  0.96693665  0.27144926  1  0.121298  0  0.145184  0.115463  0  0.971826  0
H  H57  1  0.97089158  0.46693158  0.22855662  1  0.121146  0  0.145192  0.115519  0  0.971817  0
H  H58  1  0.47088844  0.03306321  0.72856113  1  0.121111  0  0.145161  0.115458  0  0.97178  0
H  H59  1  0.02912101  0.53307196  0.77144991  1  0.121079  0  0.145151  0.115466  0  0.971834  0
H  H60  1  0.08244108  0.01689337  0.26491908  1  0.185799  0  0.121135  0.132343  0  1.028394  0
H  H61  1  0.41756236  0.51688501  0.23507354  1  0.18581  0  0.121182  0.132323  0  1.028365  0
H  H62  1  0.91756123  0.98312047  0.73507401  1  0.18585  0  0.121192  0.132338  0  1.028408  0
H  H63  1  0.58245081  0.48311705  0.76491685  1  0.18596  0  0.121173  0.132392  0  1.028423  0
H  H64  1  0.57812764  0.09087414  0.53823895  1  0.056908  0  0.09694  0.099382  0  0.998532  0
H  H65  1  0.92185918  0.59087069  0.96176838  1  0.056997  0  0.096974  0.099392  0  0.998586  0
H  H66  1  0.42185580  0.90912867  0.46177022  1  0.056944  0  0.096963  0.099368  0  0.998631  0
H  H67  1  0.07813406  0.40912770  0.03823743  1  0.057083  0  0.096966  0.09936  0  0.998576  0
H  H68  1  0.39242832  0.08207567  0.52001588  1  0.014676  0  0.092704  0.087641  0  0.993074  0
H  H69  1  0.10755768  0.58207604  0.97998815  1  0.014664  0  0.092725  0.087689  0  0.993092  0
H  H70  1  0.60755413  0.91792787  0.47999076  1  0.014768  0  0.092661  0.087633  0  0.993145  0
H  H71  1  0.89243565  0.41792603  0.02001518  1  0.014583  0  0.092745  0.087698  0  0.993046  0
C  C72  1  0.90984969  0.82930749  0.96113342  1  -0.135563  0  -0.074538  -0.095805  0  3.919429  0
C  C73  1  0.59016866  0.32929769  0.53886304  1  -0.135201  0  -0.074436  -0.095766  0  3.919149  0
C  C74  1  0.09016143  0.17068281  0.03885441  1  -0.135721  0  -0.07462  -0.096006  0  3.919996  0
C  C75  1  0.40984174  0.67068599  0.46114465  1  -0.135525  0  -0.07458  -0.096015  0  3.919835  0
C  C76  1  0.88353016  0.88654174  0.03135092  1  0.007858  0  -0.020962  -0.035502  0  3.985378  0
C  C77  1  0.61648259  0.38653288  0.46864526  1  0.008361  0  -0.02101  -0.035417  0  3.985066  0
C  C78  1  0.11648844  0.11344930  0.96863843  1  0.007617  0  -0.021058  -0.035554  0  3.985611  0
C  C79  1  0.38351598  0.61345227  0.53136198  1  0.007492  0  -0.021017  -0.035448  0  3.985172  0
C  C80  1  0.83375802  0.75341164  0.82403773  1  1.556625  0  0.192207  0.561157  0  4.238192  0
C  C81  1  0.66625382  0.25341022  0.67596084  1  1.556557  0  0.192277  0.561297  0  4.237831  0
C  C82  1  0.16623162  0.24658307  0.17594867  1  1.557306  0  0.192037  0.560895  0  4.238389  0
C  C83  1  0.33377694  0.74658376  0.32404948  1  1.556804  0  0.192087  0.561007  0  4.238223  0
C  C84  1  0.99259901  0.89172542  0.10318302  1  1.570796  0  0.197625  0.57132  0  4.222953  0
C  C85  1  0.50740719  0.39172158  0.39681541  1  1.570794  0  0.197696  0.571286  0  4.223027  0
C  C86  1  0.00741842  0.10826414  0.89680877  1  1.570477  0  0.197566  0.571153  0  4.223295  0
C  C87  1  0.49258925  0.60826798  0.60319114  1  1.570454  0  0.197555  0.571118  0  4.223179  0
C  C88  1  0.80466906  0.81810103  0.89716212  1  0.086836  0  -0.025048  -0.036345  0  3.99045  0
C  C89  1  0.69534280  0.31809575  0.60283532  1  0.086155  0  -0.025208  -0.036778  0  3.990725  0
C  C90  1  0.19532692  0.18189075  0.10282763  1  0.087164  0  -0.02505  -0.036328  0  3.990657  0
C  C91  1  0.30467626  0.68189528  0.39717083  1  0.087112  0  -0.02508  -0.036407  0  3.990787  0
C  C92  1  0.75275836  0.93587217  0.03615972  1  -0.016141  0  -0.070201  -0.135367  0  3.898563  0
C  C93  1  0.74725220  0.43586842  0.46383708  1  -0.01677  0  -0.070173  -0.135389  0  3.898412  0
C  C94  1  0.24726017  0.06411739  0.96383149  1  -0.016208  0  -0.070107  -0.13533  0  3.898353  0
C  C95  1  0.25274322  0.56412409  0.53616819  1  -0.016402  0  -0.070059  -0.135214  0  3.898324  0
C  C96  1  0.67334079  0.86668054  0.90268156  1  -0.103322  0  -0.075133  -0.148108  0  3.935461  0
C  C97  1  0.82666883  0.36668110  0.59731773  1  -0.102789  0  -0.074951  -0.14782  0  3.935341  0
C  C98  1  0.32666145  0.13331417  0.09731340  1  -0.102677  0  -0.075055  -0.147979  0  3.935562  0
C  C99  1  0.17333962  0.63331950  0.40268429  1  -0.1025  0  -0.075125  -0.148011  0  3.935469  0
C  C100  1  0.64758092  0.92651653  0.97130494  1  0.317255  0  0.079191  0.151093  0  4.059898  0
C  C101  1  0.85242874  0.42651546  0.52869258  1  0.317145  0  0.07914  0.150975  0  4.059944  0
C  C102  1  0.35243415  0.07347819  0.02869236  1  0.317187  0  0.079224  0.151208  0  4.060078  0
C  C103  1  0.14757115  0.57348367  0.47130788  1  0.317271  0  0.079199  0.151057  0  4.060037  0
C  C104  1  0.61807317  0.70347222  0.08772153  1  0.301002  0  0.003453  -0.103046  0  3.931943  0
C  C105  1  0.88191801  0.20347419  0.41227728  1  0.300841  0  0.003553  -0.102988  0  3.931958  0
C  C106  1  0.38192769  0.29652912  0.91228207  1  0.301059  0  0.003473  -0.103066  0  3.932098  0
C  C107  1  0.11807127  0.79653523  0.58771905  1  0.300639  0  0.003383  -0.103211  0  3.931979  0
C  C108  1  0.40629520  0.75523040  0.03833027  1  0.951214  0  0.142928  0.082642  0  3.911068  0
C  C109  1  0.09369828  0.25523036  0.46166795  1  0.951411  0  0.142914  0.082577  0  3.910976  0
C  C110  1  0.59370991  0.24477461  0.96167474  1  0.951524  0  0.14286  0.08252  0  3.911031  0
C  C111  1  0.90629219  0.74477539  0.53832532  1  0.951549  0  0.142818  0.082478  0  3.911031  0
C  C112  1  0.55896923  0.76429667  0.14504311  1  0.415668  0  0.009354  -0.010752  0  3.961564  0
C  C113  1  0.94102629  0.26429851  0.35495410  1  0.41526  0  0.009311  -0.010862  0  3.961715  0
C  C114  1  0.44103382  0.23570319  0.85495933  1  0.415889  0  0.009403  -0.010721  0  3.961407  0
C  C115  1  0.05896843  0.73570797  0.64504057  1  0.416129  0  0.009379  -0.010726  0  3.961507  0
C  C116  1  0.53112892  0.63107980  0.94982725  1  0.29889  0  -0.045197  -0.063059  0  3.859443  0
C  C117  1  0.96885607  0.13108463  0.55017075  1  0.299131  0  -0.045239  -0.063251  0  3.859518  0
C  C118  1  0.46886652  0.36892300  0.05017740  1  0.298822  0  -0.045144  -0.06302  0  3.859376  0
C  C119  1  0.03112470  0.86892700  0.44982278  1  0.298606  0  -0.045162  -0.063016  0  3.859069  0
C  C120  1  0.46372465  0.52978675  0.96456297  1  -0.047038  0  -0.164579  -0.177439  0  3.943759  0
C  C121  1  0.03625188  0.02978947  0.53543565  1  -0.047503  0  -0.164695  -0.177645  0  3.943718  0
C  C122  1  0.53626102  0.47021752  0.03544379  1  -0.023069  0  -0.16474  -0.177634  0  3.943897  0
C  C123  1  0.96371933  0.97021702  0.46455442  1  -0.022359  0  -0.164644  -0.177498  0  3.943794  0
C  C124  1  0.25715345  0.07592915  0.35153344  1  0.322635  0  -0.003612  -0.100452  0  3.923769  0
C  C125  1  0.24284108  0.57592360  0.14846701  1  0.322848  0  -0.003513  -0.100246  0  3.92342  0
C  C126  1  0.74284217  0.92408100  0.64846624  1  0.322612  0  -0.003534  -0.100334  0  3.9234  0
C  C127  1  0.75716211  0.42408141  0.85153171  1  0.323052  0  -0.003569  -0.100342  0  3.923547  0
C  C128  1  0.51289474  0.09544203  0.40904716  1  0.27018  0  -0.046946  -0.065757  0  3.877352  0
C  C129  1  0.98709948  0.59544142  0.09095782  1  0.270617  0  -0.046939  -0.06584  0  3.877352  0
C  C130  1  0.48709736  0.90456004  0.59096047  1  0.270763  0  -0.046989  -0.065997  0  3.877323  0
C  C131  1  0.01290140  0.40456064  0.90904516  1  0.27056  0  -0.047003  -0.065993  0  3.877637  0
C  C132  1  0.42484651  0.99615189  0.28570027  1  1.042859  0  0.153132  0.106417  0  3.912579  0
C  C133  1  0.07515527  0.49614690  0.21430423  1  1.042931  0  0.153123  0.106339  0  3.912552  0
C  C134  1  0.57515203  0.00385091  0.71430760  1  1.042884  0  0.153185  0.106468  0  3.912152  0
C  C135  1  0.92485857  0.50385591  0.78569738  1  1.042694  0  0.153058  0.106299  0  3.912484  0
C  C136  1  0.19372874  0.02331333  0.28721733  1  0.369222  0  0.002687  -0.025184  0  3.958578  0
C  C137  1  0.30626915  0.52330642  0.21278007  1  0.368957  0  0.002553  -0.025334  0  3.958675  0
C  C138  1  0.80626802  0.97669610  0.71278053  1  0.369216  0  0.002541  -0.025344  0  3.958648  0
C  C139  1  0.69374062  0.47669638  0.78721517  1  0.368429  0  0.002674  -0.025258  0  3.958825  0
C  C140  1  0.49550379  0.05596853  0.49703070  1  -0.005972  0  -0.163845  -0.175241  0  3.954579  0
C  C141  1  0.00448520  0.55596934  0.00297449  1  -0.006424  0  -0.163922  -0.175243  0  3.95456  0
C  C142  1  0.50447971  0.94403280  0.50297660  1  -0.046251  0  -0.163853  -0.175134  0  3.954623  0
C  C143  1  0.99551140  0.44403272  0.99702771  1  -0.046101  0  -0.163956  -0.175231  0  3.954609  0
N  N144  1  0.52025493  0.69759205  0.02085525  1  -1.238443  0  -0.242689  0.03821  0  3.779032  0
N  N145  1  0.97973627  0.19759414  0.47914293  1  -1.238446  0  -0.242678  0.038326  0  3.779067  0
N  N146  1  0.47974700  0.30241223  0.97914839  1  -1.238503  0  -0.242667  0.038221  0  3.778946  0
N  N147  1  0.02025308  0.80241528  0.52085154  1  -1.238584  0  -0.242542  0.038396  0  3.778569  0
N  N148  1  0.42654424  0.79577859  0.11358341  1  -1.233706  0  -0.352732  -0.28237  0  3.57568  0
N  N149  1  0.07345353  0.29577766  0.38641503  1  -1.233757  0  -0.352644  -0.282183  0  3.575659  0
N  N150  1  0.57346092  0.20422347  0.88642036  1  -1.233359  0  -0.352676  -0.282248  0  3.575466  0
N  N151  1  0.92654330  0.70422588  0.61358097  1  -1.23375  0  -0.352612  -0.282155  0  3.57539  0
N  N152  1  0.51067376  0.97177905  0.96960500  1  -0.464625  0  -0.155316  -0.143477  0  3.312981  0
N  N153  1  0.98933258  0.47177941  0.53039496  1  -0.508419  0  -0.155348  -0.143534  0  3.313077  0
N  N154  1  0.48934114  0.02822008  0.03039727  1  -0.5085  0  -0.155449  -0.143674  0  3.313281  0
N  N155  1  0.01066528  0.52822192  0.46960232  1  -0.464815  0  -0.155423  -0.143587  0  3.313077  0
N  N156  1  0.29992536  0.97374714  0.24676427  1  -1.251736  0  -0.3602  -0.285901  0  3.617508  0
N  N157  1  0.20007982  0.47374146  0.25323597  1  -1.2518  0  -0.360196  -0.285904  0  3.617656  0
N  N158  1  0.70007765  0.02625714  0.75323941  1  -1.251824  0  -0.360164  -0.285853  0  3.61752  0
N  N159  1  0.79993530  0.52625914  0.74676009  1  -1.251254  0  -0.360211  -0.285938  0  3.617757  0
N  N160  1  0.40320595  0.05826453  0.34958673  1  -1.228594  0  -0.244045  0.045684  0  3.773163  0
N  N161  1  0.09679170  0.55826196  0.15041693  1  -1.228583  0  -0.244049  0.045712  0  3.772837  0
N  N162  1  0.59679271  0.94173974  0.65041804  1  -1.228546  0  -0.244098  0.045696  0  3.772534  0
N  N163  1  0.90321348  0.44174378  0.84958622  1  -1.228535  0  -0.243995  0.045799  0  3.772856  0
O  O164  1  0.11237650  0.84448607  0.09127248  1  -1.18383  0  -0.347357  -0.578836  0  2.32667  0
O  O165  1  0.38763631  0.34447407  0.40872597  1  -1.18388  0  -0.347378  -0.57886  0  2.326607  0
O  O166  1  0.88764397  0.15550423  0.90872440  1  -1.183744  0  -0.347341  -0.578778  0  2.326841  0
O  O167  1  0.61236575  0.65550520  0.59127395  1  -1.18366  0  -0.347374  -0.578764  0  2.326829  0
O  O168  1  0.72638809  0.74279651  0.77047697  1  -1.168483  0  -0.343149  -0.567308  0  2.312045  0
O  O169  1  0.77360953  0.24280179  0.72952790  1  -1.168585  0  -0.343162  -0.567292  0  2.312115  0
O  O170  1  0.27357969  0.25719452  0.22951856  1  -1.169307  0  -0.343124  -0.567181  0  2.312215  0
O  O171  1  0.22642457  0.75719660  0.27047944  1  -1.16904  0  -0.343114  -0.567204  0  2.3121  0
O  O172  1  0.95459346  0.71358500  0.81933956  1  -1.18775  0  -0.33855  -0.582443  0  2.14517  0
O  O173  1  0.54541539  0.21357774  0.68065263  1  -1.187535  0  -0.338638  -0.582516  0  2.144722  0
O  O174  1  0.04538369  0.28641633  0.18063519  1  -1.187382  0  -0.338479  -0.582329  0  2.144828  0
O  O175  1  0.45462058  0.78641551  0.31936224  1  -1.187226  0  -0.338491  -0.582353  0  2.144783  0
O  O176  1  0.96425605  0.93633122  0.16805714  1  -1.175167  0  -0.332691  -0.547896  0  2.09667  0
O  O177  1  0.53573918  0.43633606  0.33194655  1  -1.17518  0  -0.332727  -0.547854  0  2.096889  0
O  O178  1  0.03576046  0.06366055  0.83193027  1  -1.175097  0  -0.332655  -0.547787  0  2.096644  0
O  O179  1  0.46425265  0.56366748  0.66806853  1  -1.175185  0  -0.33262  -0.54779  0  2.096678  0
