# generated using pymatgen
data_TiPH9C2N2O5
_symmetry_space_group_name_H-M   'P 1'
_cell_length_a   7.29227176
_cell_length_b   9.21080684
_cell_length_c   9.96399077
_cell_angle_alpha   100.09549790
_cell_angle_beta   89.99995046
_cell_angle_gamma   89.99989808
_symmetry_Int_Tables_number   1
_chemical_formula_structural   TiPH9C2N2O5
_chemical_formula_sum   'Ti4 P4 H36 C8 N8 O20'
_cell_volume   658.89625168
_cell_formula_units_Z   4
loop_
 _symmetry_equiv_pos_site_id
 _symmetry_equiv_pos_as_xyz
  1  'x, y, z'
loop_
 _atom_site_type_symbol
 _atom_site_label
 _atom_site_symmetry_multiplicity
 _atom_site_fract_x
 _atom_site_fract_y
 _atom_site_fract_z
 _atom_site_occupancy
 _atom_site_hle17_bader_spin_density
 _atom_site_hle17_ddec_charge
 _atom_site_hle17_ddec_spin_density
 _atom_site_hle17_ddec_sum_bond_order
 _atom_site_hle17_magmom
 _atom_site_hse06_10hf_bader_spin_density
 _atom_site_hse06_10hf_ddec_charge
 _atom_site_hse06_10hf_ddec_spin_density
 _atom_site_hse06_10hf_ddec_sum_bond_order
 _atom_site_hse06_10hf_magmom
 _atom_site_hse06_bader_spin_density
 _atom_site_hse06_ddec_charge
 _atom_site_hse06_ddec_spin_density
 _atom_site_hse06_ddec_sum_bond_order
 _atom_site_hse06_magmom
 _atom_site_pbe_bader_spin_density
 _atom_site_pbe_cm5_charge
 _atom_site_pbe_ddec_charge
 _atom_site_pbe_ddec_spin_density
 _atom_site_pbe_ddec_sum_bond_order
 _atom_site_pbe_magmom
Ti  Ti0  1  0.86216794  0.50894620  0.76820701  1  0  2.216851  0  2.118385  0  0  2.246814  0  2.438038  0  0  2.352584  0  2.38835  0  0  1.475824  2.108331  0  2.592585  0
Ti  Ti1  1  0.63783077  0.50894790  0.26820603  1  0  2.216789  0  2.118515  0  0  2.246737  0  2.438206  0  0  2.352529  0  2.388485  0  0  1.475805  2.10822  0  2.592828  0
Ti  Ti2  1  0.13783298  0.49105158  0.23179521  1  0  2.216799  0  2.118596  0  0  2.24673  0  2.438319  0  0  2.352533  0  2.388568  0  0  1.475804  2.108245  0  2.592863  0
Ti  Ti3  1  0.36216741  0.49105319  0.73179574  1  0  2.216822  0  2.118523  0  0  2.246809  0  2.438168  0  0  2.352576  0  2.388484  0  0  1.475849  2.108242  0  2.592876  0
P  P4  1  0.86429236  0.71125492  0.08645748  1  0  1.797038  0  4.928376  0  0  1.62871  0  5.452743  0  0  1.69669  0  5.384711  0  0  0.401669  1.57884  0  5.493933  0
P  P5  1  0.63570209  0.71125475  0.58645683  1  0  1.797101  0  4.928338  0  0  1.628787  0  5.452676  0  0  1.696775  0  5.384641  0  0  0.40176  1.578904  0  5.493833  0
P  P6  1  0.13570582  0.28874619  0.91354028  1  0  1.797045  0  4.928386  0  0  1.628723  0  5.452743  0  0  1.696699  0  5.384686  0  0  0.401722  1.578851  0  5.49394  0
P  P7  1  0.36429883  0.28874636  0.41354293  1  0  1.797119  0  4.928243  0  0  1.628823  0  5.452567  0  0  1.6968  0  5.384539  0  0  0.401814  1.578949  0  5.493744  0
H  H8  1  0.87705932  0.40106493  0.49429261  1  0  0.316928  0  0.885504  0  0  0.310439  0  0.939176  0  0  0.318113  0  0.933388  0  0  0.305616  0.304913  0  0.942063  0
H  H9  1  0.62294340  0.40106478  0.99429097  1  0  0.316959  0  0.885506  0  0  0.310465  0  0.939187  0  0  0.318142  0  0.933394  0  0  0.305618  0.30494  0  0.942081  0
H  H10  1  0.12293886  0.59893286  0.50570861  1  0  0.316941  0  0.885445  0  0  0.310447  0  0.939139  0  0  0.318124  0  0.933348  0  0  0.305594  0.30492  0  0.942032  0
H  H11  1  0.37706026  0.59893521  0.00571062  1  0  0.316971  0  0.885463  0  0  0.310486  0  0.939126  0  0  0.318163  0  0.933332  0  0  0.305618  0.304965  0  0.942013  0
H  H12  1  0.04813384  0.33396402  0.56924151  1  0  0.299504  0  0.924417  0  0  0.290851  0  0.982203  0  0  0.298502  0  0.976013  0  0  0.296554  0.285619  0  0.984722  0
H  H13  1  0.45186843  0.33396517  0.06923725  1  0  0.299492  0  0.924455  0  0  0.290868  0  0.982217  0  0  0.298519  0  0.976028  0  0  0.296567  0.285636  0  0.984737  0
H  H14  1  0.95186297  0.66603597  0.43076007  1  0  0.299503  0  0.924391  0  0  0.290852  0  0.982186  0  0  0.298501  0  0.975998  0  0  0.29654  0.285617  0  0.984704  0
H  H15  1  0.54813112  0.66603705  0.93075969  1  0  0.299528  0  0.924399  0  0  0.290877  0  0.982183  0  0  0.298526  0  0.975994  0  0  0.296568  0.285643  0  0.984697  0
H  H16  1  0.75027543  0.93608363  0.28168114  1  0  0.337076  0  0.885349  0  0  0.314355  0  0.94972  0  0  0.323175  0  0.942749  0  0  0.305495  0.308327  0  0.954816  0
H  H17  1  0.74972658  0.93608324  0.78168140  1  0  0.337075  0  0.885353  0  0  0.314357  0  0.949722  0  0  0.323179  0  0.94275  0  0  0.305508  0.308327  0  0.954817  0
H  H18  1  0.24972412  0.06391750  0.71831561  1  0  0.337033  0  0.885415  0  0  0.314336  0  0.949762  0  0  0.323152  0  0.942796  0  0  0.305484  0.308308  0  0.954858  0
H  H19  1  0.25027709  0.06391673  0.21832319  1  0  0.337059  0  0.88538  0  0  0.314337  0  0.949751  0  0  0.323157  0  0.942782  0  0  0.305488  0.308311  0  0.954847  0
H  H20  1  0.57840795  0.04448235  0.36828491  1  0  0.337074  0  0.896255  0  0  0.314653  0  0.958651  0  0  0.323585  0  0.952169  0  0  0.302185  0.308305  0  0.963551  0
H  H21  1  0.92159423  0.04448056  0.86828283  1  0  0.337076  0  0.896219  0  0  0.314658  0  0.958616  0  0  0.323586  0  0.952137  0  0  0.302186  0.308309  0  0.963519  0
H  H22  1  0.42159160  0.95551766  0.63171367  1  0  0.337097  0  0.896221  0  0  0.314672  0  0.958625  0  0  0.323607  0  0.952141  0  0  0.302187  0.308324  0  0.963527  0
H  H23  1  0.07840806  0.95552054  0.13171693  1  0  0.337068  0  0.896279  0  0  0.314637  0  0.958685  0  0  0.323572  0  0.9522  0  0  0.302165  0.308289  0  0.963587  0
H  H24  1  0.70170472  0.93373832  0.45054588  1  0  0.331604  0  0.872927  0  0  0.311962  0  0.932002  0  0  0.319843  0  0.926178  0  0  0.309986  0.306237  0  0.936501  0
H  H25  1  0.79829981  0.93373675  0.95054391  1  0  0.331552  0  0.873013  0  0  0.311946  0  0.932034  0  0  0.319826  0  0.926212  0  0  0.309986  0.30622  0  0.936529  0
H  H26  1  0.29829620  0.06625839  0.54945114  1  0  0.331543  0  0.873034  0  0  0.311921  0  0.932075  0  0  0.319799  0  0.926255  0  0  0.30998  0.306199  0  0.936571  0
H  H27  1  0.20170660  0.06626654  0.04945923  1  0  0.331641  0  0.87291  0  0  0.312013  0  0.931967  0  0  0.319891  0  0.926144  0  0  0.309997  0.306288  0  0.936468  0
H  H28  1  0.83603948  0.19412194  0.33752256  1  0  0.100524  0  0.923036  0  0  0.116656  0  0.980639  0  0  0.118626  0  0.979797  0  0  0.122556  0.11459  0  0.982476  0
H  H29  1  0.66396246  0.19412061  0.83752271  1  0  0.100623  0  0.922987  0  0  0.116716  0  0.980619  0  0  0.118686  0  0.979776  0  0  0.122584  0.114654  0  0.982458  0
H  H30  1  0.16396144  0.80587695  0.66247683  1  0  0.100548  0  0.923029  0  0  0.116671  0  0.980624  0  0  0.118639  0  0.979784  0  0  0.122561  0.114604  0  0.982461  0
H  H31  1  0.33604120  0.80588048  0.16248006  1  0  0.10055  0  0.923014  0  0  0.116677  0  0.980626  0  0  0.118647  0  0.979784  0  0  0.122554  0.11461  0  0.982464  0
H  H32  1  0.98568839  0.07228913  0.40331342  1  0  0.060703  0  0.93911  0  0  0.07512  0  1.004807  0  0  0.075848  0  1.004833  0  0  0.105363  0.07427  0  1.005404  0
H  H33  1  0.51431369  0.07228805  0.90331470  1  0  0.060731  0  0.93907  0  0  0.075163  0  1.004736  0  0  0.075893  0  1.00476  0  0  0.105366  0.074313  0  1.005334  0
H  H34  1  0.01431116  0.92770868  0.59668478  1  0  0.060692  0  0.939121  0  0  0.075116  0  1.004792  0  0  0.075845  0  1.004818  0  0  0.105361  0.074265  0  1.005389  0
H  H35  1  0.48568723  0.92771085  0.09668469  1  0  0.06072  0  0.939113  0  0  0.07514  0  1.0048  0  0  0.075869  0  1.004824  0  0  0.105358  0.074288  0  1.005395  0
H  H36  1  0.66589341  0.22992352  0.57119107  1  0  0.082636  0  0.942195  0  0  0.098183  0  1.000978  0  0  0.099993  0  0.999623  0  0  0.116183  0.096781  0  1.002289  0
H  H37  1  0.83411018  0.22992377  0.07118974  1  0  0.08261  0  0.942208  0  0  0.098173  0  1.00097  0  0  0.099983  0  0.999618  0  0  0.116177  0.096769  0  1.002281  0
H  H38  1  0.33410751  0.77007316  0.42880996  1  0  0.082652  0  0.942189  0  0  0.098221  0  1.000956  0  0  0.100031  0  0.999601  0  0  0.116195  0.096815  0  1.002267  0
H  H39  1  0.16588800  0.77007622  0.92881285  1  0  0.082621  0  0.942188  0  0  0.098189  0  1.000947  0  0  0.099999  0  0.999595  0  0  0.116187  0.096782  0  1.002258  0
H  H40  1  0.85801739  0.14611700  0.63415581  1  0  0.056529  0  0.936086  0  0  0.072288  0  0.999425  0  0  0.072791  0  0.999377  0  0  0.103887  0.071736  0  0.999866  0
H  H41  1  0.64198627  0.14611870  0.13415482  1  0  0.056536  0  0.936165  0  0  0.072301  0  0.999483  0  0  0.072805  0  0.999435  0  0  0.103883  0.071748  0  0.999919  0
H  H42  1  0.14198627  0.85388079  0.36584441  1  0  0.056535  0  0.936126  0  0  0.07231  0  0.999452  0  0  0.072814  0  0.999404  0  0  0.103887  0.071759  0  0.999895  0
H  H43  1  0.35801190  0.85388241  0.86584494  1  0  0.056549  0  0.936153  0  0  0.072319  0  0.999466  0  0  0.072823  0  0.999419  0  0  0.103882  0.071764  0  0.999903  0
C  C44  1  0.84743924  0.12018416  0.41237508  1  0  0.044865  0  3.530194  0  0  -0.015379  0  3.790477  0  0  -0.011516  0  3.799047  0  0  -0.062789  -0.018119  0  3.786272  0
C  C45  1  0.65256686  0.12018066  0.91237186  1  0  0.044754  0  3.530205  0  0  -0.015458  0  3.790451  0  0  -0.011596  0  3.799022  0  0  -0.062804  -0.018199  0  3.786248  0
C  C46  1  0.15256305  0.87981584  0.58762450  1  0  0.044817  0  3.530308  0  0  -0.015378  0  3.790495  0  0  -0.011515  0  3.799068  0  0  -0.062815  -0.018118  0  3.786292  0
C  C47  1  0.34743818  0.87981825  0.08762653  1  0  0.044814  0  3.530259  0  0  -0.015435  0  3.790537  0  0  -0.01157  0  3.799108  0  0  -0.062792  -0.018178  0  3.786329  0
C  C48  1  0.81275166  0.20744864  0.55495810  1  0  0.064259  0  3.633565  0  0  0.015651  0  3.896716  0  0  0.020738  0  3.906057  0  0  -0.069037  0.012178  0  3.888257  0
C  C49  1  0.68724925  0.20744694  0.05495753  1  0  0.064185  0  3.63375  0  0  0.015582  0  3.896865  0  0  0.020664  0  3.906215  0  0  -0.069063  0.012118  0  3.888381  0
C  C50  1  0.18724789  0.79254915  0.44504111  1  0  0.064207  0  3.633735  0  0  0.015554  0  3.896896  0  0  0.020637  0  3.906242  0  0  -0.069072  0.01207  0  3.888445  0
C  C51  1  0.31275167  0.79255195  0.94504287  1  0  0.064154  0  3.633744  0  0  0.015551  0  3.896866  0  0  0.020631  0  3.906215  0  0  -0.069069  0.012087  0  3.888384  0
N  N52  1  0.90874903  0.34944011  0.57486598  1  0  -0.688156  0  3.080538  0  0  -0.672756  0  3.326706  0  0  -0.694492  0  3.326177  0  0  -0.677536  -0.648438  0  3.326705  0
N  N53  1  0.59125433  0.34943857  0.07486649  1  0  -0.688096  0  3.080569  0  0  -0.672765  0  3.326735  0  0  -0.694503  0  3.326202  0  0  -0.67751  -0.648454  0  3.32676  0
N  N54  1  0.09125189  0.65055991  0.42513059  1  0  -0.688114  0  3.080464  0  0  -0.67273  0  3.326659  0  0  -0.694469  0  3.326133  0  0  -0.677472  -0.648403  0  3.326655  0
N  N55  1  0.40874796  0.65055921  0.92513472  1  0  -0.688166  0  3.080519  0  0  -0.672801  0  3.326718  0  0  -0.694529  0  3.326181  0  0  -0.677553  -0.648481  0  3.326721  0
N  N56  1  0.71140950  0.99921003  0.37567564  1  0  -0.505136  0  3.164336  0  0  -0.45266  0  3.374714  0  0  -0.468781  0  3.371822  0  0  -0.615182  -0.442333  0  3.377799  0
N  N57  1  0.78859363  0.99920737  0.87567449  1  0  -0.505096  0  3.164369  0  0  -0.452646  0  3.374699  0  0  -0.468769  0  3.371817  0  0  -0.615231  -0.442322  0  3.377787  0
N  N58  1  0.28859004  0.00078998  0.62432294  1  0  -0.505069  0  3.164455  0  0  -0.452626  0  3.374777  0  0  -0.46875  0  3.371893  0  0  -0.615174  -0.442301  0  3.37787  0
N  N59  1  0.21141003  0.00079262  0.12432709  1  0  -0.505115  0  3.16439  0  0  -0.452631  0  3.374753  0  0  -0.468755  0  3.371864  0  0  -0.615152  -0.442305  0  3.377846  0
O  O60  1  0.84925675  0.67107964  0.92907291  1  0  -0.972526  0  1.965434  0  0  -0.920483  0  2.240932  0  0  -0.954649  0  2.216665  0  0  -0.447988  -0.884458  0  2.263203  0
O  O61  1  0.65074007  0.67107909  0.42907456  1  0  -0.972527  0  1.965516  0  0  -0.920479  0  2.240989  0  0  -0.954645  0  2.216707  0  0  -0.44802  -0.884456  0  2.263269  0
O  O62  1  0.15074280  0.32892037  0.07092567  1  0  -0.972594  0  1.965511  0  0  -0.920497  0  2.240954  0  0  -0.954669  0  2.216681  0  0  -0.447996  -0.88447  0  2.263231  0
O  O63  1  0.34925674  0.32892312  0.57092539  1  0  -0.972543  0  1.965527  0  0  -0.920478  0  2.240957  0  0  -0.954638  0  2.216677  0  0  -0.448027  -0.884439  0  2.263239  0
O  O64  1  0.13479514  0.55127181  0.72855222  1  0  -1.062294  0  1.478057  0  0  -1.096745  0  1.77979  0  0  -1.15184  0  1.774049  0  0  -0.701624  -1.033507  0  1.799343  0
O  O65  1  0.36519829  0.55127200  0.22855086  1  0  -1.062294  0  1.478156  0  0  -1.096705  0  1.779857  0  0  -1.151807  0  1.774108  0  0  -0.701589  -1.033482  0  1.799394  0
O  O66  1  0.86520715  0.44873040  0.27144673  1  0  -1.062323  0  1.47813  0  0  -1.096746  0  1.779834  0  0  -1.15185  0  1.774088  0  0  -0.701628  -1.033519  0  1.799384  0
O  O67  1  0.63478618  0.44872691  0.77144753  1  0  -1.062377  0  1.478103  0  0  -1.09681  0  1.779799  0  0  -1.151906  0  1.774058  0  0  -0.701626  -1.033577  0  1.799346  0
O  O68  1  0.86801392  0.88145032  0.12534922  1  0  -0.904793  0  1.859593  0  0  -0.822031  0  2.086524  0  0  -0.851066  0  2.066069  0  0  -0.383658  -0.802503  0  2.102371  0
O  O69  1  0.63198701  0.88145124  0.62535077  1  0  -0.904796  0  1.859581  0  0  -0.822025  0  2.086507  0  0  -0.851074  0  2.066057  0  0  -0.383663  -0.802504  0  2.102355  0
O  O70  1  0.13198563  0.11855079  0.87465054  1  0  -0.904773  0  1.859596  0  0  -0.822046  0  2.086549  0  0  -0.851045  0  2.066064  0  0  -0.383675  -0.802515  0  2.102401  0
O  O71  1  0.36801254  0.11855096  0.37465118  1  0  -0.904786  0  1.859613  0  0  -0.82203  0  2.086531  0  0  -0.851055  0  2.066069  0  0  -0.383676  -0.802506  0  2.102381  0
O  O72  1  0.04261018  0.64457067  0.13407500  1  0  -0.96093  0  1.978781  0  0  -0.913094  0  2.266042  0  0  -0.950076  0  2.246078  0  0  -0.439466  -0.874435  0  2.282884  0
O  O73  1  0.45739143  0.64457100  0.63407627  1  0  -0.960996  0  1.978921  0  0  -0.913182  0  2.266198  0  0  -0.950159  0  2.246231  0  0  -0.439512  -0.874504  0  2.283028  0
O  O74  1  0.95738937  0.35543153  0.86592595  1  0  -0.960985  0  1.9789  0  0  -0.913144  0  2.266161  0  0  -0.950123  0  2.246198  0  0  -0.439472  -0.874486  0  2.283006  0
O  O75  1  0.54260812  0.35543121  0.36592368  1  0  -0.960997  0  1.97881  0  0  -0.913167  0  2.266067  0  0  -0.950147  0  2.246102  0  0  -0.439519  -0.874507  0  2.282914  0
O  O76  1  0.69115565  0.65432581  0.15037356  1  0  -0.951647  0  1.991346  0  0  -0.902449  0  2.273981  0  0  -0.938006  0  2.252914  0  0  -0.448017  -0.866214  0  2.293321  0
O  O77  1  0.80884430  0.65432311  0.65037339  1  0  -0.951711  0  1.991302  0  0  -0.902519  0  2.273951  0  0  -0.938056  0  2.252848  0  0  -0.448059  -0.866285  0  2.293266  0
O  O78  1  0.30884390  0.34567639  0.84962639  1  0  -0.951616  0  1.991298  0  0  -0.902454  0  2.273984  0  0  -0.938007  0  2.252914  0  0  -0.448034  -0.866204  0  2.293327  0
O  O79  1  0.19115525  0.34567688  0.34962719  1  0  -0.951648  0  1.991266  0  0  -0.902495  0  2.273948  0  0  -0.938048  0  2.252864  0  0  -0.44805  -0.866259  0  2.293268  0
