# generated using pymatgen
data_NaH9C2O5
_symmetry_space_group_name_H-M   'P 1'
_cell_length_a   7.94683289
_cell_length_b   7.94683409
_cell_length_c   10.18875284
_cell_angle_alpha   74.54839266
_cell_angle_beta   74.54832643
_cell_angle_gamma   81.64963195
_symmetry_Int_Tables_number   1
_chemical_formula_structural   NaH9C2O5
_chemical_formula_sum   'Na4 H36 C8 O20'
_cell_volume   595.85690673
_cell_formula_units_Z   4
loop_
 _symmetry_equiv_pos_site_id
 _symmetry_equiv_pos_as_xyz
  1  'x, y, z'
loop_
 _atom_site_type_symbol
 _atom_site_label
 _atom_site_symmetry_multiplicity
 _atom_site_fract_x
 _atom_site_fract_y
 _atom_site_fract_z
 _atom_site_occupancy
 _atom_site_hle17_bader_spin_density
 _atom_site_hle17_ddec_charge
 _atom_site_hle17_ddec_spin_density
 _atom_site_hle17_ddec_sum_bond_order
 _atom_site_hle17_magmom
 _atom_site_hse06_10hf_bader_spin_density
 _atom_site_hse06_10hf_ddec_charge
 _atom_site_hse06_10hf_ddec_spin_density
 _atom_site_hse06_10hf_ddec_sum_bond_order
 _atom_site_hse06_10hf_magmom
 _atom_site_hse06_bader_spin_density
 _atom_site_hse06_ddec_charge
 _atom_site_hse06_ddec_spin_density
 _atom_site_hse06_ddec_sum_bond_order
 _atom_site_hse06_magmom
 _atom_site_pbe_bader_spin_density
 _atom_site_pbe_cm5_charge
 _atom_site_pbe_ddec_charge
 _atom_site_pbe_ddec_spin_density
 _atom_site_pbe_ddec_sum_bond_order
 _atom_site_pbe_magmom
Na  Na0  1  0.51306161  0.65530904  0.58108142  1  0  0.893747  0  0.389075  0  0  0.851572  0  0.541048  0  0  0.860835  0  0.519798  0  0  0.657152  0.844822  0  0.556277  0
Na  Na1  1  0.34469005  0.48693828  0.91891868  1  0  0.893743  0  0.389074  0  0  0.851569  0  0.541049  0  0  0.860833  0  0.519801  0  0  0.657154  0.844824  0  0.55628  0
Na  Na2  1  0.48693767  0.34468938  0.41891856  1  0  0.89375  0  0.389072  0  0  0.851567  0  0.541058  0  0  0.860831  0  0.519804  0  0  0.657141  0.844811  0  0.556284  0
Na  Na3  1  0.65530902  0.51306276  0.08108177  1  0  0.893735  0  0.389088  0  0  0.851564  0  0.541057  0  0  0.860836  0  0.519797  0  0  0.657153  0.844815  0  0.556287  0
H  H4  1  0.86249987  0.90513969  0.36840822  1  0  0.133516  0  0.960695  0  0  0.149636  0  1.024865  0  0  0.152919  0  1.022978  0  0  0.097811  0.147126  0  1.026509  0
H  H5  1  0.09486053  0.13750072  0.13159176  1  0  0.133527  0  0.960698  0  0  0.149647  0  1.024867  0  0  0.15293  0  1.022982  0  0  0.097818  0.147139  0  1.026512  0
H  H6  1  0.13749931  0.09486004  0.63159346  1  0  0.133541  0  0.960731  0  0  0.149652  0  1.024904  0  0  0.152935  0  1.023016  0  0  0.097811  0.147139  0  1.02655  0
H  H7  1  0.90513985  0.86250032  0.86840841  1  0  0.133508  0  0.960709  0  0  0.149631  0  1.024872  0  0  0.152913  0  1.022985  0  0  0.097807  0.147121  0  1.026519  0
H  H8  1  0.01038267  0.71290294  0.37934559  1  0  0.141893  0  0.943585  0  0  0.162012  0  1.002203  0  0  0.165096  0  1.000429  0  0  0.105444  0.159755  0  1.003599  0
H  H9  1  0.28709809  0.98961712  0.12065467  1  0  0.141898  0  0.94356  0  0  0.162002  0  1.002192  0  0  0.165097  0  1.000405  0  0  0.105446  0.159747  0  1.003585  0
H  H10  1  0.98961781  0.28709679  0.62065484  1  0  0.141884  0  0.943549  0  0  0.162001  0  1.002167  0  0  0.165086  0  1.00039  0  0  0.10543  0.159743  0  1.003557  0
H  H11  1  0.71290381  0.01038131  0.87934574  1  0  0.141895  0  0.94359  0  0  0.162004  0  1.002216  0  0  0.165088  0  1.000442  0  0  0.105445  0.159748  0  1.003609  0
H  H12  1  0.07442129  0.90517284  0.40074070  1  0  0.136134  0  0.957987  0  0  0.157789  0  1.014556  0  0  0.159454  0  1.015347  0  0  0.10007  0.156547  0  1.014033  0
H  H13  1  0.09482653  0.92557986  0.09925870  1  0  0.136136  0  0.958004  0  0  0.157791  0  1.014571  0  0  0.159456  0  1.015364  0  0  0.100064  0.156549  0  1.014051  0
H  H14  1  0.92557800  0.09482558  0.59926026  1  0  0.136123  0  0.957987  0  0  0.157765  0  1.014577  0  0  0.159433  0  1.015365  0  0  0.100058  0.156521  0  1.014057  0
H  H15  1  0.90517383  0.07442117  0.90073952  1  0  0.136137  0  0.957977  0  0  0.157791  0  1.014547  0  0  0.159456  0  1.015338  0  0  0.10007  0.156551  0  1.014023  0
H  H16  1  0.36418494  0.96720273  0.39342169  1  0  0.414371  0  0.889763  0  0  0.384532  0  0.952673  0  0  0.39453  0  0.937904  0  0  0.290768  0.377457  0  0.963125  0
H  H17  1  0.03279533  0.63581543  0.10657805  1  0  0.41435  0  0.889797  0  0  0.384504  0  0.95272  0  0  0.394501  0  0.937953  0  0  0.290758  0.377429  0  0.963176  0
H  H18  1  0.63581543  0.03279831  0.60657750  1  0  0.414372  0  0.889773  0  0  0.384531  0  0.952685  0  0  0.394528  0  0.937918  0  0  0.290767  0.377456  0  0.963139  0
H  H19  1  0.96720385  0.36418430  0.89342266  1  0  0.41436  0  0.889781  0  0  0.384518  0  0.952696  0  0  0.394517  0  0.937927  0  0  0.290766  0.377446  0  0.963146  0
H  H20  1  0.53643623  0.89834460  0.30195565  1  0  0.411978  0  0.89913  0  0  0.378486  0  0.967602  0  0  0.389846  0  0.950944  0  0  0.288694  0.370417  0  0.979443  0
H  H21  1  0.10165533  0.46356528  0.19804335  1  0  0.411977  0  0.89913  0  0  0.378489  0  0.967595  0  0  0.38985  0  0.950936  0  0  0.288685  0.370422  0  0.979436  0
H  H22  1  0.46356425  0.10165512  0.69804380  1  0  0.411989  0  0.899116  0  0  0.378493  0  0.967595  0  0  0.389854  0  0.950934  0  0  0.288692  0.370424  0  0.979436  0
H  H23  1  0.89834504  0.53643577  0.80195682  1  0  0.411985  0  0.899121  0  0  0.378493  0  0.967594  0  0  0.389854  0  0.950933  0  0  0.288686  0.370424  0  0.979436  0
H  H24  1  0.73977279  0.62132434  0.31033836  1  0  0.415845  0  0.889873  0  0  0.385968  0  0.953136  0  0  0.396803  0  0.937243  0  0  0.290342  0.37826  0  0.964418  0
H  H25  1  0.37867494  0.26022792  0.18966173  1  0  0.415827  0  0.889896  0  0  0.385957  0  0.953147  0  0  0.396791  0  0.937255  0  0  0.290336  0.37825  0  0.964427  0
H  H26  1  0.26022768  0.37867538  0.68966109  1  0  0.415866  0  0.889847  0  0  0.385934  0  0.953186  0  0  0.396783  0  0.937292  0  0  0.29031  0.378225  0  0.964469  0
H  H27  1  0.62132543  0.73977312  0.81033844  1  0  0.415818  0  0.889908  0  0  0.385949  0  0.953157  0  0  0.396783  0  0.937264  0  0  0.290335  0.378243  0  0.964435  0
H  H28  1  0.81509474  0.45738925  0.40673406  1  0  0.416292  0  0.886556  0  0  0.38969  0  0.942934  0  0  0.399735  0  0.928287  0  0  0.293699  0.382578  0  0.9533  0
H  H29  1  0.54261027  0.18490584  0.09326591  1  0  0.416295  0  0.886552  0  0  0.389691  0  0.942934  0  0  0.399737  0  0.928284  0  0  0.293702  0.382582  0  0.953294  0
H  H30  1  0.18490574  0.54261049  0.59326636  1  0  0.416302  0  0.886544  0  0  0.389694  0  0.942932  0  0  0.39974  0  0.928282  0  0  0.293698  0.382583  0  0.953296  0
H  H31  1  0.45739011  0.81509521  0.90673524  1  0  0.416286  0  0.886564  0  0  0.389684  0  0.942941  0  0  0.399731  0  0.928291  0  0  0.293698  0.382573  0  0.953308  0
H  H32  1  0.61278710  0.30029332  0.70572839  1  0  0.42075  0  0.879641  0  0  0.394112  0  0.93743  0  0  0.403915  0  0.922947  0  0  0.290749  0.387138  0  0.947728  0
H  H33  1  0.69970708  0.38721362  0.79427204  1  0  0.420749  0  0.879642  0  0  0.394113  0  0.937426  0  0  0.403917  0  0.922942  0  0  0.290749  0.387139  0  0.947724  0
H  H34  1  0.38721337  0.69970641  0.29427105  1  0  0.42077  0  0.879612  0  0  0.394131  0  0.937402  0  0  0.403933  0  0.92292  0  0  0.290765  0.38716  0  0.947695  0
H  H35  1  0.30029330  0.61278743  0.20572911  1  0  0.420777  0  0.879597  0  0  0.394143  0  0.937379  0  0  0.403945  0  0.922897  0  0  0.290767  0.387166  0  0.947682  0
H  H36  1  0.25686124  0.84411379  0.78443856  1  0  0.423783  0  0.880051  0  0  0.393506  0  0.943093  0  0  0.402971  0  0.929176  0  0  0.294884  0.386813  0  0.952952  0
H  H37  1  0.15588645  0.74313958  0.71556030  1  0  0.423797  0  0.880027  0  0  0.393523  0  0.943065  0  0  0.402987  0  0.929147  0  0  0.294893  0.38683  0  0.952924  0
H  H38  1  0.74313782  0.15588724  0.21556091  1  0  0.42381  0  0.880015  0  0  0.393532  0  0.943059  0  0  0.402996  0  0.929143  0  0  0.294896  0.386839  0  0.952916  0
H  H39  1  0.84411403  0.25686015  0.28444012  1  0  0.42379  0  0.880037  0  0  0.393515  0  0.943076  0  0  0.402979  0  0.929161  0  0  0.294883  0.386817  0  0.952943  0
C  C40  1  0.88762678  0.77006511  0.57783578  1  0  0.771111  0  3.827834  0  0  0.719285  0  4.135931  0  0  0.752286  0  4.128167  0  0  0.222863  0.696823  0  4.140435  0
C  C41  1  0.22993539  0.11237448  0.92216362  1  0  0.771138  0  3.827808  0  0  0.719309  0  4.1359  0  0  0.752311  0  4.128134  0  0  0.222894  0.696845  0  4.140407  0
C  C42  1  0.11237500  0.22993462  0.42216339  1  0  0.771097  0  3.827866  0  0  0.719284  0  4.135942  0  0  0.752284  0  4.128181  0  0  0.22291  0.696825  0  4.140441  0
C  C43  1  0.77006368  0.88762656  0.07783585  1  0  0.771088  0  3.827801  0  0  0.719256  0  4.135903  0  0  0.752257  0  4.128141  0  0  0.222863  0.696795  0  4.140405  0
C  C44  1  0.96156976  0.82891907  0.42173849  1  0  -0.467672  0  3.652956  0  0  -0.543301  0  3.886214  0  0  -0.551046  0  3.889255  0  0  -0.245837  -0.537672  0  3.884053  0
C  C45  1  0.17108139  0.03843004  0.07826154  1  0  -0.467716  0  3.652946  0  0  -0.543329  0  3.886214  0  0  -0.551085  0  3.889245  0  0  -0.245854  -0.5377  0  3.884055  0
C  C46  1  0.03843083  0.17107935  0.57826219  1  0  -0.467706  0  3.652965  0  0  -0.543339  0  3.886256  0  0  -0.551088  0  3.889293  0  0  -0.245858  -0.537708  0  3.884088  0
C  C47  1  0.82892039  0.96156969  0.92173763  1  0  -0.46768  0  3.65297  0  0  -0.543307  0  3.886243  0  0  -0.551053  0  3.889285  0  0  -0.245851  -0.537681  0  3.88408  0
O  O48  1  0.72709723  0.81024686  0.62982650  1  0  -0.709676  0  1.987369  0  0  -0.643384  0  2.213174  0  0  -0.668107  0  2.20035  0  0  -0.352155  -0.626077  0  2.221741  0
O  O49  1  0.18975283  0.27290372  0.87017420  1  0  -0.70968  0  1.987342  0  0  -0.643374  0  2.213166  0  0  -0.668097  0  2.200351  0  0  -0.352169  -0.626068  0  2.221734  0
O  O50  1  0.27290347  0.18975025  0.37017444  1  0  -0.709662  0  1.987411  0  0  -0.643373  0  2.213217  0  0  -0.668095  0  2.200393  0  0  -0.352169  -0.62607  0  2.221784  0
O  O51  1  0.81024766  0.72709602  0.12982720  1  0  -0.709652  0  1.987334  0  0  -0.643352  0  2.213144  0  0  -0.668076  0  2.200321  0  0  -0.352143  -0.626048  0  2.221712  0
O  O52  1  0.99108168  0.67913351  0.65228444  1  0  -0.690925  0  2.017362  0  0  -0.610423  0  2.225967  0  0  -0.638348  0  2.215619  0  0  -0.312032  -0.590922  0  2.232826  0
O  O53  1  0.32086687  0.00891894  0.84771504  1  0  -0.690927  0  2.017355  0  0  -0.610423  0  2.225959  0  0  -0.638349  0  2.215609  0  0  -0.312027  -0.590921  0  2.232821  0
O  O54  1  0.00891749  0.32086622  0.34771626  1  0  -0.690897  0  2.01735  0  0  -0.610402  0  2.225948  0  0  -0.638326  0  2.215604  0  0  -0.312037  -0.590897  0  2.232801  0
O  O55  1  0.67913350  0.99108210  0.15228415  1  0  -0.690901  0  2.017342  0  0  -0.610399  0  2.225952  0  0  -0.638323  0  2.215606  0  0  -0.31203  -0.590893  0  2.232807  0
O  O56  1  0.43474489  0.85666039  0.38110873  1  0  -0.878443  0  1.800136  0  0  -0.82545  0  1.966891  0  0  -0.843762  0  1.934184  0  0  -0.635579  -0.812472  0  1.989959  0
O  O57  1  0.14333892  0.56525544  0.11889166  1  0  -0.878429  0  1.800157  0  0  -0.825434  0  1.966909  0  0  -0.843745  0  1.934203  0  0  -0.635558  -0.812452  0  1.989981  0
O  O58  1  0.56525690  0.14333935  0.61889142  1  0  -0.878447  0  1.800136  0  0  -0.825444  0  1.966888  0  0  -0.843754  0  1.934178  0  0  -0.635575  -0.812463  0  1.989957  0
O  O59  1  0.85666026  0.43474429  0.88110905  1  0  -0.878447  0  1.800148  0  0  -0.825453  0  1.966898  0  0  -0.843767  0  1.934188  0  0  -0.635575  -0.812475  0  1.989966  0
O  O60  1  0.71065269  0.54153492  0.40529194  1  0  -0.909626  0  1.793352  0  0  -0.864631  0  1.970318  0  0  -0.881883  0  1.938271  0  0  -0.697695  -0.852341  0  1.992908  0
O  O61  1  0.45846341  0.28934805  0.09470931  1  0  -0.909595  0  1.793368  0  0  -0.864606  0  1.970326  0  0  -0.88186  0  1.938279  0  0  -0.697685  -0.852321  0  1.992913  0
O  O62  1  0.28934791  0.45846351  0.59470972  1  0  -0.909643  0  1.793323  0  0  -0.864597  0  1.970362  0  0  -0.881875  0  1.938255  0  0  -0.697662  -0.852308  0  1.992952  0
O  O63  1  0.54153565  0.71065299  0.90529016  1  0  -0.909582  0  1.793379  0  0  -0.864598  0  1.97035  0  0  -0.881853  0  1.938302  0  0  -0.697688  -0.852311  0  1.99294  0
O  O64  1  0.60045929  0.39954111  0.74999978  1  0  -0.918243  0  1.780522  0  0  -0.87467  0  1.948983  0  0  -0.891002  0  1.917947  0  0  -0.682796  -0.863195  0  1.970946  0
O  O65  1  0.39953988  0.60045861  0.24999994  1  0  -0.91828  0  1.780486  0  0  -0.874709  0  1.948953  0  0  -0.891042  0  1.917918  0  0  -0.68282  -0.863231  0  1.970913  0
O  O66  1  0.26152943  0.73847025  0.75000008  1  0  -0.92795  0  1.795904  0  0  -0.884152  0  1.975953  0  0  -0.899506  0  1.943148  0  0  -0.695567  -0.873339  0  1.998985  0
O  O67  1  0.73847094  0.26153079  0.25000009  1  0  -0.927961  0  1.795877  0  0  -0.884163  0  1.975927  0  0  -0.89952  0  1.94313  0  0  -0.695563  -0.873349  0  1.998963  0
