# generated using pymatgen
data_ZnH15C20N3O4
_symmetry_space_group_name_H-M   'P 1'
_cell_length_a   13.13593089
_cell_length_b   15.87613162
_cell_length_c   17.26607346
_cell_angle_alpha   87.51537802
_cell_angle_beta   89.42156586
_cell_angle_gamma   79.76657525
_symmetry_Int_Tables_number   1
_chemical_formula_structural   ZnH15C20N3O4
_chemical_formula_sum   'Zn2 H30 C40 N6 O8'
_cell_volume   3540.17823766
_cell_formula_units_Z   2
loop_
 _symmetry_equiv_pos_site_id
 _symmetry_equiv_pos_as_xyz
  1  'x, y, z'
loop_
 _atom_site_type_symbol
 _atom_site_label
 _atom_site_symmetry_multiplicity
 _atom_site_fract_x
 _atom_site_fract_y
 _atom_site_fract_z
 _atom_site_occupancy
 _atom_site_pbe_bader_charge
 _atom_site_pbe_bader_spin_density
 _atom_site_pbe_cm5_charge
 _atom_site_pbe_ddec_charge
 _atom_site_pbe_ddec_spin_density
 _atom_site_pbe_ddec_sum_bond_order
 _atom_site_pbe_magmom
Zn  Zn0  1  0.48866414  0.58860524  0.50213708  1  1.278795  0  0.66347  0.811285  0  2.442923  0
Zn  Zn1  1  0.51005963  0.41141790  0.49797915  1  1.277588  0  0.66345  0.810293  0  2.442709  0
H  H2  1  0.18165103  0.43882940  0.42171018  1  0.063817  0  0.102765  0.110139  0  0.994692  0
H  H3  1  0.81716718  0.56132108  0.57831660  1  0.070857  0  0.10248  0.11022  0  0.994858  0
H  H4  1  0.61727088  0.11480889  0.38497780  1  0.114284  0  0.12186  0.132112  0  0.977391  0
H  H5  1  0.38287491  0.88519925  0.61554108  1  0.110417  0  0.122178  0.132437  0  0.977126  0
H  H6  1  0.60889853  0.27511827  0.39564793  1  0.120683  0  0.131547  0.105446  0  0.978355  0
H  H7  1  0.39038947  0.72499898  0.60472549  1  0.11372  0  0.131672  0.106141  0  0.976669  0
H  H8  1  0.02171676  0.39507125  0.37429001  1  0.065138  0  0.097421  0.100338  0  1.027979  0
H  H9  1  0.97689872  0.60546654  0.62543929  1  0.05378  0  0.097593  0.100219  0  1.026868  0
H  H10  1  0.44209043  0.61568373  0.74900643  1  0.087435  0  0.101741  0.103458  0  1.006503  0
H  H11  1  0.57554718  0.38374173  0.25345407  1  0.067659  0  0.102089  0.103661  0  1.008221  0
H  H12  1  0.45315883  0.60988068  0.89475111  1  0.094444  0  0.103526  0.103358  0  1.019939  0
H  H13  1  0.57898632  0.38876380  0.10748895  1  0.090678  0  0.103804  0.103674  0  1.017841  0
H  H14  1  0.47199555  0.66065417  0.10503534  1  0.078329  0  0.105934  0.107597  0  0.996848  0
H  H15  1  0.56002185  0.33815394  0.89331425  1  0.074977  0  0.105569  0.107609  0  0.996654  0
H  H16  1  0.46947687  0.65534366  0.25160651  1  0.101214  0  0.105164  0.110532  0  0.997478  0
H  H17  1  0.54805178  0.34426047  0.74706064  1  0.096389  0  0.104821  0.110316  0  0.996563  0
H  H18  1  0.58323987  0.71836753  0.41368151  1  0.147977  0  0.133361  0.110629  0  0.963423  0
H  H19  1  0.41540794  0.28136877  0.58631878  1  0.142216  0  0.133877  0.110966  0  0.960895  0
H  H20  1  0.58461123  0.87759377  0.41623179  1  0.123268  0  0.119298  0.126583  0  1.000315  0
H  H21  1  0.41492207  0.12202506  0.58389500  1  0.116545  0  0.119141  0.126709  0  1.000625  0
H  H22  1  0.05044732  0.70672914  0.67924639  1  0.015687  0  0.08276  0.105964  0  1.011041  0
H  H23  1  0.09040158  0.60880703  0.73322100  1  0.035486  0  0.086323  0.1132  0  1.001615  0
H  H24  1  0.16572655  0.69097047  0.73448766  1  0.015503  0  0.083095  0.107114  0  1.008232  0
H  H25  1  0.25291607  0.58038141  0.64915182  1  0.068945  0  0.09313  0.096235  0  0.97637  0
H  H26  1  0.20915646  0.67392159  0.59399953  1  0.041367  0  0.091003  0.091439  0  0.988069  0
H  H27  1  0.90817333  0.39269330  0.26653176  1  0.02796  0  0.086182  0.113219  0  1.001078  0
H  H28  1  0.94816345  0.29431690  0.31984413  1  0.037355  0  0.082906  0.106094  0  1.01017  0
H  H29  1  0.83281669  0.31060817  0.26465332  1  0.004947  0  0.082771  0.107148  0  1.00856  0
H  H30  1  0.78975467  0.32646045  0.40541332  1  0.047975  0  0.090813  0.090745  0  0.988256  0
H  H31  1  0.74570920  0.42025544  0.35070644  1  0.053697  0  0.092325  0.094219  0  0.980906  0
C  C32  1  0.51136306  0.51393735  0.34733935  1  1.548046  0  0.212586  0.584958  0  4.18236  0
C  C33  1  0.49407451  0.48594104  0.65293042  1  1.556825  0  0.212887  0.586493  0  4.179399  0
C  C34  1  0.55485616  0.44635945  0.13980841  1  -0.106868  0  -0.085389  -0.140684  0  3.955955  0
C  C35  1  0.47436779  0.55256732  0.86158849  1  -0.015503  0  -0.086207  -0.142923  0  3.960228  0
C  C36  1  0.52266363  0.52490585  0.09853785  1  0.362095  0  0.08648  0.170822  0  4.046924  0
C  C37  1  0.50988472  0.47381371  0.90162498  1  0.351197  0  0.085869  0.172249  0  4.048626  0
C  C38  1  0.49468903  0.60064712  0.13872329  1  0.050239  0  -0.082324  -0.1431  0  3.963926  0
C  C39  1  0.53447247  0.39838891  0.86057460  1  -0.062184  0  -0.081676  -0.142293  0  3.963387  0
C  C40  1  0.49324673  0.59760375  0.21936409  1  -0.123698  0  -0.083659  -0.087345  0  3.981429  0
C  C41  1  0.52772577  0.40181894  0.78008835  1  0.017332  0  -0.084421  -0.087755  0  3.980918  0
C  C42  1  0.45879825  0.24129005  0.54315581  1  0.504943  0  0.068159  0.118517  0  3.893683  0
C  C43  1  0.54025573  0.75852894  0.45696140  1  0.504677  0  0.067388  0.118091  0  3.895119  0
C  C44  1  0.45870596  0.15406273  0.54169818  1  -0.014356  0  -0.067999  -0.180634  0  3.910386  0
C  C45  1  0.54081590  0.84567613  0.45850530  1  -0.018752  0  -0.067505  -0.178961  0  3.909678  0
C  C46  1  0.51694082  0.10754719  0.48398150  1  0.296698  0  0.106019  0.199749  0  4.033189  0
C  C47  1  0.48296018  0.89226543  0.51635569  1  0.306902  0  0.105052  0.19765  0  4.033649  0
C  C48  1  0.57216462  0.15029599  0.43010798  1  0.002619  0  -0.064169  -0.179845  0  3.913455  0
C  C49  1  0.42770093  0.84964564  0.57031207  1  -0.000471  0  -0.06402  -0.179264  0  3.912412  0
C  C50  1  0.56798863  0.23794626  0.43588271  1  0.524256  0  0.068119  0.114289  0  3.9039  0
C  C51  1  0.43138661  0.76205944  0.56445018  1  0.530074  0  0.067674  0.112502  0  3.905276  0
C  C52  1  0.70087498  0.48029236  0.49660093  1  1.531763  0  0.217413  0.607067  0  4.157072  0
C  C53  1  0.29803112  0.51962614  0.50362264  1  1.533355  0  0.215864  0.603189  0  4.158874  0
C  C54  1  0.18387414  0.52361188  0.51415584  1  -0.000556  0  -0.017445  -0.076325  0  3.948392  0
C  C55  1  0.81491817  0.47661659  0.48581398  1  -0.025261  0  -0.018532  -0.079442  0  3.953178  0
C  C56  1  0.97614090  0.42977430  0.41978077  1  -0.021449  0  -0.098326  -0.201369  0  3.968364  0
C  C57  1  0.02253593  0.57075784  0.57997207  1  -0.052332  0  -0.098433  -0.200441  0  3.967989  0
C  C58  1  0.87157169  0.42777377  0.42636858  1  -0.033664  0  -0.006733  0.100191  0  3.926244  0
C  C59  1  0.12713961  0.57268296  0.57344395  1  -0.02263  0  -0.006937  0.097998  0  3.92785  0
C  C60  1  0.86336118  0.52373687  0.53475475  1  -0.010643  0  -0.086959  -0.146053  0  3.969306  0
C  C61  1  0.13540879  0.47656380  0.46514675  1  -0.0119  0  -0.087915  -0.147967  0  3.969052  0
C  C62  1  0.97067014  0.52427402  0.52948224  1  0.010191  0  -0.012122  0.07628  0  4.049926  0
C  C63  1  0.02805513  0.47620631  0.47028807  1  -0.071394  0  -0.013181  0.076526  0  4.050252  0
C  C64  1  0.52023864  0.51895193  0.26063816  1  -0.011813  0  -0.012922  -0.021624  0  3.945019  0
C  C65  1  0.49589785  0.48053202  0.73985526  1  -0.001197  0  -0.012244  -0.022876  0  3.947707  0
C  C66  1  0.55304102  0.44389601  0.22010606  1  0.067745  0  -0.083394  -0.084196  0  3.987874  0
C  C67  1  0.46799445  0.55543608  0.78147009  1  -0.066779  0  -0.083651  -0.082657  0  3.988238  0
C  C68  1  0.18158137  0.62214110  0.62811070  1  -0.026241  0  -0.163716  -0.143833  0  3.982943  0
C  C69  1  0.11819137  0.65899523  0.69731910  1  -0.069597  0  -0.246055  -0.350328  0  4.004255  0
C  C70  1  0.81713552  0.37848815  0.37153234  1  -0.016201  0  -0.163468  -0.142185  0  3.979037  0
C  C71  1  0.88042553  0.34220165  0.30208125  1  -0.071311  0  -0.246329  -0.351023  0  4.002253  0
N  N72  1  0.51396479  0.53416932  0.01707872  1  -0.53027  0  -0.151201  -0.13926  0  3.287714  0
N  N73  1  0.52178424  0.46417545  0.98288489  1  -0.490304  0  -0.152644  -0.143408  0  3.284617  0
N  N74  1  0.51266312  0.28214067  0.49141258  1  -1.228476  0  -0.309087  -0.180574  0  3.491731  0
N  N75  1  0.48629394  0.71782769  0.50875349  1  -1.240378  0  -0.308057  -0.179897  0  3.493524  0
N  N76  1  0.52475819  0.01821353  0.47497769  1  -0.466822  0  -0.130105  -0.116483  0  3.232025  0
N  N77  1  0.47535520  0.98156022  0.52538044  1  -0.422398  0  -0.1297  -0.115258  0  3.233127  0
O  O78  1  0.49714496  0.58418528  0.38224134  1  -1.158679  0  -0.318128  -0.549895  0  2.315306  0
O  O79  1  0.50608782  0.41581028  0.61793820  1  -1.175773  0  -0.31898  -0.549875  0  2.312773  0
O  O80  1  0.51785522  0.43930307  0.37931976  1  -1.166324  0  -0.318523  -0.556884  0  2.333785  0
O  O81  1  0.48163428  0.56084808  0.62075307  1  -1.169614  0  -0.318468  -0.558202  0  2.336807  0
O  O82  1  0.64667594  0.55449840  0.50436339  1  -1.165026  0  -0.322366  -0.55894  0  2.325665  0
O  O83  1  0.35218873  0.44519490  0.49711113  1  -1.160261  0  -0.321306  -0.556208  0  2.325  0
O  O84  1  0.66644490  0.41014559  0.49773355  1  -1.157951  0  -0.317106  -0.544806  0  2.320561  0
O  O85  1  0.33256689  0.58974869  0.50139447  1  -1.151006  0  -0.316173  -0.542857  0  2.320715  0
