# generated using pymatgen
data_Mn2H10C8O13
_symmetry_space_group_name_H-M   'P 1'
_cell_length_a   7.55201830
_cell_length_b   8.90205047
_cell_length_c   10.86551994
_cell_angle_alpha   90.00006941
_cell_angle_beta   90.00025197
_cell_angle_gamma   98.74842006
_symmetry_Int_Tables_number   1
_chemical_formula_structural   Mn2H10C8O13
_chemical_formula_sum   'Mn4 H20 C16 O26'
_cell_volume   721.97351572
_cell_formula_units_Z   2
loop_
 _symmetry_equiv_pos_site_id
 _symmetry_equiv_pos_as_xyz
  1  'x, y, z'
loop_
 _atom_site_type_symbol
 _atom_site_label
 _atom_site_symmetry_multiplicity
 _atom_site_fract_x
 _atom_site_fract_y
 _atom_site_fract_z
 _atom_site_occupancy
 _atom_site_hle17_ddec_charge
 _atom_site_hle17_ddec_spin_density
 _atom_site_hle17_ddec_sum_bond_order
 _atom_site_hle17_magmom
 _atom_site_hse06_10hf_ddec_charge
 _atom_site_hse06_10hf_ddec_spin_density
 _atom_site_hse06_10hf_ddec_sum_bond_order
 _atom_site_hse06_10hf_magmom
 _atom_site_hse06_ddec_charge
 _atom_site_hse06_ddec_spin_density
 _atom_site_hse06_ddec_sum_bond_order
 _atom_site_hse06_magmom
 _atom_site_pbe_cm5_charge
 _atom_site_pbe_ddec_charge
 _atom_site_pbe_ddec_spin_density
 _atom_site_pbe_ddec_sum_bond_order
 _atom_site_pbe_magmom
Mn  Mn0  1  0.73844680  0.74198807  0.00011196  1  1.221926  4.809646  1.6644  4.69  1.057952  4.742056  2.154293  4.558  1.119  4.7795  2.081171  4.614  0.597759  1.009728  4.704652  2.207716  4.504
Mn  Mn1  1  0.26156587  0.25802244  0.50008613  1  1.221974  4.809512  1.66461  4.69  1.057977  4.741925  2.154561  4.558  1.119028  4.779376  2.081428  4.614  0.597731  1.009743  4.704514  2.207996  4.504
Mn  Mn2  1  0.84546104  0.72698568  0.48838788  1  1.223328  4.802768  1.65565  4.688  1.062015  4.737112  2.139409  4.557  1.121737  4.773733  2.06773  4.613  0.600043  1.014479  4.70125  2.192641  4.504
Mn  Mn3  1  0.15454678  0.27301124  0.98838842  1  1.223259  4.802736  1.655707  4.688  1.061971  4.737074  2.139463  4.557  1.121682  4.773696  2.067812  4.613  0.599993  1.014464  4.701207  2.192635  4.504
H  H4  1  0.86652586  0.12096683  0.16456326  1  0.0863  -0.000449  0.967113  0.0  0.090279  -0.000137  1.038044  0.0  0.092821  -0.000339  1.036652  0.0  0.125389  0.088586  -3.4e-05  1.039013  0.001
H  H5  1  0.13347800  0.87904072  0.66456248  1  0.08635  -0.000449  0.96704  0.0  0.090292  -0.000137  1.03803  0.0  0.092829  -0.000338  1.036643  0.0  0.125403  0.0886  -3.3e-05  1.038993  0.001
H  H6  1  0.71204146  0.10935421  0.35783862  1  0.087428  -0.000118  0.925195  0.0  0.090743  0.000317  0.994955  0.001  0.093558  8.5e-05  0.992278  0.001  0.122487  0.088216  0.000593  0.997658  0.001
H  H7  1  0.28796900  0.89064694  0.85783098  1  0.087406  -0.000118  0.925242  0.0  0.090723  0.000316  0.994981  0.001  0.093544  8.5e-05  0.992302  0.001  0.122465  0.088204  0.000593  0.997693  0.001
H  H8  1  0.61623564  0.34763254  0.16194092  1  0.095001  -5.8e-05  0.945466  0.0  0.098755  0.000387  1.013985  0.001  0.101428  0.000151  1.012128  0.0  0.123775  0.096912  0.000496  1.015365  0.001
H  H9  1  0.38376470  0.65237048  0.66194531  1  0.094998  -5.7e-05  0.945481  0.0  0.09875  0.000387  1.014015  0.001  0.101417  0.000151  1.012158  0.0  0.123781  0.096911  0.000496  1.01539  0.001
H  H10  1  0.81642375  0.33967792  0.32314382  1  0.082738  -0.000279  0.927503  0.0  0.086825  0.000187  0.998047  0.001  0.088956  -7.7e-05  0.996049  0.0  0.123331  0.085055  0.000482  1.000085  0.001
H  H11  1  0.18357501  0.66032550  0.82315128  1  0.082743  -0.000279  0.927509  0.0  0.086811  0.000186  0.998036  0.001  0.08894  -7.7e-05  0.996036  0.0  0.123319  0.085042  0.000482  1.000089  0.001
H  H12  1  0.01267545  0.94052082  0.13702475  1  0.388222  -0.000413  0.85289  0.001  0.367733  0.000247  0.914776  0.001  0.377869  -9.1e-05  0.903739  0.001  0.317022  0.360321  0.000613  0.922846  0.002
H  H13  1  0.98732869  0.05948212  0.63703137  1  0.38828  -0.000414  0.852863  0.001  0.367773  0.000247  0.914774  0.001  0.377909  -9.1e-05  0.90374  0.001  0.317028  0.360362  0.000612  0.922833  0.002
H  H14  1  0.57371923  0.90569074  0.42755474  1  0.396864  -7.6e-05  0.823044  0.001  0.376945  0.0007  0.885245  0.001  0.386826  0.000312  0.874104  0.001  0.331974  0.36983  0.001061  0.893268  0.001
H  H15  1  0.42628333  0.09430835  0.92755780  1  0.396874  -7.8e-05  0.823131  0.001  0.376968  0.0007  0.885304  0.001  0.386848  0.000312  0.874166  0.001  0.33199  0.369855  0.00106  0.893328  0.001
H  H16  1  0.50587797  0.53759255  0.10606869  1  0.377392  -0.000376  0.903573  0.0  0.353828  0.000291  0.972683  0.001  0.364921  -2e-06  0.960531  0.001  0.305792  0.345919  0.000582  0.981233  0.001
H  H17  1  0.49411453  0.46240583  0.60607416  1  0.377422  -0.000377  0.903594  0.0  0.353887  0.00029  0.972664  0.001  0.364977  -3e-06  0.960502  0.001  0.305859  0.345986  0.000582  0.981199  0.001
H  H18  1  0.00120919  0.51931770  0.38937693  1  0.381577  -0.000339  0.902026  0.0  0.355614  0.000391  0.973636  0.001  0.367254  8.4e-05  0.96098  0.001  0.305745  0.347308  0.000708  0.982653  0.001
H  H19  1  0.99877900  0.48068367  0.88937847  1  0.38147  -0.000338  0.902081  0.0  0.355513  0.00039  0.973696  0.001  0.367153  8.4e-05  0.961041  0.001  0.305696  0.347208  0.000707  0.982717  0.001
H  H20  1  0.67230059  0.89387865  0.64720935  1  0.429588  -3.3e-05  0.883364  0.001  0.39394  0.000712  0.953967  0.001  0.406546  0.000444  0.935889  0.001  0.290446  0.385028  0.000962  0.966698  0.002
H  H21  1  0.32770102  0.10611750  0.14721119  1  0.429536  -3.3e-05  0.883433  0.001  0.393893  0.000713  0.954031  0.001  0.406501  0.000444  0.935952  0.001  0.290417  0.384983  0.000963  0.96676  0.002
H  H22  1  0.83458803  0.84023927  0.72437110  1  0.427066  -0.000609  0.866384  0.001  0.400856  0.00022  0.925286  0.002  0.410827  -0.000102  0.910779  0.001  0.306936  0.393758  0.00055  0.935613  0.002
H  H23  1  0.16540350  0.15975713  0.22436972  1  0.4271  -0.000608  0.866311  0.001  0.400877  0.00022  0.925249  0.002  0.410849  -0.000102  0.91074  0.001  0.306918  0.39378  0.00055  0.935575  0.002
C  C24  1  0.61251002  0.00321436  0.12475063  1  0.662346  0.00264  3.858122  0.003  0.608101  0.006235  4.16586  0.006  0.642156  0.004448  4.158256  0.005  0.220812  0.584653  0.007564  4.169977  0.007
C  C25  1  0.38749604  0.99678512  0.62475812  1  0.662189  0.002644  3.85836  0.003  0.60789  0.006236  4.166168  0.006  0.641955  0.004448  4.158546  0.005  0.220633  0.584427  0.007567  4.170306  0.007
C  C26  1  0.79208428  0.00932633  0.19045048  1  0.045215  0.000489  3.619382  0.001  0.017817  0.002098  3.8723  0.002  0.018372  0.00123  3.88048  0.001  -0.004885  0.016942  0.003111  3.867038  0.003
C  C27  1  0.20791822  0.99068016  0.69044821  1  0.0452  0.00049  3.619493  0.001  0.017807  0.002097  3.872432  0.002  0.018359  0.00123  3.880614  0.001  -0.004882  0.016948  0.003107  3.867159  0.003
C  C28  1  0.77604327  0.01131968  0.33145338  1  0.061151  0.001645  3.598523  0.002  0.028689  0.003371  3.860702  0.003  0.030938  0.002169  3.866122  0.002  0.001785  0.027071  0.00457  3.857541  0.004
C  C29  1  0.22396549  0.98868027  0.83145115  1  0.061013  0.001643  3.598628  0.002  0.028581  0.00337  3.860774  0.003  0.030825  0.002162  3.866199  0.002  0.001809  0.02695  0.00457  3.857634  0.004
C  C30  1  0.96773822  0.03025689  0.38204215  1  0.64482  0.009274  3.850006  0.009  0.588032  0.016995  4.157891  0.015  0.62261  0.012637  4.150739  0.012  0.22401  0.563798  0.021531  4.161992  0.019
C  C31  1  0.03226032  0.96973643  0.88203930  1  0.645012  0.009268  3.850054  0.009  0.588266  0.016987  4.15787  0.015  0.622841  0.012631  4.150718  0.012  0.224118  0.564039  0.021522  4.161967  0.018
C  C32  1  0.86290314  0.45241429  0.08827070  1  0.676656  0.005354  3.800171  0.006  0.617003  0.01182  4.106915  0.011  0.652262  0.00861  4.099752  0.009  0.235656  0.592512  0.015219  4.110688  0.014
C  C33  1  0.13708917  0.54759771  0.58827790  1  0.676601  0.00535  3.800918  0.006  0.61706  0.011815  4.107449  0.011  0.652314  0.008607  4.100294  0.009  0.235677  0.592567  0.015213  4.111228  0.014
C  C34  1  0.70723230  0.45524166  0.17752159  1  0.052348  0.002162  3.631748  0.002  0.024217  0.004022  3.888841  0.004  0.024871  0.002754  3.896679  0.003  -0.001397  0.023353  0.005424  3.883763  0.005
C  C35  1  0.29276021  0.54476145  0.67751915  1  0.052407  0.00216  3.631721  0.002  0.024161  0.00402  3.888829  0.004  0.024819  0.002752  3.896663  0.003  -0.001361  0.023294  0.005421  3.88376  0.005
C  C36  1  0.76846668  0.44967664  0.31106615  1  0.068236  0.002535  3.61946  0.003  0.040842  0.00469  3.874505  0.004  0.042647  0.003308  3.881724  0.003  0.003996  0.039369  0.006074  3.869911  0.005
C  C37  1  0.23153132  0.55033017  0.81106720  1  0.068171  0.002534  3.619494  0.003  0.040925  0.004688  3.874305  0.004  0.042731  0.003308  3.881527  0.003  0.004025  0.039451  0.006073  3.869722  0.005
C  C38  1  0.61029424  0.44884429  0.39993049  1  0.668931  0.006503  3.803546  0.007  0.611388  0.013227  4.109138  0.013  0.646252  0.009763  4.102464  0.01  0.234111  0.586898  0.016881  4.112759  0.016
C  C39  1  0.38970831  0.55116270  0.89992468  1  0.668995  0.006494  3.804171  0.007  0.611374  0.013217  4.109798  0.013  0.646235  0.009755  4.103128  0.01  0.234122  0.586886  0.01687  4.113417  0.016
O  O40  1  0.56768244  0.90530485  0.04087190  1  -0.635728  0.03105  1.993698  0.021  -0.575861  0.035584  2.25278  0.021  -0.605995  0.031748  2.237461  0.018  -0.311866  -0.553456  0.03984  2.262346  0.025
O  O41  1  0.43232232  0.09471150  0.54087958  1  -0.63576  0.031051  1.993508  0.021  -0.57587  0.035584  2.252616  0.021  -0.606011  0.031749  2.237291  0.018  -0.311881  -0.553447  0.03984  2.262181  0.025
O  O42  1  0.52418176  0.10655914  0.15658335  1  -0.616976  0.002419  2.014084  0.003  -0.562567  0.004401  2.243031  0.005  -0.588299  0.003092  2.231379  0.004  -0.310349  -0.544504  0.005896  2.250438  0.007
O  O43  1  0.47581325  0.89344391  0.65657445  1  -0.616933  0.002418  2.014651  0.003  -0.56241  0.004401  2.243501  0.005  -0.588141  0.003091  2.231846  0.004  -0.310169  -0.54434  0.005896  2.250914  0.007
O  O44  1  0.88748933  0.89097792  0.14929058  1  -0.543751  0.023479  2.127142  0.014  -0.486271  0.032076  2.367116  0.02  -0.505674  0.028594  2.353256  0.017  -0.369411  -0.471361  0.035221  2.3763  0.023
O  O45  1  0.11251400  0.10902733  0.64929359  1  -0.543784  0.023463  2.12717  0.014  -0.486281  0.03206  2.367113  0.02  -0.505689  0.028584  2.353263  0.017  -0.369431  -0.471377  0.035206  2.376276  0.023
O  O46  1  0.67107914  0.87463871  0.37867640  1  -0.532588  0.022324  2.074973  0.014  -0.477364  0.031471  2.310848  0.02  -0.495056  0.027919  2.2946  0.018  -0.365112  -0.464275  0.034554  2.32242  0.023
O  O47  1  0.32892928  0.12535795  0.87867091  1  -0.53256  0.022324  2.075086  0.014  -0.477358  0.031469  2.310961  0.02  -0.495048  0.027919  2.294715  0.018  -0.365152  -0.464267  0.03455  2.322538  0.023
O  O48  1  0.02743250  0.91641650  0.42464929  1  -0.600474  0.032328  2.041826  0.022  -0.539685  0.038585  2.298874  0.025  -0.569144  0.033718  2.286107  0.021  -0.292673  -0.517946  0.043333  2.306827  0.029
O  O49  1  0.97257187  0.08357119  0.92464024  1  -0.600565  0.032315  2.042059  0.022  -0.539824  0.038578  2.299141  0.025  -0.569269  0.033712  2.286358  0.021  -0.292797  -0.518088  0.043323  2.307085  0.029
O  O50  1  0.05866685  0.16383367  0.37161331  1  -0.66137  0.033504  2.049759  0.02  -0.592371  0.04241  2.313671  0.024  -0.621924  0.037384  2.296673  0.02  -0.311578  -0.57079  0.047152  2.324768  0.028
O  O51  1  0.94132834  0.83615623  0.87160582  1  -0.661389  0.033499  2.049437  0.02  -0.592434  0.042405  2.31334  0.024  -0.621993  0.037381  2.296347  0.02  -0.311547  -0.570833  0.047147  2.324404  0.028
O  O52  1  0.88212323  0.54858508  0.00002650  1  -0.634116  0.029054  2.060325  0.019  -0.561316  0.035798  2.30967  0.022  -0.592561  0.031965  2.295474  0.019  -0.289747  -0.538399  0.039906  2.318397  0.026
O  O53  1  0.11787479  0.45140391  0.50002249  1  -0.634272  0.029071  2.059929  0.019  -0.561463  0.03581  2.309179  0.022  -0.592718  0.031975  2.294986  0.019  -0.28981  -0.538532  0.039921  2.317903  0.026
O  O54  1  0.95905958  0.34938241  0.10376753  1  -0.628894  0.035549  2.057826  0.024  -0.561411  0.043282  2.324279  0.028  -0.592186  0.03816  2.309774  0.024  -0.300756  -0.539044  0.048754  2.333662  0.033
O  O55  1  0.04094910  0.65059651  0.60376532  1  -0.628781  0.035541  2.058881  0.024  -0.561297  0.043275  2.325238  0.028  -0.592047  0.038153  2.310716  0.024  -0.300777  -0.538926  0.048742  2.334619  0.033
O  O56  1  0.61459203  0.58123232  0.15441723  1  -0.547143  0.025036  2.100311  0.018  -0.494742  0.033364  2.335995  0.024  -0.51432  0.029196  2.32214  0.021  -0.377349  -0.479683  0.037305  2.34515  0.028
O  O57  1  0.38540323  0.41876503  0.65442324  1  -0.547172  0.025029  2.100148  0.018  -0.494829  0.033361  2.335884  0.024  -0.514394  0.029192  2.322033  0.021  -0.377456  -0.479774  0.037302  2.345043  0.028
O  O58  1  0.91299672  0.56820705  0.33935040  1  -0.550174  0.027728  2.096597  0.02  -0.494979  0.036378  2.333779  0.026  -0.514677  0.031977  2.318159  0.022  -0.377331  -0.479649  0.04026  2.34436  0.029
O  O59  1  0.08699336  0.43179192  0.83934996  1  -0.550063  0.027722  2.09653  0.02  -0.494876  0.036372  2.333616  0.026  -0.514568  0.031972  2.317987  0.022  -0.377277  -0.479541  0.040254  2.344196  0.029
O  O60  1  0.63304681  0.53904056  0.49313090  1  -0.651013  0.032709  2.040508  0.02  -0.578465  0.039865  2.292809  0.023  -0.609723  0.035311  2.277011  0.019  -0.300104  -0.55531  0.0445  2.303041  0.027
O  O61  1  0.36694385  0.46095649  0.99312400  1  -0.651043  0.032714  2.040537  0.02  -0.578507  0.039867  2.292932  0.023  -0.609763  0.035314  2.277135  0.019  -0.300179  -0.555342  0.044501  2.303157  0.027
O  O62  1  0.47140127  0.35506075  0.37910932  1  -0.608318  0.033964  2.021963  0.023  -0.547376  0.042569  2.285851  0.027  -0.576682  0.037116  2.270314  0.023  -0.29562  -0.525863  0.048062  2.296147  0.032
O  O63  1  0.52858928  0.64493945  0.87911508  1  -0.608321  0.03395  2.022438  0.023  -0.547347  0.042553  2.286292  0.027  -0.576645  0.0371  2.27076  0.023  -0.29556  -0.525835  0.048042  2.296583  0.032
O  O64  1  0.80426404  0.87735408  0.64234554  1  -0.866474  0.030703  1.906748  0.019  -0.799104  0.039393  2.111206  0.024  -0.825556  0.035313  2.075127  0.021  -0.562827  -0.779441  0.043059  2.136383  0.026
O  O65  1  0.19573797  0.12264433  0.14234422  1  -0.866469  0.030702  1.906745  0.019  -0.799069  0.039394  2.1112  0.024  -0.82552  0.035314  2.075118  0.021  -0.562772  -0.779411  0.04306  2.136375  0.026
