# generated using pymatgen
data_Al2H15C18S2ClO10
_symmetry_space_group_name_H-M   'P 1'
_cell_length_a   6.63672250
_cell_length_b   10.97372105
_cell_length_c   12.82437531
_cell_angle_alpha   79.97344134
_cell_angle_beta   73.77926731
_cell_angle_gamma   72.41474940
_symmetry_Int_Tables_number   1
_chemical_formula_structural   Al2H15C18S2ClO10
_chemical_formula_sum   'Al2 H15 C18 S2 Cl1 O10'
_cell_volume   850.78821946
_cell_formula_units_Z   1
loop_
 _symmetry_equiv_pos_site_id
 _symmetry_equiv_pos_as_xyz
  1  'x, y, z'
loop_
 _atom_site_type_symbol
 _atom_site_label
 _atom_site_symmetry_multiplicity
 _atom_site_fract_x
 _atom_site_fract_y
 _atom_site_fract_z
 _atom_site_occupancy
 _atom_site_pbe_bader_charge
 _atom_site_pbe_bader_spin_density
 _atom_site_pbe_cm5_charge
 _atom_site_pbe_ddec_charge
 _atom_site_pbe_ddec_spin_density
 _atom_site_pbe_ddec_sum_bond_order
 _atom_site_pbe_magmom
Al  Al0  1  0.50006615  0.49335103  0.49798488  1  2.502491  0  0.395976  1.638693  0  2.577528  0
Al  Al1  1  0.99742491  0.49979018  0.49743481  1  2.501296  0  0.39393  1.639906  0  2.57805  0
H  H2  1  0.21454581  0.41633375  0.62887361  1  0.603364  0  0.349297  0.428065  0  0.86046  0
H  H3  1  0.69731029  0.65244687  0.43406514  1  0.61453  0  0.349175  0.424744  0  0.865929  0
H  H4  1  0.76914092  0.40934097  0.14482691  1  0.115903  0  0.118341  0.141943  0  0.983532  0
H  H5  1  0.07811340  0.90116975  0.32572745  1  0.025936  0  0.091124  0.085243  0  0.980544  0
H  H6  1  0.81701874  0.90375968  0.41131170  1  0.046393  0  0.091812  0.087994  0  0.993104  0
H  H7  1  0.73553487  0.12818902  0.39460406  1  0.016403  0  0.096546  0.096849  0  0.984932  0
H  H8  1  0.00647964  0.12314789  0.32132522  1  0.030965  0  0.091384  0.087122  0  0.97773  0
H  H9  1  0.64285148  0.09864512  0.59871277  1  0.046917  0  0.094637  0.09497  0  0.989581  0
H  H10  1  0.83182212  0.09702368  0.67257817  1  0.036994  0  0.089881  0.084757  0  0.980549  0
H  H11  1  0.75771998  0.87343772  0.61539185  1  0.047975  0  0.092446  0.092923  0  0.992612  0
H  H12  1  0.96677025  0.87439129  0.67536230  1  0.010753  0  0.085473  0.081546  0  0.994828  0
H  H13  1  0.38340818  0.89670594  0.41228622  1  -0.000626  0  0.088245  0.081994  0  0.993312  0
H  H14  1  0.34494930  0.87330516  0.55502136  1  0.043201  0  0.090667  0.087723  0  0.986356  0
H  H15  1  0.22339895  0.09550036  0.56656567  1  0.021275  0  0.091209  0.08869  0  0.980912  0
H  H16  1  0.28828078  0.11810431  0.42354816  1  0.040183  0  0.09293  0.091995  0  0.98876  0
C  C17  1  0.87703763  0.26874286  0.49512943  1  1.566791  0  0.276102  0.636803  0  4.027663  0
C  C18  1  0.63317493  0.49694170  0.69516844  1  1.611267  0  0.253764  0.656289  0  4.143742  0
C  C19  1  0.12793736  0.72836527  0.49864891  1  1.545345  0  0.273597  0.640646  0  4.023907  0
C  C20  1  0.36412087  0.49293017  0.30419245  1  1.58174  0  0.2622  0.642822  0  4.153558  0
C  C21  1  0.37449236  0.54328020  0.88538651  1  0.152103  0  0.004778  0.097301  0  4.101052  0
C  C22  1  0.62097072  0.44874272  0.11588495  1  0.050181  0  -0.08879  -0.136194  0  3.965646  0
C  C23  1  0.57546363  0.49774610  0.81430565  1  -0.123671  0  -0.03109  -0.195331  0  3.952393  0
C  C24  1  0.41871055  0.49216256  0.18502554  1  -0.159352  0  -0.017233  -0.116498  0  3.969373  0
C  C25  1  0.60420105  0.46451648  0.00654597  1  -0.116806  0  -0.023334  0.004046  0  4.07559  0
C  C26  1  0.38987636  0.52267435  0.99520217  1  -0.195026  0  -0.033257  -0.094251  0  4.102655  0
C  C27  1  0.96339064  0.93588567  0.40156722  1  -0.035083  0  -0.153896  -0.164648  0  3.848686  0
C  C28  1  0.90718482  0.08424030  0.39607185  1  -0.021917  0  -0.153838  -0.170514  0  3.846384  0
C  C29  1  0.95017329  0.12336505  0.49650405  1  0.027883  0  -0.014272  0.015353  0  3.811814  0
C  C30  1  0.81554769  0.06324708  0.60019790  1  -0.028997  0  -0.158322  -0.17268  0  3.859813  0
C  C31  1  0.89408976  0.91487755  0.60530569  1  -0.039321  0  -0.158409  -0.17081  0  3.857009  0
C  C32  1  0.06576483  0.87349037  0.49936994  1  0.050835  0  -0.01588  0.01417  0  3.805687  0
C  C33  1  0.26439377  0.92291286  0.48932985  1  -0.025789  0  -0.164213  -0.178945  0  3.89453  0
C  C34  1  0.19363574  0.07009045  0.49399002  1  -0.021085  0  -0.162995  -0.179362  0  3.885116  0
S  S35  1  0.78333341  0.43293139  0.88208135  1  0.272752  0  0.086769  0.134456  0  2.83974  0
S  S36  1  0.20746391  0.55321649  0.11879722  1  0.286631  0  0.092635  0.143414  0  2.781568  0
Cl  Cl37  1  0.13573011  0.62213976  0.84909066  1  -0.173092  0  0.016568  -0.034603  0  1.602386  0
O  O38  1  0.67256102  0.32168867  0.51569108  1  -1.269772  0  -0.235531  -0.597782  0  2.36232  0
O  O39  1  0.83667330  0.47449817  0.64869894  1  -1.261854  0  -0.243983  -0.604751  0  2.337971  0
O  O40  1  0.97330104  0.67546541  0.51516460  1  -1.263546  0  -0.243251  -0.607724  0  2.341556  0
O  O41  1  0.51984603  0.46616442  0.35100002  1  -1.245189  0  -0.230051  -0.56214  0  2.301581  0
O  O42  1  0.33003775  0.66952305  0.47897513  1  -1.275622  0  -0.23762  -0.607698  0  2.379986  0
O  O43  1  0.16122515  0.52291719  0.35056539  1  -1.257167  0  -0.235964  -0.58672  0  2.360063  0
O  O44  1  0.02262105  0.32847298  0.47480315  1  -1.255887  0  -0.230128  -0.576041  0  2.355363  0
O  O45  1  0.47904941  0.51558477  0.64851887  1  -1.25057  0  -0.239396  -0.590644  0  2.355319  0
O  O46  1  0.24754256  0.43911378  0.55064338  1  -1.408495  0  -0.449158  -0.987756  0  2.192255  0
O  O47  1  0.74136632  0.55985973  0.45002860  1  -1.421238  0  -0.448877  -0.985364  0  2.190064  0
