# generated using pymatgen
data_HgH10C12(N2Cl)2
_symmetry_space_group_name_H-M   'P 1'
_cell_length_a   7.98238136
_cell_length_b   8.89751229
_cell_length_c   10.86731938
_cell_angle_alpha   102.92534836
_cell_angle_beta   99.19277000
_cell_angle_gamma   110.91081660
_symmetry_Int_Tables_number   1
_chemical_formula_structural   HgH10C12(N2Cl)2
_chemical_formula_sum   'Hg2 H20 C24 N8 Cl4'
_cell_volume   677.96152359
_cell_formula_units_Z   2
loop_
 _symmetry_equiv_pos_site_id
 _symmetry_equiv_pos_as_xyz
  1  'x, y, z'
loop_
 _atom_site_type_symbol
 _atom_site_label
 _atom_site_symmetry_multiplicity
 _atom_site_fract_x
 _atom_site_fract_y
 _atom_site_fract_z
 _atom_site_occupancy
 _atom_site_hle17_bader_spin_density
 _atom_site_hle17_ddec_charge
 _atom_site_hle17_ddec_spin_density
 _atom_site_hle17_ddec_sum_bond_order
 _atom_site_hle17_magmom
 _atom_site_hse06_10hf_bader_spin_density
 _atom_site_hse06_10hf_ddec_charge
 _atom_site_hse06_10hf_ddec_spin_density
 _atom_site_hse06_10hf_ddec_sum_bond_order
 _atom_site_hse06_10hf_magmom
 _atom_site_hse06_bader_spin_density
 _atom_site_hse06_ddec_charge
 _atom_site_hse06_ddec_spin_density
 _atom_site_hse06_ddec_sum_bond_order
 _atom_site_hse06_magmom
 _atom_site_pbe_bader_spin_density
 _atom_site_pbe_cm5_charge
 _atom_site_pbe_ddec_charge
 _atom_site_pbe_ddec_spin_density
 _atom_site_pbe_ddec_sum_bond_order
 _atom_site_pbe_magmom
Hg  Hg0  1  0.52483102  0.41726271  0.29388654  1  0  0.745687  0  2.101795  0  0  0.587069  0  2.606468  0  0  0.63437  0  2.57228  0  0  0.514731  0.554508  0  2.629907  0
Hg  Hg1  1  0.47516595  0.58273613  0.70611311  1  0  0.745682  0  2.101797  0  0  0.587058  0  2.606466  0  0  0.634359  0  2.572278  0  0  0.514728  0.554496  0  2.629901  0
H  H2  1  0.68478403  0.45517805  0.04856610  1  0  0.074178  0  0.956221  0  0  0.076429  0  1.031684  0  0  0.078934  0  1.029208  0  0  0.102966  0.074489  0  1.033687  0
H  H3  1  0.31521652  0.54482331  0.95143071  1  0  0.074216  0  0.956169  0  0  0.076414  0  1.031701  0  0  0.07892  0  1.029221  0  0  0.102954  0.074474  0  1.033704  0
H  H4  1  0.79258227  0.32673914  0.86753174  1  0  0.101641  0  0.96868  0  0  0.107377  0  1.037399  0  0  0.109973  0  1.037482  0  0  0.099449  0.105403  0  1.037707  0
H  H5  1  0.20742291  0.67326106  0.13246905  1  0  0.101615  0  0.968689  0  0  0.107365  0  1.037386  0  0  0.10996  0  1.037471  0  0  0.09945  0.105391  0  1.037695  0
H  H6  1  0.84499684  0.06208007  0.86986761  1  0  0.08316  0  0.969598  0  0  0.093704  0  1.032979  0  0  0.094964  0  1.033754  0  0  0.097484  0.092838  0  1.032349  0
H  H7  1  0.15501009  0.93792397  0.13013867  1  0  0.083149  0  0.969604  0  0  0.093674  0  1.032986  0  0  0.094933  0  1.033762  0  0  0.097496  0.092808  0  1.032355  0
H  H8  1  0.79147027  0.94532952  0.05354505  1  0  0.108848  0  0.974162  0  0  0.112539  0  1.046313  0  0  0.116261  0  1.044453  0  0  0.09638  0.109982  0  1.047522  0
H  H9  1  0.20853369  0.05467070  0.94645837  1  0  0.108861  0  0.97412  0  0  0.112541  0  1.046288  0  0  0.116266  0  1.044419  0  0  0.096367  0.109996  0  1.047487  0
H  H10  1  0.75918057  0.19413053  0.35966623  1  0  0.102914  0  0.94661  0  0  0.113993  0  1.017131  0  0  0.115033  0  1.015383  0  0  0.110061  0.113325  0  1.017256  0
H  H11  1  0.24081805  0.80587210  0.64033428  1  0  0.102884  0  0.946633  0  0  0.113945  0  1.017163  0  0  0.114984  0  1.015416  0  0  0.110049  0.113278  0  1.017289  0
H  H12  1  0.53789031  0.03586684  0.26616522  1  0  0.10207  0  0.924364  0  0  0.118069  0  0.990564  0  0  0.118441  0  0.989841  0  0  0.122508  0.117686  0  0.990469  0
H  H13  1  0.46210958  0.96413580  0.73383544  1  0  0.102091  0  0.9244  0  0  0.118084  0  0.990576  0  0  0.118454  0  0.989856  0  0  0.122526  0.117701  0  0.990481  0
H  H14  1  0.11960150  0.22864849  0.37649213  1  0  0.115334  0  0.983105  0  0  0.120168  0  1.052439  0  0  0.123627  0  1.050537  0  0  0.092139  0.117611  0  1.05407  0
H  H15  1  0.88039924  0.77135037  0.62350517  1  0  0.115345  0  0.983083  0  0  0.120192  0  1.052422  0  0  0.123643  0  1.050527  0  0  0.092135  0.117636  0  1.054051  0
H  H16  1  0.38764214  0.15828004  0.44171762  1  0  0.078743  0  0.992099  0  0  0.084874  0  1.067698  0  0  0.08728  0  1.066569  0  0  0.084676  0.083064  0  1.068743  0
H  H17  1  0.61235681  0.84171756  0.55828111  1  0  0.078797  0  0.992069  0  0  0.084935  0  1.067645  0  0  0.087339  0  1.066518  0  0  0.084705  0.083123  0  1.06869  0
H  H18  1  0.34548123  0.86152333  0.41975611  1  0  0.090732  0  0.960973  0  0  0.100465  0  1.025018  0  0  0.102881  0  1.02443  0  0  0.095267  0.098633  0  1.025682  0
H  H19  1  0.65451905  0.13847432  0.58024552  1  0  0.09069  0  0.961046  0  0  0.100422  0  1.025096  0  0  0.102838  0  1.024507  0  0  0.095266  0.09859  0  1.025758  0
H  H20  1  0.03129030  0.62606374  0.34153459  1  0  0.121143  0  0.944161  0  0  0.127962  0  1.00671  0  0  0.131277  0  1.004845  0  0  0.101783  0.125389  0  1.008472  0
H  H21  1  0.96870728  0.37393640  0.65846812  1  0  0.121147  0  0.944174  0  0  0.12798  0  1.006704  0  0  0.131298  0  1.004836  0  0  0.101777  0.125407  0  1.008465  0
C  C22  1  0.71313825  0.34379123  0.04796113  1  0  0.136306  0  3.715012  0  0  0.105665  0  3.970933  0  0  0.112947  0  3.989473  0  0  0.042906  0.100988  0  3.958217  0
C  C23  1  0.28686248  0.65620763  0.95203617  1  0  0.136158  0  3.715077  0  0  0.105573  0  3.970971  0  0  0.112854  0  3.989511  0  0  0.042851  0.100895  0  3.958253  0
C  C24  1  0.77282352  0.27076308  0.94626528  1  0  -0.117981  0  3.739336  0  0  -0.134924  0  3.994304  0  0  -0.142132  0  4.016271  0  0  -0.086964  -0.130054  0  3.979314  0
C  C25  1  0.22717725  0.72923580  0.05373387  1  0  -0.117932  0  3.739428  0  0  -0.134901  0  3.994372  0  0  -0.14211  0  4.016344  0  0  -0.087036  -0.130034  0  3.979382  0
C  C26  1  0.80117357  0.12560684  0.94813789  1  0  0.007448  0  3.721847  0  0  -0.006724  0  3.965703  0  0  -0.002979  0  3.984691  0  0  -0.072443  -0.00892  0  3.952579  0
C  C27  1  0.19883053  0.87439085  0.05186417  1  0  0.007394  0  3.721962  0  0  -0.006737  0  3.96579  0  0  -0.002994  0  3.984779  0  0  -0.072402  -0.008935  0  3.952669  0
C  C28  1  0.77217192  0.06015729  0.05195788  1  0  -0.156558  0  3.70267  0  0  -0.178865  0  3.954292  0  0  -0.185812  0  3.974389  0  0  -0.091066  -0.174224  0  3.940503  0
C  C29  1  0.22782876  0.93984414  0.94804540  1  0  -0.156467  0  3.70258  0  0  -0.178766  0  3.954205  0  0  -0.185712  0  3.974307  0  0  -0.091028  -0.174136  0  3.940407  0
C  C30  1  0.71745535  0.14352935  0.15175899  1  0  0.234339  0  3.720745  0  0  0.238585  0  3.966101  0  0  0.245632  0  3.986161  0  0  0.113572  0.233964  0  3.951196  0
C  C31  1  0.28254342  0.85647076  0.84824016  1  0  0.234187  0  3.720925  0  0  0.238383  0  3.966324  0  0  0.245428  0  3.986388  0  0  0.113517  0.233764  0  3.951416  0
C  C32  1  0.68672202  0.08584509  0.27031610  1  0  -0.089475  0  3.652114  0  0  -0.169983  0  3.898421  0  0  -0.156756  0  3.910475  0  0  -0.041332  -0.171854  0  3.891749  0
C  C33  1  0.31327913  0.91415756  0.72968377  1  0  -0.089471  0  3.652252  0  0  -0.169907  0  3.898524  0  0  -0.15669  0  3.91057  0  0  -0.041329  -0.171782  0  3.891851  0
C  C34  1  0.92408383  0.96387451  0.32153370  1  0  0.091922  0  3.784711  0  0  0.069108  0  4.025268  0  0  0.082943  0  4.049372  0  0  0.105211  0.066767  0  4.010884  0
C  C35  1  0.07591932  0.03612691  0.67846617  1  0  0.091738  0  3.784905  0  0  0.069005  0  4.025397  0  0  0.082827  0  4.049497  0  0  0.105147  0.066663  0  4.011014  0
C  C36  1  0.09951728  0.09858349  0.36729668  1  0  -0.13606  0  3.741193  0  0  -0.152973  0  3.99758  0  0  -0.156592  0  4.016223  0  0  -0.092717  -0.150695  0  3.984248  0
C  C37  1  0.90047908  0.90141406  0.63269991  1  0  -0.135911  0  3.741145  0  0  -0.152847  0  3.997462  0  0  -0.15646  0  4.016115  0  0  -0.092618  -0.15057  0  3.984128  0
C  C38  1  0.24834330  0.05689514  0.40279969  1  0  -0.070505  0  3.76329  0  0  -0.089754  0  4.023658  0  0  -0.091682  0  4.046736  0  0  -0.098685  -0.088444  0  4.008443  0
C  C39  1  0.75165544  0.94310495  0.59719762  1  0  -0.070661  0  3.763366  0  0  -0.089913  0  4.023765  0  0  -0.091843  0  4.046843  0  0  -0.098711  -0.088604  0  4.008549  0
C  C40  1  0.22432022  0.88833610  0.39188981  1  0  -0.071835  0  3.751934  0  0  -0.088516  0  4.008725  0  0  -0.09125  0  4.031052  0  0  -0.094907  -0.086626  0  3.993338  0
C  C41  1  0.77567511  0.11165896  0.60810990  1  0  -0.071807  0  3.751949  0  0  -0.088497  0  4.008758  0  0  -0.091229  0  4.031085  0  0  -0.094993  -0.086612  0  3.993383  0
C  C42  1  0.04992232  0.75507682  0.34735763  1  0  -0.11289  0  3.701701  0  0  -0.129876  0  3.95023  0  0  -0.131058  0  3.969064  0  0  -0.083653  -0.128898  0  3.937318  0
C  C43  1  0.95007154  0.24492073  0.65264144  1  0  -0.112883  0  3.701646  0  0  -0.12987  0  3.950157  0  0  -0.131054  0  3.968992  0  0  -0.083607  -0.128891  0  3.937241  0
C  C44  1  0.89819364  0.79573065  0.31275602  1  0  0.112734  0  3.831465  0  0  0.109118  0  4.085922  0  0  0.11046  0  4.106395  0  0  0.093457  0.108375  0  4.069957  0
C  C45  1  0.10180332  0.20426820  0.68724363  1  0  0.112804  0  3.831459  0  0  0.109166  0  4.085908  0  0  0.110507  0  4.106385  0  0  0.093489  0.108423  0  4.06994  0
N  N46  1  0.68693498  0.28233079  0.14876044  1  0  -0.359698  0  3.206118  0  0  -0.290384  0  3.460349  0  0  -0.311235  0  3.481791  0  0  -0.31593  -0.275819  0  3.445448  0
N  N47  1  0.31306233  0.71767181  0.85123809  1  0  -0.359493  0  3.206258  0  0  -0.290172  0  3.460463  0  0  -0.311023  0  3.481911  0  0  -0.315805  -0.275607  0  3.445555  0
N  N48  1  0.74722944  0.95329274  0.28192638  1  0  0.014506  0  3.533654  0  0  0.128926  0  3.719756  0  0  0.087111  0  3.78116  0  0  -0.124322  0.136205  0  3.704298  0
N  N49  1  0.25277059  0.04670738  0.71807199  1  0  0.014589  0  3.533659  0  0  0.128926  0  3.719782  0  0  0.087151  0  3.781138  0  0  -0.124325  0.136204  0  3.704324  0
N  N50  1  0.62089657  0.79264274  0.25248260  1  0  -0.055042  0  2.86991  0  0  -0.071479  0  3.146432  0  0  -0.053622  0  3.162056  0  0  -0.067383  -0.076348  0  3.139567  0
N  N51  1  0.37910407  0.20735867  0.74751883  1  0  -0.055037  0  2.869797  0  0  -0.071454  0  3.146327  0  0  -0.053609  0  3.161942  0  0  -0.067375  -0.076323  0  3.139461  0
N  N52  1  0.70967996  0.69773603  0.27032846  1  0  -0.233815  0  3.139593  0  0  -0.18945  0  3.44266  0  0  -0.201489  0  3.45301  0  0  -0.191607  -0.180783  0  3.432958  0
N  N53  1  0.29031886  0.30226410  0.72967254  1  0  -0.233852  0  3.139537  0  0  -0.189487  0  3.442609  0  0  -0.201528  0  3.452963  0  0  -0.191653  -0.180821  0  3.432906  0
Cl  Cl54  1  0.70975610  0.44859043  0.50367932  1  0  -0.468396  0  1.048425  0  0  -0.405879  0  1.33898  0  0  -0.423885  0  1.319282  0  0  -0.247086  -0.393348  0  1.352692  0
Cl  Cl55  1  0.29024073  0.55141095  0.49632261  1  0  -0.46841  0  1.048442  0  0  -0.405891  0  1.338996  0  0  -0.423895  0  1.319299  0  0  -0.247092  -0.39336  0  1.352705  0
Cl  Cl56  1  0.24623157  0.34096099  0.13118847  1  0  -0.449432  0  0.974056  0  0  -0.385235  0  1.240069  0  0  -0.40363  0  1.22603  0  0  -0.264492  -0.373197  0  1.250501  0
Cl  Cl57  1  0.75376885  0.65904291  0.86881155  1  0  -0.449438  0  0.974074  0  0  -0.38523  0  1.240067  0  0  -0.403624  0  1.226029  0  0  -0.264487  -0.373194  0  1.250496  0
