# generated using pymatgen
data_CaH10C18(N2O)4
_symmetry_space_group_name_H-M   'P 1'
_cell_length_a   7.22253277
_cell_length_b   7.39653675
_cell_length_c   21.92113482
_cell_angle_alpha   89.99892280
_cell_angle_beta   89.99988444
_cell_angle_gamma   118.92682350
_symmetry_Int_Tables_number   1
_chemical_formula_structural   CaH10C18(N2O)4
_chemical_formula_sum   'Ca2 H20 C36 N16 O8'
_cell_volume   1024.96073126
_cell_formula_units_Z   2
loop_
 _symmetry_equiv_pos_site_id
 _symmetry_equiv_pos_as_xyz
  1  'x, y, z'
loop_
 _atom_site_type_symbol
 _atom_site_label
 _atom_site_symmetry_multiplicity
 _atom_site_fract_x
 _atom_site_fract_y
 _atom_site_fract_z
 _atom_site_occupancy
 _atom_site_pbe_bader_spin_density
 _atom_site_pbe_cm5_charge
 _atom_site_pbe_ddec_charge
 _atom_site_pbe_ddec_spin_density
 _atom_site_pbe_ddec_sum_bond_order
 _atom_site_pbe_magmom
Ca  Ca0  1  0.42228453  0.95487080  0.24999988  1  0  0.889617  1.400592  0  1.458565  0
Ca  Ca1  1  0.57771211  0.04512655  0.75000053  1  0  0.889591  1.400523  0  1.458701  0
H  H2  1  0.22131280  0.04911200  0.49092235  1  0  0.108668  0.133795  0  1.039574  0
H  H3  1  0.77868559  0.95085494  0.99091580  1  0  0.108668  0.13375  0  1.039768  0
H  H4  1  0.77868603  0.95088998  0.50907897  1  0  0.108649  0.133731  0  1.039624  0
H  H5  1  0.22131874  0.04914111  0.00908005  1  0  0.108687  0.133795  0  1.039777  0
H  H6  1  0.96655897  0.72284270  0.28596344  1  0  0.297056  0.379392  0  0.957662  0
H  H7  1  0.03343421  0.27716553  0.78596573  1  0  0.297069  0.379438  0  0.957616  0
H  H8  1  0.03343783  0.27716379  0.71403560  1  0  0.297051  0.379397  0  0.957662  0
H  H9  1  0.96656421  0.72285319  0.21403422  1  0  0.297006  0.379294  0  0.957795  0
H  H10  1  0.62265599  0.70022083  0.28575287  1  0  0.297986  0.377029  0  0.958974  0
H  H11  1  0.37733772  0.29977677  0.78575615  1  0  0.297929  0.37693  0  0.959113  0
H  H12  1  0.37734143  0.29978111  0.71424708  1  0  0.298001  0.37706  0  0.958953  0
H  H13  1  0.62266257  0.70022830  0.21424380  1  0  0.297927  0.376945  0  0.959099  0
H  H14  1  0.72293712  0.12967934  0.36071562  1  0  0.296981  0.38275  0  0.958433  0
H  H15  1  0.27704782  0.87032147  0.86071584  1  0  0.297027  0.382776  0  0.95838  0
H  H16  1  0.27705126  0.87032692  0.63928479  1  0  0.297073  0.382801  0  0.958339  0
H  H17  1  0.72295781  0.12966852  0.13928457  1  0  0.297043  0.382777  0  0.958396  0
H  H18  1  0.87900720  0.23088517  0.30615923  1  0  0.329438  0.409671  0  0.875726  0
H  H19  1  0.12098487  0.76910931  0.80616064  1  0  0.329456  0.409665  0  0.875744  0
H  H20  1  0.12099329  0.76905287  0.69383936  1  0  0.329485  0.409724  0  0.875674  0
H  H21  1  0.87899318  0.23098653  0.19383840  1  0  0.329508  0.409741  0  0.875756  0
C  C22  1  0.25504297  0.29456341  0.42557823  1  0  -0.015232  -0.023395  0  4.128255  0
C  C23  1  0.74495612  0.70540394  0.92557005  1  0  -0.015465  -0.023588  0  4.1283  0
C  C24  1  0.74495356  0.70542784  0.57442445  1  0  -0.01535  -0.023575  0  4.128369  0
C  C25  1  0.25504035  0.29458427  0.07442716  1  0  -0.01537  -0.023433  0  4.128308  0
C  C26  1  0.26497718  0.49086506  0.43518159  1  0  -0.011326  -0.061224  0  4.137269  0
C  C27  1  0.73504411  0.50911132  0.93517967  1  0  -0.01121  -0.061255  0  4.137035  0
C  C28  1  0.73502642  0.50912944  0.56481882  1  0  -0.011288  -0.061144  0  4.137239  0
C  C29  1  0.26495949  0.49088318  0.06481937  1  0  -0.011201  -0.061181  0  4.137063  0
C  C30  1  0.24650836  0.51322117  0.49863170  1  0  -0.010735  -0.061826  0  4.135901  0
C  C31  1  0.75349125  0.48675436  0.99862991  1  0  -0.010631  -0.061566  0  4.135839  0
C  C32  1  0.75349406  0.48678549  0.50136916  1  0  -0.010732  -0.061782  0  4.136099  0
C  C33  1  0.24651106  0.51324620  0.00136913  1  0  -0.010642  -0.061585  0  4.135875  0
C  C34  1  0.22298418  0.32941537  0.52771245  1  0  -0.016725  -0.028295  0  4.133317  0
C  C35  1  0.77701171  0.67055616  0.02770696  1  0  -0.016776  -0.028296  0  4.133334  0
C  C36  1  0.77701807  0.67058214  0.47229207  1  0  -0.016769  -0.028379  0  4.133553  0
C  C37  1  0.22299356  0.32945363  0.97229207  1  0  -0.016826  -0.028301  0  4.133617  0
C  C38  1  0.22891546  0.19691598  0.48252542  1  0  -0.083557  -0.162982  0  3.923178  0
C  C39  1  0.77107700  0.80305295  0.98252071  1  0  -0.083606  -0.163049  0  3.923367  0
C  C40  1  0.77109111  0.80308775  0.51747773  1  0  -0.083556  -0.16296  0  3.923242  0
C  C41  1  0.22892733  0.19694309  0.01747605  1  0  -0.083561  -0.16316  0  3.923546  0
C  C42  1  0.28205544  0.21890221  0.36934643  1  0  0.20658  0.292307  0  4.031031  0
C  C43  1  0.71796091  0.78107142  0.86934098  1  0  0.206659  0.292444  0  4.030945  0
C  C44  1  0.71793828  0.78108896  0.63065580  1  0  0.206696  0.292428  0  4.030833  0
C  C45  1  0.28205740  0.21892198  0.13065441  1  0  0.206567  0.292368  0  4.030862  0
C  C46  1  0.29505208  0.63720565  0.39033125  1  0  0.203323  0.278057  0  4.041364  0
C  C47  1  0.70492398  0.36276219  0.89033027  1  0  0.203455  0.278346  0  4.040958  0
C  C48  1  0.70494389  0.36279320  0.60967007  1  0  0.203389  0.278102  0  4.041488  0
C  C49  1  0.29506817  0.63721980  0.10966740  1  0  0.203372  0.278072  0  4.041123  0
C  C50  1  0.26186432  0.68590276  0.52931844  1  0  0.19689  0.272704  0  4.067318  0
C  C51  1  0.73813987  0.31406584  0.02931522  1  0  0.196914  0.272596  0  4.067466  0
C  C52  1  0.73815151  0.31410885  0.47068151  1  0  0.196953  0.272783  0  4.06753  0
C  C53  1  0.26186743  0.68593943  0.97068382  1  0  0.196915  0.272598  0  4.067368  0
C  C54  1  0.20761077  0.29961121  0.59112714  1  0  0.20518  0.288139  0  4.023633  0
C  C55  1  0.79238658  0.70035860  0.09112238  1  0  0.205213  0.288228  0  4.023743  0
C  C56  1  0.79238784  0.70037858  0.40887509  1  0  0.205278  0.288344  0  4.0238  0
C  C57  1  0.20760865  0.29963871  0.90887757  1  0  0.205237  0.288224  0  4.023553  0
N  N58  1  0.30899660  0.15538355  0.32333395  1  0  -0.323523  -0.416418  0  2.916331  0
N  N59  1  0.69099304  0.84459433  0.82333086  1  0  -0.32358  -0.416562  0  2.91616  0
N  N60  1  0.69098938  0.84460588  0.67666646  1  0  -0.323627  -0.416524  0  2.916276  0
N  N61  1  0.30901910  0.15540651  0.17666864  1  0  -0.323595  -0.416602  0  2.916003  0
N  N62  1  0.32250559  0.75891338  0.35251621  1  0  -0.318324  -0.372859  0  2.917999  0
N  N63  1  0.67750448  0.24106134  0.85251920  1  0  -0.318422  -0.373053  0  2.917778  0
N  N64  1  0.67749666  0.24108413  0.64748192  1  0  -0.318379  -0.372886  0  2.918094  0
N  N65  1  0.32249974  0.75892860  0.14748075  1  0  -0.318384  -0.372881  0  2.917659  0
N  N66  1  0.27742367  0.82749963  0.55725997  1  0  -0.296904  -0.382958  0  2.88219  0
N  N67  1  0.72258927  0.17247623  0.05725857  1  0  -0.296881  -0.382858  0  2.882242  0
N  N68  1  0.72258638  0.17250267  0.44274363  1  0  -0.296906  -0.382988  0  2.882428  0
N  N69  1  0.27741034  0.82753034  0.94274138  1  0  -0.296859  -0.382824  0  2.882202  0
N  N70  1  0.19831442  0.28427025  0.64430784  1  0  -0.285277  -0.384223  0  2.911522  0
N  N71  1  0.80168268  0.71573513  0.14430205  1  0  -0.285297  -0.384323  0  2.911689  0
N  N72  1  0.80169023  0.71574409  0.35569576  1  0  -0.285329  -0.384378  0  2.911807  0
N  N73  1  0.19831693  0.28427144  0.85569698  1  0  -0.285329  -0.384339  0  2.911461  0
O  O74  1  0.04621410  0.71907306  0.24999892  1  0  -0.621332  -0.823114  0  2.035658  0
O  O75  1  0.95378202  0.28093494  0.74999966  1  0  -0.621382  -0.823257  0  2.035478  0
O  O76  1  0.53900440  0.69678431  0.24999792  1  0  -0.619143  -0.807987  0  2.038956  0
O  O77  1  0.46099443  0.30321767  0.75000249  1  0  -0.619159  -0.808003  0  2.038938  0
O  O78  1  0.73209105  0.13610070  0.31571747  1  0  -0.605006  -0.804285  0  2.012889  0
O  O79  1  0.26790414  0.86389467  0.81571819  1  0  -0.605066  -0.804287  0  2.01295  0
O  O80  1  0.26789109  0.86390995  0.68428339  1  0  -0.605144  -0.804357  0  2.012819  0
O  O81  1  0.73210694  0.13608633  0.18428313  1  0  -0.605133  -0.804377  0  2.012906  0
