# generated using pymatgen
data_ZnH26C27(N2O3)2
_symmetry_space_group_name_H-M   'P 1'
_cell_length_a   10.02498900
_cell_length_b   10.72934220
_cell_length_c   13.27728137
_cell_angle_alpha   106.77087678
_cell_angle_beta   95.74268876
_cell_angle_gamma   107.85380594
_symmetry_Int_Tables_number   1
_chemical_formula_structural   ZnH26C27(N2O3)2
_chemical_formula_sum   'Zn2 H52 C54 N8 O12'
_cell_volume   1273.37863713
_cell_formula_units_Z   2
loop_
 _symmetry_equiv_pos_site_id
 _symmetry_equiv_pos_as_xyz
  1  'x, y, z'
loop_
 _atom_site_type_symbol
 _atom_site_label
 _atom_site_symmetry_multiplicity
 _atom_site_fract_x
 _atom_site_fract_y
 _atom_site_fract_z
 _atom_site_occupancy
 _atom_site_hle17_bader_spin_density
 _atom_site_hle17_ddec_charge
 _atom_site_hle17_ddec_spin_density
 _atom_site_hle17_ddec_sum_bond_order
 _atom_site_hle17_magmom
 _atom_site_hse06_10hf_bader_spin_density
 _atom_site_hse06_10hf_ddec_charge
 _atom_site_hse06_10hf_ddec_spin_density
 _atom_site_hse06_10hf_ddec_sum_bond_order
 _atom_site_hse06_10hf_magmom
 _atom_site_hse06_bader_spin_density
 _atom_site_hse06_ddec_charge
 _atom_site_hse06_ddec_spin_density
 _atom_site_hse06_ddec_sum_bond_order
 _atom_site_hse06_magmom
 _atom_site_pbe_bader_spin_density
 _atom_site_pbe_cm5_charge
 _atom_site_pbe_ddec_charge
 _atom_site_pbe_ddec_spin_density
 _atom_site_pbe_ddec_sum_bond_order
 _atom_site_pbe_magmom
Zn  Zn0  1  0.41159624  0.15585336  0.57121724  1  0  1.028996  0  1.800367  0  0  0.844189  0  2.253611  0  0  0.894189  0  2.200094  0  0  0.683395  0.806688  0  2.292115  0
Zn  Zn1  1  0.58840324  0.84414066  0.42878217  1  0  1.029119  0  1.800208  0  0  0.844298  0  2.253446  0  0  0.894294  0  2.19993  0  0  0.683447  0.806797  0  2.291947  0
H  H2  1  0.26748353  0.17990510  0.74553076  1  0  0.089093  0  0.959464  0  0  0.095259  0  1.027412  0  0  0.098289  0  1.024555  0  0  0.120868  0.093199  0  1.028976  0
H  H3  1  0.73252275  0.82009929  0.25447002  1  0  0.08911  0  0.959426  0  0  0.095278  0  1.027385  0  0  0.098306  0  1.024533  0  0  0.120883  0.09322  0  1.028946  0
H  H4  1  0.21283858  0.08372665  0.89057269  1  0  0.111771  0  0.984079  0  0  0.121466  0  1.045763  0  0  0.125028  0  1.04388  0  0  0.112742  0.118782  0  1.047602  0
H  H5  1  0.78715993  0.91627570  0.10942780  1  0  0.111706  0  0.984178  0  0  0.121431  0  1.045831  0  0  0.124989  0  1.043947  0  0  0.112746  0.118747  0  1.04767  0
H  H6  1  0.19044755  0.99659130  0.99367648  1  0  0.28035  0  0.964288  0  0  0.260832  0  1.03449  0  0  0.268595  0  1.028644  0  0  0.301317  0.255349  0  1.038723  0
H  H7  1  0.80954996  0.00341104  0.00632243  1  0  0.280365  0  0.964251  0  0  0.260834  0  1.034461  0  0  0.268597  0  1.028614  0  0  0.301315  0.255351  0  1.038694  0
H  H8  1  0.24660843  0.14472771  0.28768686  1  0  0.300215  0  0.945878  0  0  0.280236  0  1.014898  0  0  0.288427  0  1.009178  0  0  0.299192  0.274434  0  1.018836  0
H  H9  1  0.75339244  0.85527563  0.71230951  1  0  0.300232  0  0.945944  0  0  0.280204  0  1.015015  0  0  0.288394  0  1.009299  0  0  0.299183  0.274402  0  1.018949  0
H  H10  1  0.50154517  0.86182871  0.80885718  1  0  0.107953  0  0.968272  0  0  0.111396  0  1.040942  0  0  0.115045  0  1.039356  0  0  0.107133  0.108978  0  1.04181  0
H  H11  1  0.49844969  0.13816639  0.19114439  1  0  0.107968  0  0.968302  0  0  0.111408  0  1.040965  0  0  0.115059  0  1.039376  0  0  0.10712  0.108969  0  1.041855  0
H  H12  1  0.55361318  0.97834841  0.66836307  1  0  0.097628  0  0.959499  0  0  0.103246  0  1.026461  0  0  0.106577  0  1.023283  0  0  0.118589  0.100926  0  1.028594  0
H  H13  1  0.44639022  0.02165082  0.33164084  1  0  0.09763  0  0.959504  0  0  0.103242  0  1.026484  0  0  0.106574  0  1.023303  0  0  0.118585  0.100933  0  1.028606  0
H  H14  1  0.28939794  0.87822411  0.13870591  1  0  0.037622  0  0.939107  0  0  0.052094  0  1.002479  0  0  0.051496  0  1.003568  0  0  0.104199  0.052445  0  1.001761  0
H  H15  1  0.71060157  0.12177822  0.86129390  1  0  0.037633  0  0.939184  0  0  0.052112  0  1.002534  0  0  0.051515  0  1.003626  0  0  0.104203  0.052465  0  1.001813  0
H  H16  1  0.15277370  0.65627537  0.99863210  1  0  0.079038  0  0.946297  0  0  0.095507  0  1.006853  0  0  0.097206  0  1.005754  0  0  0.091942  0.094189  0  1.007731  0
H  H17  1  0.84722882  0.34372696  0.00136944  1  0  0.079045  0  0.946248  0  0  0.095494  0  1.006845  0  0  0.097194  0  1.005745  0  0  0.091927  0.094172  0  1.007726  0
H  H18  1  0.99907896  0.70524870  0.98800504  1  0  0.073902  0  0.95312  0  0  0.08847  0  1.022555  0  0  0.089598  0  1.022414  0  0  0.088216  0.087514  0  1.022844  0
H  H19  1  0.00092241  0.29475051  0.01199495  1  0  0.073886  0  0.953121  0  0  0.088455  0  1.022555  0  0  0.089584  0  1.022414  0  0  0.088202  0.087501  0  1.022841  0
H  H20  1  0.97651326  0.55315763  0.10222569  1  0  0.062533  0  0.958815  0  0  0.083104  0  1.017077  0  0  0.083308  0  1.018351  0  0  0.089082  0.082851  0  1.016297  0
H  H21  1  0.02348765  0.44684577  0.89777748  1  0  0.06254  0  0.958731  0  0  0.083076  0  1.017024  0  0  0.083278  0  1.018302  0  0  0.089072  0.082824  0  1.016245  0
H  H22  1  0.14008679  0.66881298  0.18949455  1  0  0.053523  0  0.939852  0  0  0.073801  0  1.001131  0  0  0.07387  0  1.002325  0  0  0.084308  0.073783  0  1.000135  0
H  H23  1  0.85991573  0.33118935  0.81050623  1  0  0.053488  0  0.939909  0  0  0.073764  0  1.001167  0  0  0.073836  0  1.002357  0  0  0.084278  0.073746  0  1.000174  0
H  H24  1  0.93421878  0.71559564  0.26497784  1  0  0.072437  0  0.942086  0  0  0.089701  0  1.005005  0  0  0.090534  0  1.005376  0  0  0.090312  0.089055  0  1.004829  0
H  H25  1  0.06578464  0.28441189  0.73502345  1  0  0.072333  0  0.94204  0  0  0.089635  0  1.004967  0  0  0.090469  0  1.005336  0  0  0.090267  0.088991  0  1.00479  0
H  H26  1  0.87011003  0.73750615  0.14447414  1  0  0.060088  0  0.935285  0  0  0.081222  0  0.99311  0  0  0.081692  0  0.993527  0  0  0.088354  0.080952  0  0.992642  0
H  H27  1  0.12989224  0.26249825  0.85552560  1  0  0.060066  0  0.935301  0  0  0.081203  0  0.993146  0  0  0.081673  0  0.993563  0  0  0.088357  0.080934  0  0.992679  0
H  H28  1  0.00521107  0.96775092  0.28699609  1  0  0.077884  0  0.939651  0  0  0.093381  0  1.004329  0  0  0.093607  0  1.006002  0  0  0.091262  0.093115  0  1.003296  0
H  H29  1  0.99479095  0.03225555  0.71300335  1  0  0.077915  0  0.939645  0  0  0.09341  0  1.004288  0  0  0.093616  0  1.005997  0  0  0.09126  0.093147  0  1.003258  0
H  H30  1  0.15630602  0.91810337  0.30346467  1  0  0.087545  0  0.946265  0  0  0.103759  0  1.009556  0  0  0.104717  0  1.009923  0  0  0.093237  0.102852  0  1.009409  0
H  H31  1  0.84369576  0.08190518  0.69653372  1  0  0.087574  0  0.946255  0  0  0.103753  0  1.009577  0  0  0.104707  0  1.009954  0  0  0.09323  0.102858  0  1.009419  0
H  H32  1  0.02552415  0.95700216  0.10025029  1  0  0.060214  0  0.93088  0  0  0.070551  0  0.994972  0  0  0.071849  0  0.993494  0  0  0.111669  0.069404  0  0.996474  0
H  H33  1  0.97447281  0.04299598  0.89974460  1  0  0.060173  0  0.930881  0  0  0.070551  0  0.994943  0  0  0.071846  0  0.993465  0  0  0.111681  0.069405  0  0.996442  0
H  H34  1  0.45408236  0.30512744  0.33351518  1  0  0.124576  0  0.949898  0  0  0.134764  0  1.009159  0  0  0.138275  0  1.00724  0  0  0.117196  0.132381  0  1.010452  0
H  H35  1  0.54591225  0.69486971  0.66648384  1  0  0.12457  0  0.949936  0  0  0.134734  0  1.009207  0  0  0.138245  0  1.007291  0  0  0.117203  0.132352  0  1.010498  0
H  H36  1  0.60263963  0.55381414  0.42235725  1  0  0.083585  0  0.939692  0  0  0.092809  0  1.000025  0  0  0.095066  0  0.998801  0  0  0.118778  0.09111  0  1.000934  0
H  H37  1  0.39735360  0.44618199  0.57764294  1  0  0.083527  0  0.939725  0  0  0.092756  0  1.00006  0  0  0.095011  0  0.998837  0  0  0.118752  0.091056  0  1.000969  0
H  H38  1  0.38705983  0.67191909  0.20516089  1  0  0.079657  0  0.939111  0  0  0.086866  0  1.002634  0  0  0.089632  0  1.000646  0  0  0.117246  0.084951  0  1.003902  0
H  H39  1  0.61294232  0.32808222  0.79484189  1  0  0.079654  0  0.939148  0  0  0.08689  0  1.002639  0  0  0.089656  0  1.000651  0  0  0.117252  0.084975  0  1.003905  0
H  H40  1  0.22805538  0.42450302  0.10440254  1  0  0.115925  0  0.947033  0  0  0.125896  0  1.004943  0  0  0.129727  0  1.003158  0  0  0.114338  0.123118  0  1.0063  0
H  H41  1  0.77194689  0.57550138  0.89559720  1  0  0.115954  0  0.947019  0  0  0.125925  0  1.004926  0  0  0.129756  0  1.00314  0  0  0.114371  0.123147  0  1.006282  0
H  H42  1  0.93277959  0.10903498  0.54265924  1  0  0.114717  0  0.955935  0  0  0.122341  0  1.022813  0  0  0.125768  0  1.020454  0  0  0.108868  0.119767  0  1.024761  0
H  H43  1  0.06722151  0.89095800  0.45734080  1  0  0.114618  0  0.956052  0  0  0.122238  0  1.022951  0  0  0.125664  0  1.020595  0  0  0.108838  0.119665  0  1.024896  0
H  H44  1  0.72603100  0.33333490  0.40177992  1  0  0.096788  0  0.955683  0  0  0.106705  0  1.020469  0  0  0.109936  0  1.018319  0  0  0.100445  0.104437  0  1.021932  0
H  H45  1  0.27396903  0.66666333  0.59822577  1  0  0.096791  0  0.955651  0  0  0.106698  0  1.020453  0  0  0.109927  0  1.018303  0  0  0.10046  0.104429  0  1.021913  0
H  H46  1  0.15387018  0.35535911  0.36542435  1  0  0.094061  0  0.965009  0  0  0.102679  0  1.031462  0  0  0.10543  0  1.030477  0  0  0.097991  0.100566  0  1.032286  0
H  H47  1  0.84612882  0.64463908  0.63457673  1  0  0.094028  0  0.964972  0  0  0.102651  0  1.031436  0  0  0.1054  0  1.030454  0  0  0.097978  0.10054  0  1.032258  0
H  H48  1  0.83945872  0.46325669  0.29497420  1  0  0.109727  0  0.939608  0  0  0.13081  0  0.998213  0  0  0.13247  0  0.997819  0  0  0.091366  0.129789  0  0.998211  0
H  H49  1  0.16054361  0.53674779  0.70503460  1  0  0.10975  0  0.939522  0  0  0.130834  0  0.998157  0  0  0.132495  0  0.997763  0  0  0.091371  0.129814  0  0.998154  0
H  H50  1  0.95939160  0.39768784  0.22576376  1  0  0.10812  0  0.943894  0  0  0.129448  0  1.005023  0  0  0.130591  0  1.005249  0  0  0.090693  0.128749  0  1.004633  0
H  H51  1  0.04060808  0.60231766  0.77424130  1  0  0.108131  0  0.943916  0  0  0.129486  0  1.005012  0  0  0.130629  0  1.00524  0  0  0.090735  0.128788  0  1.004622  0
H  H52  1  0.02764521  0.54649888  0.34356921  1  0  0.108506  0  0.959335  0  0  0.128451  0  1.023522  0  0  0.128678  0  1.025705  0  0  0.089746  0.128337  0  1.021873  0
H  H53  1  0.97235435  0.45350352  0.65643815  1  0  0.108459  0  0.959393  0  0  0.128447  0  1.023521  0  0  0.128684  0  1.025694  0  0  0.089756  0.128331  0  1.021874  0
C  C54  1  0.31817133  0.10987998  0.76284350  1  0  0.130053  0  3.686904  0  0  0.099209  0  3.938445  0  0  0.105985  0  3.955925  0  0  0.049303  0.095134  0  3.92584  0
C  C55  1  0.68183219  0.89012234  0.23715661  1  0  0.130101  0  3.686661  0  0  0.099213  0  3.938233  0  0  0.105986  0  3.95572  0  0  0.049361  0.095139  0  3.92563  0
C  C56  1  0.28611526  0.05234165  0.84238766  1  0  -0.122484  0  3.683185  0  0  -0.14381  0  3.925862  0  0  -0.148992  0  3.945246  0  0  -0.074025  -0.140954  0  3.913526  0
C  C57  1  0.71388248  0.94765860  0.15761003  1  0  -0.122465  0  3.683257  0  0  -0.143838  0  3.925917  0  0  -0.149017  0  3.945297  0  0  -0.074101  -0.140982  0  3.913581  0
C  C58  1  0.35083674  0.95948599  0.85915951  1  0  0.024638  0  3.704031  0  0  0.041177  0  3.933628  0  0  0.041232  0  3.953083  0  0  0.016269  0.04089  0  3.921031  0
C  C59  1  0.64916140  0.04051533  0.14084147  1  0  0.024634  0  3.704236  0  0  0.041248  0  3.933701  0  0  0.041311  0  3.953136  0  0  0.016275  0.040964  0  3.921095  0
C  C60  1  0.44833552  0.93194825  0.79591011  1  0  -0.114933  0  3.697358  0  0  -0.138688  0  3.952499  0  0  -0.143968  0  3.97184  0  0  -0.075199  -0.135597  0  3.939954  0
C  C61  1  0.55166408  0.06804888  0.20408851  1  0  -0.114861  0  3.697491  0  0  -0.13864  0  3.952591  0  0  -0.143918  0  3.971924  0  0  -0.075144  -0.135532  0  3.940062  0
C  C62  1  0.47760083  0.99569330  0.71913527  1  0  0.123053  0  3.676245  0  0  0.090499  0  3.935719  0  0  0.097599  0  3.951331  0  0  0.04607  0.085904  0  3.925086  0
C  C63  1  0.52239856  0.00430593  0.28086608  1  0  0.123074  0  3.676148  0  0  0.090492  0  3.93561  0  0  0.097592  0  3.951218  0  0  0.046077  0.085888  0  3.924975  0
C  C64  1  0.32272993  0.88812425  0.94176454  1  0  0.526784  0  3.864635  0  0  0.483167  0  4.149732  0  0  0.511223  0  4.149207  0  0  0.234108  0.46439  0  4.149545  0
C  C65  1  0.67726578  0.11186769  0.05823336  1  0  0.526765  0  3.864488  0  0  0.483179  0  4.149481  0  0  0.511238  0  4.148954  0  0  0.234087  0.4644  0  4.149289  0
C  C66  1  0.19037695  0.86894327  0.08805007  1  0  0.146558  0  3.584622  0  0  0.122203  0  3.828609  0  0  0.126602  0  3.843886  0  0  0.015158  0.119394  0  3.817999  0
C  C67  1  0.80962041  0.13105595  0.91194887  1  0  0.146466  0  3.584645  0  0  0.122112  0  3.828625  0  0  0.12651  0  3.843906  0  0  0.015091  0.119303  0  3.818013  0
C  C68  1  0.09338422  0.71542878  0.04436900  1  0  -0.170563  0  3.670877  0  0  -0.215556  0  3.933391  0  0  -0.217773  0  3.946808  0  0  -0.168165  -0.213794  0  3.92407  0
C  C69  1  0.90661477  0.28456940  0.95563132  1  0  -0.170464  0  3.670819  0  0  -0.215477  0  3.933348  0  0  -0.217694  0  3.946768  0  0  -0.168116  -0.213714  0  3.924023  0
C  C70  1  0.04605486  0.66316320  0.13506228  1  0  -0.099497  0  3.699099  0  0  -0.138254  0  3.958706  0  0  -0.139411  0  3.974738  0  0  -0.167624  -0.137188  0  3.947465  0
C  C71  1  0.95394667  0.33683915  0.86493994  1  0  -0.099556  0  3.699104  0  0  -0.138244  0  3.958684  0  0  -0.139401  0  3.974718  0  0  -0.167616  -0.137177  0  3.947442  0
C  C72  1  0.96823020  0.75096277  0.19869475  1  0  -0.103864  0  3.681005  0  0  -0.14281  0  3.940655  0  0  -0.143529  0  3.954688  0  0  -0.166593  -0.142182  0  3.930879  0
C  C73  1  0.03177033  0.24903959  0.80130815  1  0  -0.103683  0  3.68093  0  0  -0.142727  0  3.940618  0  0  -0.143436  0  3.954646  0  0  -0.166553  -0.142094  0  3.930843  0
C  C74  1  0.06337504  0.90460879  0.24402873  1  0  -0.161566  0  3.645295  0  0  -0.203634  0  3.901331  0  0  -0.205191  0  3.914761  0  0  -0.166376  -0.202474  0  3.892241  0
C  C75  1  0.93662647  0.09539353  0.75597047  1  0  -0.161691  0  3.645373  0  0  -0.203668  0  3.901366  0  0  -0.205234  0  3.914829  0  0  -0.166361  -0.202536  0  3.892306  0
C  C76  1  0.11670036  0.96015788  0.15591813  1  0  0.123406  0  3.568945  0  0  0.103088  0  3.809149  0  0  0.107377  0  3.823258  0  0  0.012985  0.100203  0  3.79969  0
C  C77  1  0.88329738  0.03984236  0.84407881  1  0  0.123541  0  3.568964  0  0  0.103163  0  3.809145  0  0  0.107462  0  3.823253  0  0  0.013006  0.100283  0  3.799687  0
C  C78  1  0.22685323  0.19785047  0.15175708  1  0  0.531168  0  3.835463  0  0  0.483253  0  4.124437  0  0  0.512685  0  4.122329  0  0  0.242004  0.463444  0  4.125189  0
C  C79  1  0.77314987  0.80215075  0.84823672  1  0  0.531097  0  3.83559  0  0  0.483272  0  4.124433  0  0  0.512704  0  4.122331  0  0  0.242031  0.463463  0  4.125182  0
C  C80  1  0.32521396  0.34461800  0.21196679  1  0  0.006159  0  3.731197  0  0  0.023724  0  3.964997  0  0  0.022166  0  3.98455  0  0  0.010886  0.024717  0  3.952087  0
C  C81  1  0.67478277  0.65538223  0.78802856  1  0  0.005986  0  3.731309  0  0  0.023545  0  3.965077  0  0  0.021982  0  3.984634  0  0  0.010786  0.024539  0  3.952168  0
C  C82  1  0.43449371  0.38153412  0.30104872  1  0  -0.122787  0  3.686885  0  0  -0.146869  0  3.936675  0  0  -0.150616  0  3.954889  0  0  -0.072295  -0.144815  0  3.924858  0
C  C83  1  0.56550503  0.61846613  0.69894905  1  0  -0.122593  0  3.687033  0  0  -0.146656  0  3.936823  0  0  -0.150403  0  3.95504  0  0  -0.072196  -0.144601  0  3.925006  0
C  C84  1  0.51879378  0.52114490  0.35127835  1  0  0.135857  0  3.67989  0  0  0.108006  0  3.930703  0  0  0.113621  0  3.947922  0  0  0.052589  0.104309  0  3.919072  0
C  C85  1  0.48120497  0.47885536  0.64872169  1  0  0.135883  0  3.679923  0  0  0.108028  0  3.930733  0  0  0.113645  0  3.947949  0  0  0.0526  0.10433  0  3.919102  0
C  C86  1  0.39796494  0.58688349  0.23062489  1  0  0.120494  0  3.714667  0  0  0.092347  0  3.968505  0  0  0.097614  0  3.986506  0  0  0.048004  0.088651  0  3.956206  0
C  C87  1  0.60203695  0.41311988  0.76937458  1  0  0.120519  0  3.714632  0  0  0.092353  0  3.968472  0  0  0.097618  0  3.986474  0  0  0.048013  0.088658  0  3.95617  0
C  C88  1  0.30939373  0.45015592  0.17525609  1  0  -0.117708  0  3.700957  0  0  -0.137418  0  3.941701  0  0  -0.142059  0  3.961511  0  0  -0.071427  -0.134451  0  3.928565  0
C  C89  1  0.69060540  0.54984537  0.82474270  1  0  -0.117727  0  3.700825  0  0  -0.137441  0  3.941588  0  0  -0.142081  0  3.961398  0  0  -0.071463  -0.134472  0  3.928453  0
C  C90  1  0.18904254  0.19972692  0.48538990  1  0  0.630096  0  3.912423  0  0  0.579611  0  4.204432  0  0  0.613735  0  4.197447  0  0  0.201976  0.556342  0  4.208465  0
C  C91  1  0.81095983  0.80027228  0.51460940  1  0  0.629917  0  3.912755  0  0  0.579427  0  4.20476  0  0  0.613553  0  4.197777  0  0  0.201821  0.556156  0  4.208791  0
C  C92  1  0.05731152  0.23082537  0.45788846  1  0  -0.071773  0  3.792872  0  0  -0.04724  0  4.033934  0  0  -0.056071  0  4.056228  0  0  -0.022863  -0.041526  0  4.018737  0
C  C93  1  0.94268695  0.76916865  0.54211012  1  0  -0.071658  0  3.792846  0  0  -0.04708  0  4.033835  0  0  -0.055915  0  4.056132  0  0  -0.022765  -0.041364  0  4.018638  0
C  C94  1  0.93494775  0.17845496  0.49680625  1  0  -0.062796  0  3.683695  0  0  -0.103701  0  3.936776  0  0  -0.100229  0  3.954503  0  0  -0.077174  -0.106054  0  3.925578  0
C  C95  1  0.06505072  0.82153905  0.50319233  1  0  -0.062675  0  3.683849  0  0  -0.103579  0  3.936924  0  0  -0.100106  0  3.954651  0  0  -0.077165  -0.10593  0  3.925727  0
C  C96  1  0.81552489  0.21514317  0.47584508  1  0  -0.07623  0  3.784654  0  0  -0.048767  0  4.019925  0  0  -0.058461  0  4.043907  0  0  -0.023718  -0.043004  0  4.004627  0
C  C97  1  0.18447536  0.78485295  0.52415788  1  0  -0.076336  0  3.784715  0  0  -0.048907  0  4.020026  0  0  -0.058603  0  4.044004  0  0  -0.023784  -0.043145  0  4.004726  0
C  C98  1  0.68330751  0.15821312  0.51602580  1  0  0.648963  0  3.89478  0  0  0.595425  0  4.187675  0  0  0.630786  0  4.17967  0  0  0.208916  0.571479  0  4.19213  0
C  C99  1  0.31669574  0.84178297  0.48397512  1  0  0.648791  0  3.895255  0  0  0.595226  0  4.188181  0  0  0.63059  0  4.180177  0  0  0.208859  0.571284  0  4.19263  0
C  C100  1  0.81940814  0.30417477  0.41584968  1  0  -0.113311  0  3.691445  0  0  -0.147617  0  3.934303  0  0  -0.146765  0  3.954707  0  0  -0.081732  -0.147874  0  3.920792  0
C  C101  1  0.18059324  0.69582446  0.58415257  1  0  -0.113214  0  3.69136  0  0  -0.147505  0  3.934195  0  0  -0.146649  0  3.954595  0  0  -0.081742  -0.147761  0  3.92068  0
C  C102  1  0.93874797  0.35357188  0.37317442  1  0  0.136136  0  3.764948  0  0  0.16796  0  4.000398  0  0  0.165999  0  4.026021  0  0  -0.00841  0.168978  0  3.983011  0
C  C103  1  0.06125219  0.64642945  0.62682973  1  0  0.136026  0  3.765015  0  0  0.167874  0  4.000462  0  0  0.165911  0  4.026087  0  0  -0.008443  0.168893  0  3.983077  0
C  C104  1  0.05762934  0.31596160  0.39531882  1  0  -0.114314  0  3.678181  0  0  -0.146652  0  3.919936  0  0  -0.145373  0  3.938952  0  0  -0.083764  -0.146544  0  3.906368  0
C  C105  1  0.94237129  0.68403555  0.60468289  1  0  -0.11423  0  3.678029  0  0  -0.146602  0  3.919772  0  0  -0.145324  0  3.938794  0  0  -0.083733  -0.146493  0  3.906206  0
C  C106  1  0.94096975  0.44510218  0.30590833  1  0  -0.330834  0  3.726297  0  0  -0.410456  0  3.9593  0  0  -0.412832  0  3.970326  0  0  -0.238264  -0.408726  0  3.951505  0
C  C107  1  0.05903195  0.55490334  0.69409990  1  0  -0.33083  0  3.726371  0  0  -0.410514  0  3.959361  0  0  -0.412899  0  3.97038  0  0  -0.238321  -0.408783  0  3.951568  0
N  N108  1  0.41180847  0.08211079  0.70159126  1  0  -0.340915  0  3.305339  0  0  -0.260418  0  3.577298  0  0  -0.279832  0  3.593793  0  0  -0.327012  -0.246761  0  3.565271  0
N  N109  1  0.58819254  0.91788740  0.29841073  1  0  -0.341036  0  3.305198  0  0  -0.260465  0  3.577106  0  0  -0.279879  0  3.593602  0  0  -0.327038  -0.246806  0  3.565085  0
N  N110  1  0.50040930  0.62273761  0.31790970  1  0  -0.309869  0  3.248451  0  0  -0.240958  0  3.513918  0  0  -0.25649  0  3.530358  0  0  -0.312346  -0.230263  0  3.502506  0
N  N111  1  0.49958868  0.37726056  0.68208829  1  0  -0.309879  0  3.24837  0  0  -0.240971  0  3.513845  0  0  -0.256502  0  3.530282  0  0  -0.312332  -0.230277  0  3.502435  0
N  N112  1  0.22922511  0.92126916  0.00135255  1  0  -0.45558  0  3.325176  0  0  -0.401955  0  3.572335  0  0  -0.42477  0  3.583067  0  0  -0.422796  -0.386299  0  3.564521  0
N  N113  1  0.77077241  0.07873320  0.99864862  1  0  -0.455528  0  3.325232  0  0  -0.401863  0  3.572311  0  0  -0.424679  0  3.583043  0  0  -0.42265  -0.386206  0  3.564493  0
N  N114  1  0.21219660  0.10608352  0.20456870  1  0  -0.450908  0  3.276578  0  0  -0.396469  0  3.525337  0  0  -0.419653  0  3.535691  0  0  -0.409511  -0.380491  0  3.517615  0
N  N115  1  0.78780287  0.89391876  0.79542432  1  0  -0.450949  0  3.276565  0  0  -0.396537  0  3.52544  0  0  -0.419691  0  3.535729  0  0  -0.409576  -0.380566  0  3.517732  0
O  O116  1  0.28619248  0.21558247  0.43025308  1  0  -0.64325  0  1.9887  0  0  -0.583915  0  2.226437  0  0  -0.608862  0  2.216498  0  0  -0.319651  -0.565516  0  2.233109  0
O  O117  1  0.71380484  0.78440841  0.56974318  1  0  -0.643275  0  1.988703  0  0  -0.583891  0  2.226403  0  0  -0.608842  0  2.216462  0  0  -0.319623  -0.5655  0  2.233095  0
O  O118  1  0.20372138  0.16168543  0.56747127  1  0  -0.626104  0  2.030997  0  0  -0.561908  0  2.289758  0  0  -0.591118  0  2.280702  0  0  -0.314564  -0.540742  0  2.294725  0
O  O119  1  0.79627665  0.83829920  0.43252362  1  0  -0.62604  0  2.03119  0  0  -0.561873  0  2.289955  0  0  -0.591069  0  2.280872  0  0  -0.314502  -0.540715  0  2.294943  0
O  O120  1  0.66725661  0.05378384  0.54704190  1  0  -0.649237  0  2.056685  0  0  -0.58624  0  2.320533  0  0  -0.611242  0  2.306136  0  0  -0.322051  -0.568265  0  2.329771  0
O  O121  1  0.33274210  0.94620809  0.45295622  1  0  -0.64909  0  2.056917  0  0  -0.586077  0  2.32077  0  0  -0.611081  0  2.306376  0  0  -0.32199  -0.568107  0  2.330006  0
O  O122  1  0.59159914  0.21906844  0.51545870  1  0  -0.624314  0  2.080613  0  0  -0.554999  0  2.346543  0  0  -0.584224  0  2.334594  0  0  -0.315163  -0.534238  0  2.354388  0
O  O123  1  0.40839973  0.78092664  0.48454241  1  0  -0.624285  0  2.080822  0  0  -0.554928  0  2.346734  0  0  -0.584153  0  2.334784  0  0  -0.315124  -0.534167  0  2.354577  0
O  O124  1  0.38295947  0.80555700  0.95178025  1  0  -0.549383  0  1.853919  0  0  -0.513881  0  2.055904  0  0  -0.532364  0  2.050752  0  0  -0.318629  -0.501272  0  2.059116  0
O  O125  1  0.61703466  0.19444432  0.04821892  1  0  -0.549467  0  1.853667  0  0  -0.513996  0  2.055628  0  0  -0.532484  0  2.050476  0  0  -0.3187  -0.501385  0  2.058834  0
O  O126  1  0.16498954  0.16680003  0.05625005  1  0  -0.56762  0  1.961564  0  0  -0.526476  0  2.193378  0  0  -0.546441  0  2.185003  0  0  -0.30142  -0.512561  0  2.198624  0
O  O127  1  0.83501329  0.83320324  0.94373892  1  0  -0.567514  0  1.961698  0  0  -0.526424  0  2.193495  0  0  -0.546395  0  2.185119  0  0  -0.301427  -0.512514  0  2.198744  0
