# generated using pymatgen
data_Al4H20C31O21
_symmetry_space_group_name_H-M   'P 1'
_cell_length_a   6.65839403
_cell_length_b   12.49764963
_cell_length_c   17.24882368
_cell_angle_alpha   89.42916472
_cell_angle_beta   89.52318446
_cell_angle_gamma   89.83320969
_symmetry_Int_Tables_number   1
_chemical_formula_structural   Al4H20C31O21
_chemical_formula_sum   'Al4 H20 C31 O21'
_cell_volume   1435.22169196
_cell_formula_units_Z   1
loop_
 _symmetry_equiv_pos_site_id
 _symmetry_equiv_pos_as_xyz
  1  'x, y, z'
loop_
 _atom_site_type_symbol
 _atom_site_label
 _atom_site_symmetry_multiplicity
 _atom_site_fract_x
 _atom_site_fract_y
 _atom_site_fract_z
 _atom_site_occupancy
 _atom_site_pbe_bader_charge
 _atom_site_pbe_bader_spin_density
 _atom_site_pbe_cm5_charge
 _atom_site_pbe_ddec_charge
 _atom_site_pbe_ddec_spin_density
 _atom_site_pbe_ddec_sum_bond_order
 _atom_site_pbe_magmom
Al  Al0  1  0.88960106  0.50199965  0.50184223  1  2.498915  0  0.398499  1.642419  0  2.581431  0
Al  Al1  1  0.38936540  0.49622030  0.50142833  1  2.501688  0  0.399024  1.643495  0  2.5813  0
Al  Al2  1  0.37573550  0.99175114  0.99895344  1  2.505143  0  0.399894  1.643167  0  2.583358  0
Al  Al3  1  0.87637164  0.99512659  0.99887082  1  2.501316  0  0.39756  1.64487  0  2.582041  0
H  H4  1  0.43075668  0.18219702  0.19092767  1  0.12385  0  0.115437  0.114608  0  0.975674  0
H  H5  1  0.97203742  0.21661034  0.19012665  1  0.084937  0  0.111428  0.127322  0  0.990301  0
H  H6  1  0.43767710  0.31046295  0.29915284  1  0.098257  0  0.111592  0.107167  0  0.982116  0
H  H7  1  0.98331759  0.26938405  0.31626454  1  0.083777  0  0.110107  0.125917  0  0.990335  0
H  H8  1  0.82073614  0.23496439  0.83089786  1  0.097291  0  0.105669  0.106975  0  1.004552  0
H  H9  1  0.82247721  0.34638943  0.70892414  1  0.095152  0  0.111496  0.116479  0  0.99643  0
H  H10  1  0.44028859  0.26223720  0.66828760  1  0.103107  0  0.11228  0.117594  0  0.99302  0
H  H11  1  0.43917854  0.15068637  0.79050267  1  0.056501  0  0.108995  0.111199  0  0.998193  0
H  H12  1  0.94995542  0.73258919  0.32532592  1  0.092861  0  0.106162  0.107421  0  1.005145  0
H  H13  1  0.94210923  0.83905699  0.20102060  1  0.101505  0  0.111519  0.116668  0  0.997163  0
H  H14  1  0.31645506  0.76541958  0.17548713  1  0.126907  0  0.110667  0.115235  0  0.996504  0
H  H15  1  0.32366701  0.65918241  0.30011213  1  0.079496  0  0.108214  0.110937  0  1.002458  0
H  H16  1  0.91769515  0.75849188  0.65415999  1  0.129386  0  0.116691  0.125482  0  0.992689  0
H  H17  1  0.34208757  0.74173041  0.83905321  1  0.086929  0  0.11084  0.112041  0  0.990061  0
H  H18  1  0.33758490  0.63282885  0.71809131  1  0.136905  0  0.116928  0.120964  0  0.980774  0
H  H19  1  0.91428704  0.97328982  0.79876548  1  0.088727  0  0.102837  0.041692  0  1.009208  0
H  H20  1  0.64863402  0.36649141  0.47151931  1  0.596892  0  0.352507  0.430356  0  0.854688  0
H  H21  1  0.14699649  0.63465206  0.47411566  1  0.625688  0  0.355173  0.434083  0  0.847936  0
H  H22  1  0.62162112  0.12727845  0.96995163  1  0.633165  0  0.355505  0.43446  0  0.848184  0
H  H23  1  0.12381067  0.86245588  0.96597052  1  0.638243  0  0.354405  0.433173  0  0.849158  0
C  C24  1  0.64333977  0.62496004  0.39293582  1  1.56813  0  0.267894  0.643579  0  4.094005  0
C  C25  1  0.62935513  0.61975998  0.60878224  1  1.574804  0  0.272416  0.641498  0  4.096868  0
C  C26  1  0.13071316  0.37741055  0.60995150  1  1.572718  0  0.270616  0.637457  0  4.10094  0
C  C27  1  0.14501232  0.37142710  0.39585153  1  1.54791  0  0.258455  0.678002  0  4.115363  0
C  C28  1  0.28750942  0.21252011  0.21331653  1  -0.045614  0  -0.065011  -0.021818  0  3.977438  0
C  C29  1  0.12058065  0.18719354  0.17362339  1  -0.048474  0  -0.082565  -0.229733  0  3.877065  0
C  C30  1  0.29227484  0.27804522  0.28223247  1  -0.019214  0  -0.066003  -0.01884  0  3.981791  0
C  C31  1  0.13250724  0.30101802  0.32788621  1  -0.057279  0  -0.084369  -0.231346  0  3.875749  0
C  C32  1  0.95579615  0.24167901  0.79510009  1  -0.075401  0  -0.081984  -0.096761  0  3.983935  0
C  C33  1  0.95631527  0.30318957  0.72753387  1  -0.009546  0  -0.078557  -0.090539  0  3.969446  0
C  C34  1  0.13163147  0.31069294  0.68214751  1  -0.032401  0  -0.008401  -0.034713  0  3.962889  0
C  C35  1  0.30631386  0.25613287  0.70479295  1  -0.002427  0  -0.075581  -0.088292  0  3.956394  0
C  C36  1  0.30585757  0.19492718  0.77260844  1  0.006733  0  -0.076403  -0.085275  0  3.962835  0
C  C37  1  0.13075453  0.18764781  0.81820391  1  -0.032489  0  -0.011471  -0.039854  0  3.968597  0
C  C38  1  0.81206384  0.74032741  0.29214411  1  -0.009608  0  -0.080502  -0.093214  0  3.975691  0
C  C39  1  0.80803173  0.79904881  0.22331817  1  -0.091608  0  -0.078333  -0.09178  0  3.968662  0
C  C40  1  0.62901132  0.80786946  0.18134566  1  0.033615  0  -0.009951  -0.036972  0  3.965513  0
C  C41  1  0.45378585  0.75804001  0.20912958  1  -0.093563  0  -0.077896  -0.091092  0  3.966668  0
C  C42  1  0.45780730  0.69958669  0.27821275  1  -0.003578  0  -0.080865  -0.095794  0  3.972834  0
C  C43  1  0.63709287  0.69024264  0.31998848  1  -0.036866  0  -0.010947  -0.034717  0  3.960697  0
C  C44  1  0.79225210  0.75340899  0.69508168  1  0.024084  0  -0.062839  -0.100038  0  3.903517  0
C  C45  1  0.79227700  0.81823262  0.76072653  1  -0.080909  0  -0.012146  -0.00094  0  3.964975  0
C  C46  1  0.62997016  0.81152721  0.81407960  1  -0.003105  0  0.000593  -0.059283  0  3.918077  0
C  C47  1  0.46762514  0.74449592  0.79832028  1  -0.023604  0  -0.071913  -0.073234  0  3.968745  0
C  C48  1  0.46567101  0.68324239  0.73147441  1  -0.017855  0  -0.062793  -0.065464  0  3.930912  0
C  C49  1  0.62983045  0.68636894  0.68012380  1  -0.026228  0  -0.003925  -0.032852  0  3.965103  0
C  C50  1  0.62855133  0.87207051  0.88842977  1  1.568129  0  0.2682  0.641742  0  4.095551  0
C  C51  1  0.62627621  0.87156675  0.10769808  1  1.559705  0  0.271311  0.641497  0  4.097465  0
C  C52  1  0.12527642  0.11702811  0.10534976  1  1.549893  0  0.259982  0.673878  0  4.125196  0
C  C53  1  0.12914282  0.12102927  0.89045200  1  1.5661  0  0.268076  0.643054  0  4.09235  0
C  C54  1  0.95392875  0.90001445  0.76614797  1  0.946393  0  0.097539  0.274748  0  3.953515  0
O  O55  1  0.46185795  0.58107265  0.58831642  1  -1.255326  0  -0.228954  -0.579335  0  2.344704  0
O  O56  1  0.81609615  0.59449348  0.41593451  1  -1.261535  0  -0.23964  -0.602442  0  2.339335  0
O  O57  1  0.97740476  0.39301631  0.42914737  1  -1.252982  0  -0.243332  -0.60924  0  2.302121  0
O  O58  1  0.79622323  0.60679777  0.57352091  1  -1.255059  0  -0.232574  -0.585633  0  2.342383  0
O  O59  1  0.96248497  0.41610682  0.58910707  1  -1.25386  0  -0.230483  -0.580529  0  2.353926  0
O  O60  1  0.47621562  0.60417653  0.42637321  1  -1.257907  0  -0.239848  -0.606639  0  2.345184  0
O  O61  1  0.64178459  0.43312704  0.49971627  1  -1.400029  0  -0.447655  -0.98828  0  2.191683  0
O  O62  1  0.29713118  0.39068355  0.57423641  1  -1.257698  0  -0.233851  -0.589065  0  2.344044  0
O  O63  1  0.31734034  0.40523441  0.41611648  1  -1.256369  0  -0.242501  -0.60871  0  2.324024  0
O  O64  1  0.14131361  0.56511851  0.49934353  1  -1.428099  0  -0.447381  -0.989145  0  2.191785  0
O  O65  1  0.79557590  0.89981330  0.07965823  1  -1.257778  0  -0.231771  -0.586019  0  2.356878  0
O  O66  1  0.45751950  0.89387090  0.91796528  1  -1.261773  0  -0.235042  -0.593515  0  2.342344  0
O  O67  1  0.29832367  0.09402064  0.91867756  1  -1.256348  0  -0.238484  -0.601923  0  2.344016  0
O  O68  1  0.45605740  0.89301985  0.07820810  1  -1.250969  0  -0.233127  -0.585962  0  2.342546  0
O  O69  1  0.29514995  0.08617157  0.07940474  1  -1.259597  0  -0.234712  -0.592603  0  2.340046  0
O  O70  1  0.79851884  0.89565069  0.91741946  1  -1.251066  0  -0.236439  -0.604958  0  2.355659  0
O  O71  1  0.62477202  0.05831082  0.99607477  1  -1.435605  0  -0.448547  -0.990888  0  2.201943  0
O  O72  1  0.95479086  0.09267832  0.07726520  1  -1.246397  0  -0.237325  -0.589686  0  2.306935  0
O  O73  1  0.95711959  0.09581215  0.91844532  1  -1.269415  0  -0.242721  -0.615185  0  2.359941  0
O  O74  1  0.12509424  0.92762195  0.99598218  1  -1.440936  0  -0.44661  -0.985856  0  2.18529  0
O  O75  1  0.11777937  0.89153579  0.73374664  1  -1.086329  0  -0.265057  -0.361012  0  2.126001  0
