# generated using pymatgen
data_ZnH4C16NClO4F5
_symmetry_space_group_name_H-M   'P 1'
_cell_length_a   9.96407772
_cell_length_b   10.93832288
_cell_length_c   11.02750280
_cell_angle_alpha   89.43851439
_cell_angle_beta   90.90260460
_cell_angle_gamma   83.13448506
_symmetry_Int_Tables_number   1
_chemical_formula_structural   ZnH4C16NClO4F5
_chemical_formula_sum   'Zn2 H8 C32 N2 Cl2 O8 F10'
_cell_volume   1193.04194650
_cell_formula_units_Z   2
loop_
 _symmetry_equiv_pos_site_id
 _symmetry_equiv_pos_as_xyz
  1  'x, y, z'
loop_
 _atom_site_type_symbol
 _atom_site_label
 _atom_site_symmetry_multiplicity
 _atom_site_fract_x
 _atom_site_fract_y
 _atom_site_fract_z
 _atom_site_occupancy
 _atom_site_pbe_bader_charge
 _atom_site_pbe_bader_spin_density
 _atom_site_pbe_cm5_charge
 _atom_site_pbe_ddec_charge
 _atom_site_pbe_ddec_spin_density
 _atom_site_pbe_ddec_sum_bond_order
 _atom_site_pbe_magmom
Zn  Zn0  1  0.64252195  0.46814303  0.50680344  1  1.309846  0  0.678954  0.861545  0  2.315386  0
Zn  Zn1  1  0.34782969  0.50326455  0.50397102  1  1.306811  0  0.678271  0.863612  0  2.322158  0
H  H2  1  0.88483868  0.42505033  0.75160608  1  0.120471  0  0.108935  0.140424  0  1.006379  0
H  H3  1  0.13002817  0.40758743  0.24314601  1  0.152216  0  0.110908  0.142965  0  0.992241  0
H  H4  1  0.81999121  0.65905271  0.49749638  1  0.205968  0  0.134291  0.132542  0  1.00339  0
H  H5  1  0.17112807  0.30914052  0.50874691  1  0.206921  0  0.134354  0.133216  0  1.003335  0
H  H6  1  0.06152241  0.24441226  0.79592431  1  0.107426  0  0.114414  0.139826  0  0.977175  0
H  H7  1  0.01772940  0.62487690  0.21332793  1  0.102232  0  0.110928  0.138654  0  0.983764  0
H  H8  1  0.34361690  0.11985669  0.63173497  1  0.10416  0  0.114289  0.141083  0  0.990561  0
H  H9  1  0.65972878  0.85102927  0.37635399  1  0.098453  0  0.117247  0.144233  0  0.977641  0
C  C10  1  0.49546890  0.25190973  0.49528339  1  1.584096  0  0.221836  0.626676  0  4.147144  0
C  C11  1  0.50079932  0.71942997  0.51319383  1  1.620113  0  0.224755  0.630916  0  4.148664  0
C  C12  1  0.49267986  0.50271780  0.13554447  1  0.043878  0  -0.006944  -0.141186  0  3.906903  0
C  C13  1  0.49593256  0.48412174  0.87598524  1  0.044489  0  -0.006398  -0.140804  0  3.905051  0
C  C14  1  0.61599605  0.48769891  0.07386703  1  0.14199  0  -0.000829  -0.000422  0  3.988595  0
C  C15  1  0.37268200  0.49573086  0.93819315  1  0.091224  0  -0.002066  -0.002775  0  3.994875  0
C  C16  1  0.41166014  0.06126220  0.57452668  1  0.066591  0  -0.089341  -0.198508  0  3.983928  0
C  C17  1  0.59076918  0.90878241  0.43366940  1  0.049228  0  -0.091561  -0.212658  0  3.97703  0
C  C18  1  0.41366310  0.93466190  0.57953172  1  0.434503  0  0.095787  0.253608  0  4.059017  0
C  C19  1  0.58825328  0.03593588  0.42774203  1  0.452066  0  0.101238  0.269224  0  4.045392  0
C  C20  1  0.50215308  0.85623660  0.51001624  1  0.056448  0  -0.012574  -0.090724  0  3.970439  0
C  C21  1  0.49952267  0.11484175  0.49736201  1  0.047704  0  -0.020708  -0.118321  0  3.970653  0
C  C22  1  0.03609046  0.59682514  0.49928158  1  0.664339  0  0.154994  0.219669  0  4.06906  0
C  C23  1  0.95461947  0.37130266  0.50528116  1  0.632205  0  0.155039  0.217396  0  4.0784  0
C  C24  1  0.89874124  0.58088565  0.49800973  1  0.51978  0  0.067895  0.020075  0  3.856511  0
C  C25  1  0.09210728  0.38720209  0.50552280  1  0.569612  0  0.066654  0.01338  0  3.870842  0
C  C26  1  0.49898231  0.47788359  0.73931749  1  1.629364  0  0.221525  0.623185  0  4.140373  0
C  C27  1  0.48920374  0.50175701  0.27213290  1  1.627298  0  0.219788  0.623299  0  4.140952  0
C  C28  1  0.01453312  0.55734376  0.80774668  1  0.498365  0  0.075782  0.15292  0  4.108062  0
C  C29  1  0.95099123  0.32804354  0.19203032  1  0.491704  0  0.076144  0.158117  0  4.121116  0
C  C30  1  0.14034226  0.57760443  0.85560367  1  0.504119  0  0.097437  0.160458  0  4.063502  0
C  C31  1  0.81708488  0.34939658  0.15055942  1  0.520057  0  0.094257  0.153511  0  4.047365  0
C  C32  1  0.24041487  0.47964962  0.88023408  1  0.171426  0  -0.020751  -0.109193  0  4.054048  0
C  C33  1  0.75249401  0.46892492  0.13257912  1  0.100475  0  -0.019849  -0.106063  0  4.050581  0
C  C34  1  0.20743325  0.36127767  0.85638155  1  0.397857  0  0.096095  0.255714  0  4.039959  0
C  C35  1  0.82849459  0.56529709  0.15804813  1  0.475732  0  0.094802  0.256398  0  4.054071  0
C  C36  1  0.08253275  0.33869616  0.81025112  1  0.035638  0  -0.108433  -0.208024  0  4.041538  0
C  C37  1  0.96193185  0.54646373  0.19863958  1  0.098013  0  -0.111642  -0.212175  0  4.044385  0
C  C38  1  0.98500167  0.43869461  0.78532074  1  0.046037  0  -0.106395  -0.178135  0  4.067047  0
C  C39  1  0.02406442  0.42567948  0.21542977  1  -0.07002  0  -0.105732  -0.180359  0  4.054802  0
C  C40  1  0.37452760  0.51109130  0.06363171  1  0.433878  0  0.111603  0.222522  0  3.997928  0
C  C41  1  0.61339193  0.48308985  0.94732015  1  0.456481  0  0.111372  0.223786  0  4.000364  0
N  N42  1  0.85813937  0.46828510  0.50188537  1  -1.205011  0  -0.2888  -0.207772  0  3.456555  0
N  N43  1  0.13268383  0.49977238  0.50306884  1  -1.20669  0  -0.288504  -0.20449  0  3.453112  0
Cl  Cl44  1  0.08107777  0.74169770  0.49655492  1  -0.096933  0  0.078359  0.016703  0  1.529197  0
Cl  Cl45  1  0.90981042  0.22644040  0.51295934  1  -0.09183  0  0.080262  0.01831  0  1.542724  0
O  O46  1  0.60292811  0.29644280  0.46695204  1  -1.150746  0  -0.316032  -0.55556  0  2.404584  0
O  O47  1  0.38934599  0.68111858  0.48589257  1  -1.152844  0  -0.311878  -0.553058  0  2.378234  0
O  O48  1  0.38415564  0.31342848  0.52478627  1  -1.180551  0  -0.314087  -0.554166  0  2.338436  0
O  O49  1  0.61202727  0.65462173  0.54070365  1  -1.173304  0  -0.309959  -0.541976  0  2.320086  0
O  O50  1  0.60887879  0.43646801  0.68905978  1  -1.155915  0  -0.31587  -0.545709  0  2.303249  0
O  O51  1  0.37972096  0.48019490  0.32153683  1  -1.152225  0  -0.315666  -0.544371  0  2.320765  0
O  O52  1  0.38825024  0.51711561  0.68530206  1  -1.156384  0  -0.305686  -0.535818  0  2.362578  0
O  O53  1  0.59783276  0.51995992  0.32726962  1  -1.156543  0  -0.306588  -0.540132  0  2.346642  0
F  F54  1  0.92104383  0.65588426  0.78323494  1  -0.626523  0  -0.104128  -0.128778  0  1.348814  0
F  F55  1  0.00966064  0.21007465  0.20705311  1  -0.623225  0  -0.109725  -0.13642  0  1.336718  0
F  F56  1  0.16617370  0.69398833  0.87689788  1  -0.613866  0  -0.091421  -0.109022  0  1.351361  0
F  F57  1  0.74941502  0.25235557  0.12548228  1  -0.617914  0  -0.090489  -0.106942  0  1.355715  0
F  F58  1  0.30307865  0.26372393  0.88017378  1  -0.628457  0  -0.104313  -0.14132  0  1.310875  0
F  F59  1  0.76815604  0.68279822  0.14105520  1  -0.629899  0  -0.106053  -0.140857  0  1.309453  0
F  F60  1  0.25228488  0.53284040  0.11649586  1  -0.633541  0  -0.079084  -0.112476  0  1.460971  0
F  F61  1  0.73496807  0.47615040  0.89330132  1  -0.635631  0  -0.077428  -0.112102  0  1.482218  0
F  F62  1  0.32829040  0.88541518  0.65644787  1  -0.631796  0  -0.107315  -0.144675  0  1.328371  0
F  F63  1  0.67347434  0.08217643  0.34923691  1  -0.629369  0  -0.101965  -0.138979  0  1.365734  0
