# generated using pymatgen
data_CdH12C16(SN3)2
_symmetry_space_group_name_H-M   'P 1'
_cell_length_a   5.41286113
_cell_length_b   9.01347826
_cell_length_c   18.99493568
_cell_angle_alpha   92.05664158
_cell_angle_beta   90.00679452
_cell_angle_gamma   107.43023715
_symmetry_Int_Tables_number   1
_chemical_formula_structural   CdH12C16(SN3)2
_chemical_formula_sum   'Cd2 H24 C32 S4 N12'
_cell_volume   883.55774973
_cell_formula_units_Z   2
loop_
 _symmetry_equiv_pos_site_id
 _symmetry_equiv_pos_as_xyz
  1  'x, y, z'
loop_
 _atom_site_type_symbol
 _atom_site_label
 _atom_site_symmetry_multiplicity
 _atom_site_fract_x
 _atom_site_fract_y
 _atom_site_fract_z
 _atom_site_occupancy
 _atom_site_hle17_bader_spin_density
 _atom_site_hle17_ddec_charge
 _atom_site_hle17_ddec_spin_density
 _atom_site_hle17_ddec_sum_bond_order
 _atom_site_hle17_magmom
 _atom_site_hse06_10hf_bader_spin_density
 _atom_site_hse06_10hf_ddec_charge
 _atom_site_hse06_10hf_ddec_spin_density
 _atom_site_hse06_10hf_ddec_sum_bond_order
 _atom_site_hse06_10hf_magmom
 _atom_site_hse06_bader_spin_density
 _atom_site_hse06_ddec_charge
 _atom_site_hse06_ddec_spin_density
 _atom_site_hse06_ddec_sum_bond_order
 _atom_site_hse06_magmom
 _atom_site_pbe_bader_spin_density
 _atom_site_pbe_cm5_charge
 _atom_site_pbe_ddec_charge
 _atom_site_pbe_ddec_spin_density
 _atom_site_pbe_ddec_sum_bond_order
 _atom_site_pbe_magmom
Cd  Cd0  1  0.99998405  0.00000770  0.50000063  1  0  0.967898  0  1.941965  0  0  0.808935  0  2.388408  0  0  0.849068  0  2.35667  0  0  0.718969  0.781281  0  2.409245  0
Cd  Cd1  1  0.00001301  0.99999596  0.00000044  1  0  0.967864  0  1.94315  0  0  0.809014  0  2.390054  0  0  0.849133  0  2.358294  0  0  0.719676  0.781371  0  2.410919  0
H  H2  1  0.20136713  0.96584328  0.69481080  1  0  0.11053  0  0.967078  0  0  0.118428  0  1.035078  0  0  0.121335  0  1.034013  0  0  0.104517  0.116361  0  1.035915  0
H  H3  1  0.76343114  0.96593494  0.19488173  1  0  0.110288  0  0.966923  0  0  0.118145  0  1.034607  0  0  0.121083  0  1.033557  0  0  0.104393  0.116061  0  1.035446  0
H  H4  1  0.79863817  0.03416074  0.30518649  1  0  0.110583  0  0.96696  0  0  0.118498  0  1.03494  0  0  0.121406  0  1.033874  0  0  0.104528  0.116431  0  1.035783  0
H  H5  1  0.23659593  0.03406088  0.80512435  1  0  0.110209  0  0.966954  0  0  0.11812  0  1.03456  0  0  0.121058  0  1.033512  0  0  0.104339  0.116032  0  1.035397  0
H  H6  1  0.26014365  0.49786948  0.70480551  1  0  0.105098  0  0.955415  0  0  0.113357  0  1.020169  0  0  0.116025  0  1.020118  0  0  0.101878  0.111461  0  1.020272  0
H  H7  1  0.23726023  0.49812440  0.20466899  1  0  0.105069  0  0.955655  0  0  0.113367  0  1.020435  0  0  0.116076  0  1.020273  0  0  0.101749  0.111476  0  1.020519  0
H  H8  1  0.73984941  0.50213221  0.29519226  1  0  0.105182  0  0.955324  0  0  0.11342  0  1.020091  0  0  0.116089  0  1.020039  0  0  0.101907  0.111518  0  1.020199  0
H  H9  1  0.76273088  0.50188078  0.79532885  1  0  0.105047  0  0.95567  0  0  0.113399  0  1.020397  0  0  0.116109  0  1.020232  0  0  0.101769  0.111496  0  1.020494  0
H  H10  1  0.88306408  0.40501619  0.62225377  1  0  0.096246  0  0.974022  0  0  0.105024  0  1.036166  0  0  0.107177  0  1.035807  0  0  0.097094  0.103471  0  1.036502  0
H  H11  1  0.52175583  0.40514658  0.12221033  1  0  0.096453  0  0.973731  0  0  0.105083  0  1.036064  0  0  0.107136  0  1.035849  0  0  0.09711  0.103601  0  1.036298  0
H  H12  1  0.11692898  0.59498551  0.37774401  1  0  0.096281  0  0.974052  0  0  0.10503  0  1.036214  0  0  0.107185  0  1.035852  0  0  0.097095  0.103475  0  1.036554  0
H  H13  1  0.47821761  0.59485283  0.87778266  1  0  0.09638  0  0.973551  0  0  0.104984  0  1.035945  0  0  0.107032  0  1.03574  0  0  0.09706  0.103501  0  1.036177  0
H  H14  1  0.65999709  0.58737065  0.57909924  1  0  0.102921  0  0.954896  0  0  0.110184  0  1.021436  0  0  0.113362  0  1.020196  0  0  0.100278  0.107828  0  1.022487  0
H  H15  1  0.92695276  0.58742889  0.07912695  1  0  0.102299  0  0.955284  0  0  0.109454  0  1.022095  0  0  0.112689  0  1.020819  0  0  0.099772  0.107092  0  1.023132  0
H  H16  1  0.33999585  0.41263452  0.42090070  1  0  0.102882  0  0.95491  0  0  0.110151  0  1.021442  0  0  0.113326  0  1.020205  0  0  0.100254  0.10779  0  1.022495  0
H  H17  1  0.07303069  0.41256467  0.92086910  1  0  0.102339  0  0.955281  0  0  0.10946  0  1.022115  0  0  0.112692  0  1.020842  0  0  0.099776  0.107104  0  1.023146  0
H  H18  1  0.60655794  0.84502128  0.59395708  1  0  0.310982  0  0.894852  0  0  0.299552  0  0.950971  0  0  0.304039  0  0.949675  0  0  0.2994  0.296343  0  0.951954  0
H  H19  1  0.23774662  0.84479893  0.09417292  1  0  0.310175  0  0.89595  0  0  0.299492  0  0.951277  0  0  0.303969  0  0.949992  0  0  0.299383  0.296292  0  0.952257  0
H  H20  1  0.39343394  0.15497805  0.40604539  1  0  0.310979  0  0.894919  0  0  0.299572  0  0.951009  0  0  0.30406  0  0.949717  0  0  0.299398  0.296364  0  0.951984  0
H  H21  1  0.76226656  0.15518758  0.90583142  1  0  0.310085  0  0.895963  0  0  0.299348  0  0.951352  0  0  0.303822  0  0.950073  0  0  0.299379  0.296147  0  0.95233  0
H  H22  1  0.81372200  0.99069855  0.64126584  1  0  0.316752  0  0.929752  0  0  0.299656  0  0.99564  0  0  0.306432  0  0.990423  0  0  0.289464  0.294848  0  0.999362  0
H  H23  1  0.17626091  0.99060431  0.14144382  1  0  0.316534  0  0.928843  0  0  0.299305  0  0.995247  0  0  0.306065  0  0.990051  0  0  0.289696  0.294501  0  0.998977  0
H  H24  1  0.18626734  0.00930310  0.35873825  1  0  0.316702  0  0.92975  0  0  0.299611  0  0.995649  0  0  0.30639  0  0.990425  0  0  0.289434  0.294803  0  0.999371  0
H  H25  1  0.82375276  0.00938688  0.85855797  1  0  0.316538  0  0.928778  0  0  0.299265  0  0.995244  0  0  0.306026  0  0.990047  0  0  0.289705  0.29446  0  0.998972  0
C  C26  1  0.42108343  0.80521544  0.46653913  1  0  0.284566  0  4.016451  0  0  0.268838  0  4.312767  0  0  0.290801  0  4.325897  0  0  0.14042  0.25395  0  4.30351  0
C  C27  1  0.38503314  0.80519717  0.96689208  1  0  0.283916  0  4.016371  0  0  0.268099  0  4.312732  0  0  0.290091  0  4.32587  0  0  0.139474  0.253193  0  4.303475  0
C  C28  1  0.57887489  0.19479437  0.53346406  1  0  0.284365  0  4.016526  0  0  0.268623  0  4.31289  0  0  0.290592  0  4.326033  0  0  0.140225  0.253738  0  4.303621  0
C  C29  1  0.61498501  0.19478817  0.03311381  1  0  0.284099  0  4.016769  0  0  0.268278  0  4.313119  0  0  0.29027  0  4.326255  0  0  0.139576  0.25337  0  4.303863  0
C  C30  1  0.91399059  0.78812129  0.63533440  1  0  0.295426  0  3.815921  0  0  0.292642  0  4.063059  0  0  0.299556  0  4.084957  0  0  0.089333  0.287753  0  4.048206  0
C  C31  1  0.87349566  0.78818792  0.13540691  1  0  0.295138  0  3.814625  0  0  0.292103  0  4.062204  0  0  0.299021  0  4.084124  0  0  0.089563  0.287217  0  4.047355  0
C  C32  1  0.08601160  0.21188390  0.36466238  1  0  0.295567  0  3.815635  0  0  0.292656  0  4.062963  0  0  0.29957  0  4.084861  0  0  0.089375  0.287767  0  4.048102  0
C  C33  1  0.12651559  0.21180211  0.86459381  1  0  0.295056  0  3.814728  0  0  0.292031  0  4.062303  0  0  0.298953  0  4.084222  0  0  0.089533  0.287143  0  4.047452  0
C  C34  1  0.12930880  0.84241742  0.68026058  1  0  -0.185778  0  3.656051  0  0  -0.214892  0  3.903876  0  0  -0.218803  0  3.92262  0  0  -0.086924  -0.21223  0  3.891412  0
C  C35  1  0.71230663  0.84252088  0.18028668  1  0  -0.185674  0  3.65533  0  0  -0.214507  0  3.903316  0  0  -0.218467  0  3.92185  0  0  -0.086794  -0.211782  0  3.89085  0
C  C36  1  0.87070194  0.15759010  0.31973625  1  0  -0.185956  0  3.656104  0  0  -0.215014  0  3.90392  0  0  -0.218925  0  3.922659  0  0  -0.086955  -0.212356  0  3.891465  0
C  C37  1  0.28770567  0.15747495  0.81971678  1  0  -0.185638  0  3.655216  0  0  -0.214474  0  3.90327  0  0  -0.218435  0  3.921787  0  0  -0.086757  -0.211742  0  3.890796  0
C  C38  1  0.25112695  0.73715375  0.70570397  1  0  0.023932  0  3.911763  0  0  0.046675  0  4.143419  0  0  0.045601  0  4.164239  0  0  -0.004638  0.04732  0  4.129532  0
C  C39  1  0.48526828  0.73735285  0.20563759  1  0  0.024661  0  3.911742  0  0  0.047422  0  4.142908  0  0  0.0465  0  4.163502  0  0  -0.00484  0.048016  0  4.129093  0
C  C40  1  0.74887709  0.26285143  0.29429439  1  0  0.024064  0  3.911922  0  0  0.046781  0  4.143584  0  0  0.045708  0  4.164399  0  0  -0.004628  0.047421  0  4.129698  0
C  C41  1  0.51474441  0.26265116  0.79436234  1  0  0.024759  0  3.911411  0  0  0.047379  0  4.142788  0  0  0.046468  0  4.163375  0  0  -0.004832  0.047972  0  4.128973  0
C  C42  1  0.16407632  0.57837496  0.68493524  1  0  -0.109919  0  3.719509  0  0  -0.134393  0  3.966923  0  0  -0.136699  0  3.986955  0  0  -0.088093  -0.132717  0  3.953356  0
C  C43  1  0.41377169  0.57856366  0.18484724  1  0  -0.110032  0  3.721645  0  0  -0.134486  0  3.968635  0  0  -0.136832  0  3.988611  0  0  -0.087819  -0.132781  0  3.955104  0
C  C44  1  0.83592102  0.42162790  0.31506202  1  0  -0.110002  0  3.719576  0  0  -0.134454  0  3.96699  0  0  -0.136761  0  3.987021  0  0  -0.08807  -0.132768  0  3.953419  0
C  C45  1  0.58622079  0.42143687  0.81515051  1  0  -0.110094  0  3.721551  0  0  -0.134555  0  3.968566  0  0  -0.136903  0  3.988538  0  0  -0.087838  -0.132848  0  3.955032  0
C  C46  1  0.95253472  0.52728037  0.63893522  1  0  -0.042718  0  3.770676  0  0  -0.055331  0  4.020089  0  0  -0.056276  0  4.041226  0  0  -0.087099  -0.054667  0  4.005714  0
C  C47  1  0.57436425  0.52741339  0.13890061  1  0  -0.042904  0  3.771448  0  0  -0.055383  0  4.020596  0  0  -0.056298  0  4.041846  0  0  -0.086841  -0.054758  0  4.006179  0
C  C48  1  0.04746446  0.47272249  0.36106204  1  0  -0.042816  0  3.770726  0  0  -0.055407  0  4.02013  0  0  -0.056354  0  4.041275  0  0  -0.08713  -0.054743  0  4.005749  0
C  C49  1  0.42561667  0.47258249  0.86109600  1  0  -0.042666  0  3.771083  0  0  -0.055108  0  4.020219  0  0  -0.056027  0  4.041472  0  0  -0.086751  -0.05448  0  4.005799  0
C  C50  1  0.82643163  0.62991527  0.61473628  1  0  -0.143173  0  3.687535  0  0  -0.164399  0  3.937988  0  0  -0.16808  0  3.957846  0  0  -0.08522  -0.161755  0  3.92467  0
C  C51  1  0.80305468  0.62999568  0.11477289  1  0  -0.143035  0  3.685809  0  0  -0.164303  0  3.937008  0  0  -0.168006  0  3.956711  0  0  -0.085406  -0.161674  0  3.923775  0
C  C52  1  0.17356802  0.37009224  0.38526213  1  0  -0.14318  0  3.687418  0  0  -0.164357  0  3.937897  0  0  -0.168037  0  3.957758  0  0  -0.085239  -0.16171  0  3.924574  0
C  C53  1  0.19693732  0.37000019  0.88522477  1  0  -0.143139  0  3.685699  0  0  -0.164375  0  3.936863  0  0  -0.168076  0  3.956571  0  0  -0.085418  -0.161756  0  3.923629  0
C  C54  1  0.46341535  0.79217711  0.75387290  1  0  0.285998  0  3.744081  0  0  0.268785  0  4.016529  0  0  0.280442  0  4.033652  0  0  0.198645  0.260845  0  4.005115  0
C  C55  1  0.32803109  0.79243519  0.25380632  1  0  0.286736  0  3.74545  0  0  0.269503  0  4.017724  0  0  0.281112  0  4.034815  0  0  0.199476  0.261572  0  4.006328  0
C  C56  1  0.53659967  0.20783156  0.24612500  1  0  0.285953  0  3.743962  0  0  0.268741  0  4.016425  0  0  0.2804  0  4.033547  0  0  0.198581  0.260802  0  4.005018  0
C  C57  1  0.67198529  0.20756883  0.74619150  1  0  0.286733  0  3.745588  0  0  0.269543  0  4.017887  0  0  0.281147  0  4.034977  0  0  0.199492  0.261615  0  4.006494  0
S  S58  1  0.65519074  0.76382425  0.42416315  1  0  -0.309327  0  2.113287  0  0  -0.27681  0  2.424425  0  0  -0.294189  0  2.419465  0  0  -0.129217  -0.264561  0  2.42735  0
S  S59  1  0.10960118  0.76346743  0.92453025  1  0  -0.308708  0  2.112931  0  0  -0.276034  0  2.42377  0  0  -0.293379  0  2.418783  0  0  -0.128787  -0.263819  0  2.426719  0
S  S60  1  0.34478410  0.23618904  0.57584063  1  0  -0.309137  0  2.11356  0  0  -0.276624  0  2.424733  0  0  -0.29401  0  2.419777  0  0  -0.129096  -0.264376  0  2.427657  0
S  S61  1  0.89041707  0.23651441  0.07547716  1  0  -0.308746  0  2.11291  0  0  -0.27608  0  2.423775  0  0  -0.293426  0  2.418786  0  0  -0.128795  -0.263859  0  2.426722  0
N  N62  1  0.25655453  0.83615647  0.49985173  1  0  -0.544975  0  2.884461  0  0  -0.490547  0  3.150551  0  0  -0.511133  0  3.159927  0  0  -0.39982  -0.476463  0  3.143926  0
N  N63  1  0.58053705  0.83636930  0.00021298  1  0  -0.544561  0  2.886248  0  0  -0.489979  0  3.152354  0  0  -0.510629  0  3.161807  0  0  -0.399393  -0.475858  0  3.14569  0
N  N64  1  0.74342342  0.16385568  0.50014992  1  0  -0.544924  0  2.884113  0  0  -0.490498  0  3.15024  0  0  -0.511063  0  3.159569  0  0  -0.399728  -0.476413  0  3.143609  0
N  N65  1  0.41949324  0.16362186  0.99979145  1  0  -0.544752  0  2.886774  0  0  -0.490166  0  3.152869  0  0  -0.510818  0  3.16232  0  0  -0.399489  -0.476043  0  3.146201  0
N  N66  1  0.79630830  0.89442791  0.60838777  1  0  -0.668213  0  3.16113  0  0  -0.610014  0  3.386612  0  0  -0.631069  0  3.38841  0  0  -0.59924  -0.595147  0  3.385053  0
N  N67  1  0.09747690  0.89439325  0.10854461  1  0  -0.66693  0  3.160717  0  0  -0.609658  0  3.386343  0  0  -0.63069  0  3.388144  0  0  -0.599468  -0.594813  0  3.384788  0
N  N68  1  0.20368338  0.10557842  0.39161324  1  0  -0.668155  0  3.160925  0  0  -0.609974  0  3.386474  0  0  -0.63104  0  3.388276  0  0  -0.599232  -0.595108  0  3.384911  0
N  N69  1  0.90253376  0.10559560  0.89145819  1  0  -0.66677  0  3.160543  0  0  -0.609385  0  3.386262  0  0  -0.630417  0  3.388068  0  0  -0.599477  -0.594541  0  3.384704  0
N  N70  1  0.63722409  0.83789199  0.79338058  1  0  -0.412405  0  2.641518  0  0  -0.381213  0  2.871733  0  0  -0.393057  0  2.884014  0  0  -0.300394  -0.37329  0  2.863647  0
N  N71  1  0.19996749  0.83819336  0.29334423  1  0  -0.41327  0  2.644052  0  0  -0.382161  0  2.874535  0  0  -0.394032  0  2.886835  0  0  -0.300955  -0.374224  0  2.866443  0
N  N72  1  0.36277957  0.16210504  0.20661816  1  0  -0.412395  0  2.641421  0  0  -0.38118  0  2.871588  0  0  -0.393022  0  2.883864  0  0  -0.300347  -0.373259  0  2.863507  0
N  N73  1  0.80004557  0.16181880  0.70665532  1  0  -0.413291  0  2.644277  0  0  -0.382194  0  2.874764  0  0  -0.394063  0  2.887067  0  0  -0.300985  -0.37426  0  2.866676  0
