# generated using pymatgen
data_Co9H32C44(N9O10)2
_symmetry_space_group_name_H-M   'P 1'
_cell_length_a   10.96628710
_cell_length_b   10.96613067
_cell_length_c   32.05763470
_cell_angle_alpha   85.21351285
_cell_angle_beta   85.21682438
_cell_angle_gamma   81.64394919
_symmetry_Int_Tables_number   1
_chemical_formula_structural   Co9H32C44(N9O10)2
_chemical_formula_sum   'Co18 H64 C88 N36 O40'
_cell_volume   3791.00982090
_cell_formula_units_Z   2
loop_
 _symmetry_equiv_pos_site_id
 _symmetry_equiv_pos_as_xyz
  1  'x, y, z'
loop_
 _atom_site_type_symbol
 _atom_site_label
 _atom_site_symmetry_multiplicity
 _atom_site_fract_x
 _atom_site_fract_y
 _atom_site_fract_z
 _atom_site_occupancy
 _atom_site_pbe_bader_charge
 _atom_site_pbe_bader_spin_density
 _atom_site_pbe_cm5_charge
 _atom_site_pbe_ddec_charge
 _atom_site_pbe_ddec_spin_density
 _atom_site_pbe_ddec_sum_bond_order
 _atom_site_pbe_magmom
Co  Co0  1  0.93337384  0.06664151  0.74998577  1  1.324968  2.659307  0.689992  0.90172  2.892934  2.657637  2.642
Co  Co1  1  0.06658826  0.93340583  0.25001391  1  1.324638  2.659294  0.69011  0.901923  2.892718  2.65747  2.642
Co  Co2  1  0.10200113  0.91483221  0.58247077  1  1.323162  2.668807  0.693616  0.921583  2.908524  2.658448  2.652
Co  Co3  1  0.08515268  0.89798378  0.91752880  1  1.323389  2.66865  0.693374  0.921287  2.908308  2.658066  2.652
Co  Co4  1  0.89803809  0.08515689  0.41754272  1  1.323564  2.66871  0.693481  0.921414  2.908384  2.657567  2.652
Co  Co5  1  0.91484087  0.10198648  0.08245754  1  1.323233  2.6687  0.693537  0.921422  2.908434  2.658488  2.652
Co  Co6  1  0.00281740  0.84393863  0.49836819  1  1.250622  2.587764  0.666918  0.869096  2.780721  2.513145  2.557
Co  Co7  1  0.15603504  0.99716721  0.00164484  1  1.250644  2.587921  0.666942  0.869182  2.780902  2.512876  2.557
Co  Co8  1  0.99721797  0.15603371  0.50166056  1  1.25037  2.587931  0.667052  0.869224  2.780874  2.513157  2.557
Co  Co9  1  0.84395670  0.00280698  0.99833677  1  1.250342  2.587927  0.666978  0.869145  2.780929  2.512847  2.557
Co  Co10  1  0.86301482  0.96687470  0.66855974  1  1.206039  2.549032  0.667393  0.825788  2.717052  2.575121  2.5
Co  Co11  1  0.03321365  0.13697801  0.83141629  1  1.206072  2.549102  0.667294  0.82569  2.716989  2.574927  2.5
Co  Co12  1  0.13696848  0.03316579  0.33143922  1  1.205972  2.54913  0.667229  0.825636  2.717092  2.574767  2.5
Co  Co13  1  0.96675929  0.86304937  0.16857274  1  1.206073  2.549128  0.667223  0.825838  2.716974  2.574496  2.5
Co  Co14  1  0.17313766  0.01372470  0.66323300  1  1.207521  2.549373  0.667187  0.826845  2.719737  2.577615  2.502
Co  Co15  1  0.98624187  0.82689176  0.83675303  1  1.207898  2.549473  0.667001  0.826881  2.719818  2.576895  2.502
Co  Co16  1  0.82688915  0.98623331  0.33677707  1  1.207511  2.549471  0.667063  0.826877  2.719818  2.577171  2.502
Co  Co17  1  0.01376303  0.17309695  0.16323807  1  1.207807  2.549548  0.666972  0.827002  2.71989  2.576494  2.502
H  H18  1  0.35749587  0.12881223  0.83803528  1  0.075648  0.000645  0.110247  0.123032  0.000194  0.989172  0.0
H  H19  1  0.87118062  0.64252853  0.66193519  1  0.075116  0.000645  0.110338  0.123233  0.000194  0.98938  0.0
H  H20  1  0.64249921  0.87120634  0.16196272  1  0.075391  0.000645  0.110165  0.122948  0.000194  0.989101  0.0
H  H21  1  0.12883352  0.35753841  0.33805587  1  0.075101  0.000645  0.110285  0.123265  0.000194  0.989129  0.0
H  H22  1  0.57614988  0.11183313  0.80646768  1  0.09049  0.000358  0.100713  0.105694  9.6e-05  1.012159  0.0
H  H23  1  0.88818065  0.42387043  0.69350489  1  0.089268  0.000358  0.100649  0.105423  9.6e-05  1.012461  0.0
H  H24  1  0.42383880  0.88819461  0.19351995  1  0.089809  0.000358  0.100615  0.105509  9.6e-05  1.012391  0.0
H  H25  1  0.11184362  0.57619314  0.30648318  1  0.089649  0.000358  0.100686  0.105589  9.6e-05  1.012225  0.0
H  H26  1  0.46357085  0.03841554  0.68614577  1  0.13407  0.000898  0.109412  0.128773  0.000237  1.043183  0.0
H  H27  1  0.96163439  0.53645219  0.81382031  1  0.134603  0.000898  0.109211  0.128953  0.000237  1.043313  0.0
H  H28  1  0.53638050  0.96158490  0.31384934  1  0.13393  0.000898  0.109354  0.128761  0.000237  1.043126  0.0
H  H29  1  0.03842023  0.46359399  0.18616645  1  0.134216  0.000898  0.109265  0.128725  0.000237  1.043109  0.0
H  H30  1  0.68061036  0.84285893  0.49468974  1  0.109722  0.000603  0.108932  0.124214  0.000125  0.993425  0.0
H  H31  1  0.15717942  0.31932948  0.00529961  1  0.109691  0.000603  0.108985  0.124236  0.000124  0.993285  0.0
H  H32  1  0.31942209  0.15710556  0.50532247  1  0.109408  0.000603  0.108948  0.124078  0.000124  0.993419  0.0
H  H33  1  0.84285940  0.68063394  0.99467876  1  0.109583  0.000603  0.108917  0.1241  0.000124  0.993429  0.0
H  H34  1  0.46030553  0.87386949  0.52468333  1  0.056344  0.000303  0.098277  0.096947  9e-05  1.046005  0.0
H  H35  1  0.12612478  0.53964943  0.97531537  1  0.056924  0.000303  0.098223  0.096825  9e-05  1.04603  0.0
H  H36  1  0.53973327  0.12608488  0.47532743  1  0.056102  0.000303  0.098285  0.09711  9e-05  1.045907  0.0
H  H37  1  0.87389741  0.46031651  0.02466652  1  0.056115  0.000303  0.098339  0.097047  9e-05  1.046129  0.0
H  H38  1  0.57151410  0.94599607  0.64526531  1  0.110104  0.000855  0.109131  0.128183  0.000202  1.042686  0.0
H  H39  1  0.05392905  0.42848175  0.85473209  1  0.109417  0.000855  0.109055  0.127967  0.000202  1.04297  0.0
H  H40  1  0.42852243  0.05400257  0.35474143  1  0.109851  0.000855  0.109163  0.128231  0.000202  1.042722  0.0
H  H41  1  0.94604602  0.57149128  0.14525221  1  0.109784  0.000855  0.109034  0.128055  0.000203  1.042639  0.0
H  H42  1  0.17109758  0.55757949  0.63471734  1  0.082113  0.000358  0.104023  0.110396  9.4e-05  1.006702  0.0
H  H43  1  0.44237174  0.82891187  0.86530282  1  0.082057  0.000357  0.103962  0.11046  9.4e-05  1.006731  0.0
H  H44  1  0.82885006  0.44240795  0.36532848  1  0.082429  0.000358  0.103861  0.110331  9.4e-05  1.006964  0.0
H  H45  1  0.55762130  0.17109597  0.13467466  1  0.082231  0.000359  0.10396  0.110465  9.4e-05  1.006931  0.0
H  H46  1  0.05841758  0.44711959  0.51926313  1  0.121528  0.000928  0.109195  0.127926  0.000336  1.033133  0.0
H  H47  1  0.55290691  0.94160297  0.98074297  1  0.12129  0.000927  0.109191  0.12803  0.000336  1.032983  0.0
H  H48  1  0.94159479  0.55286447  0.48077156  1  0.120485  0.000927  0.10914  0.128231  0.000336  1.033431  0.0
H  H49  1  0.44708410  0.05838779  0.01923817  1  0.120672  0.000927  0.109099  0.127929  0.000336  1.03317  0.0
H  H50  1  0.18659052  0.34031699  0.66737392  1  0.071065  0.00071  0.111311  0.124287  0.000251  0.984844  0.0
H  H51  1  0.65960293  0.81339911  0.83263187  1  0.070914  0.00071  0.111458  0.124373  0.000252  0.984698  0.0
H  H52  1  0.81337923  0.65966253  0.33266650  1  0.072161  0.000709  0.111465  0.124244  0.000251  0.985124  0.0
H  H53  1  0.34038439  0.18659402  0.16734464  1  0.071945  0.00071  0.111512  0.124221  0.000251  0.984865  0.0
H  H54  1  0.18534914  0.95640990  0.50842104  1  0.581189  0.004233  0.303087  0.381301  0.002612  0.924687  0.005
H  H55  1  0.04354445  0.81464612  0.99157359  1  0.581221  0.004228  0.303064  0.381366  0.00261  0.924464  0.005
H  H56  1  0.81464226  0.04361105  0.49157233  1  0.581091  0.004232  0.30308  0.381315  0.002612  0.924592  0.005
H  H57  1  0.95644179  0.18533074  0.00841527  1  0.581127  0.004233  0.303047  0.381269  0.002611  0.924589  0.005
H  H58  1  0.93807828  0.17351163  0.67930385  1  0.613639  0.004155  0.303267  0.385797  0.003055  0.911015  0.005
H  H59  1  0.82656910  0.06195370  0.82069210  1  0.614868  0.004139  0.303435  0.386128  0.003053  0.911043  0.005
H  H60  1  0.06191400  0.82650644  0.32068738  1  0.613782  0.00415  0.303255  0.385709  0.003054  0.911298  0.005
H  H61  1  0.17340025  0.93807794  0.17931687  1  0.615353  0.004129  0.303496  0.386388  0.003048  0.91072  0.005
H  H62  1  0.10073346  0.80570753  0.65345480  1  0.590275  0.004763  0.306718  0.391025  0.003242  0.902319  0.006
H  H63  1  0.19431992  0.89924982  0.84655024  1  0.590274  0.004764  0.306658  0.390869  0.003242  0.902555  0.006
H  H64  1  0.89929656  0.19428842  0.34655158  1  0.589799  0.004764  0.306533  0.390832  0.003242  0.902461  0.006
H  H65  1  0.80568122  0.10073396  0.15344017  1  0.589804  0.00477  0.306557  0.390733  0.003245  0.90271  0.006
H  H66  1  0.16296018  0.77252957  0.42773819  1  0.600513  0.00032  0.327884  0.348717  4.2e-05  0.89363  0.0
H  H67  1  0.22740053  0.83703664  0.07226768  1  0.59996  0.00032  0.327944  0.348643  4.2e-05  0.893557  0.0
H  H68  1  0.83704160  0.22758143  0.57228315  1  0.600008  0.000321  0.327866  0.348493  4.2e-05  0.893564  0.0
H  H69  1  0.77252681  0.16297196  0.92771635  1  0.599454  0.000321  0.32789  0.348406  4.2e-05  0.893794  0.0
H  H70  1  0.37848961  0.75005435  0.43826580  1  0.047667  0.002265  0.096054  0.090715  0.000925  0.985657  0.001
H  H71  1  0.24989159  0.62152213  0.06172961  1  0.04784  0.002269  0.095996  0.090564  0.000927  0.985555  0.001
H  H72  1  0.62149137  0.24993446  0.56177527  1  0.046986  0.002266  0.095986  0.090575  0.000926  0.985481  0.001
H  H73  1  0.75008580  0.37849083  0.93825503  1  0.047171  0.002269  0.096022  0.090707  0.000926  0.985717  0.001
H  H74  1  0.32850711  0.80210911  0.48909816  1  0.039932  0.000271  0.103861  0.107106  -3.7e-05  1.004089  0.0
H  H75  1  0.19785270  0.67151779  0.01089450  1  0.04005  0.000271  0.103797  0.106932  -3.7e-05  1.003946  0.0
H  H76  1  0.67147519  0.19783285  0.51095109  1  0.040646  0.000271  0.103829  0.106888  -3.7e-05  1.0042  0.0
H  H77  1  0.80214201  0.32847333  0.98908622  1  0.040411  0.000271  0.103821  0.107032  -3.7e-05  1.004236  0.0
H  H78  1  0.29251757  0.65755829  0.47605393  1  0.07502  -6e-06  0.096909  0.09568  -0.000211  0.993966  0.0
H  H79  1  0.34239915  0.70750145  0.02394755  1  0.073547  -6e-06  0.096956  0.095708  -0.000211  0.993814  0.0
H  H80  1  0.70741243  0.34242899  0.52397119  1  0.081526  -9e-06  0.096831  0.095666  -0.000211  0.993885  0.0
H  H81  1  0.65757833  0.29251882  0.97603906  1  0.079107  -8e-06  0.096918  0.095725  -0.000211  0.994047  0.0
C  C82  1  0.31940574  0.06554393  0.73643475  1  0.325501  0.011841  0.094305  0.13378  0.006441  4.038646  0.011
C  C83  1  0.93449276  0.68061701  0.76352976  1  0.324253  0.011841  0.094121  0.133482  0.006439  4.039017  0.011
C  C84  1  0.68056595  0.93445165  0.26356834  1  0.325425  0.011841  0.094407  0.13396  0.006439  4.038415  0.011
C  C85  1  0.06553231  0.31943546  0.23645797  1  0.324252  0.011842  0.094272  0.13346  0.006437  4.039377  0.011
C  C86  1  0.28965643  0.09290465  0.77887696  1  0.394029  0.006436  0.097152  0.132425  0.003889  4.062622  0.007
C  C87  1  0.90711180  0.71038509  0.72109048  1  0.395073  0.006435  0.097021  0.132148  0.003892  4.062579  0.007
C  C88  1  0.71032831  0.90709902  0.22112521  1  0.393482  0.006437  0.097131  0.132405  0.003888  4.062867  0.007
C  C89  1  0.09289667  0.28967263  0.27889946  1  0.395299  0.006436  0.097202  0.132681  0.003889  4.062538  0.007
C  C90  1  0.38092750  0.11011610  0.80525419  1  0.041669  0.001955  -0.090508  -0.159518  0.00074  4.004425  0.001
C  C91  1  0.88990580  0.61910537  0.69471592  1  0.041183  0.00195  -0.090866  -0.160013  0.000738  4.004764  0.001
C  C92  1  0.61906474  0.88989650  0.19474594  1  0.042222  0.001953  -0.090383  -0.159413  0.00074  4.004574  0.001
C  C93  1  0.11011553  0.38094400  0.30527326  1  0.041997  0.001951  -0.090618  -0.159981  0.000738  4.004648  0.001
C  C94  1  0.50100040  0.10054926  0.78764724  1  -0.042356  -0.002487  -0.08888  -0.096121  -0.00334  3.999509  -0.001
C  C95  1  0.89947720  0.49902481  0.71232327  1  -0.04137  -0.002488  -0.088574  -0.095251  -0.00334  4.000133  -0.001
C  C96  1  0.49898167  0.89946578  0.21234625  1  -0.042185  -0.002486  -0.088821  -0.095906  -0.003339  3.999814  -0.001
C  C97  1  0.10054790  0.50103039  0.28766439  1  -0.041731  -0.002487  -0.088965  -0.096143  -0.00334  3.999973  -0.001
C  C98  1  0.53167589  0.07529491  0.74488432  1  -0.037144  0.010433  -0.022216  -0.039146  0.005206  3.972517  0.009
C  C99  1  0.92475260  0.46834020  0.75508639  1  -0.037049  0.010427  -0.022172  -0.039622  0.005202  3.973757  0.009
C  C100  1  0.46829784  0.92471955  0.25511006  1  -0.032359  0.010424  -0.022085  -0.039214  0.005206  3.972332  0.009
C  C101  1  0.07527517  0.53170545  0.24490147  1  -0.032676  0.010423  -0.022026  -0.038905  0.005205  3.972556  0.009
C  C102  1  0.44124729  0.05786140  0.71878300  1  0.032989  -0.003913  -0.078787  -0.155821  -0.005567  3.915867  -0.002
C  C103  1  0.94218116  0.55876911  0.78118371  1  0.033647  -0.003918  -0.078578  -0.155893  -0.005569  3.916594  -0.002
C  C104  1  0.55872814  0.94213908  0.28121485  1  0.028522  -0.003904  -0.078817  -0.155876  -0.005566  3.916186  -0.002
C  C105  1  0.05785583  0.44127424  0.21880301  1  0.02779  -0.003908  -0.078695  -0.155631  -0.005568  3.916126  -0.002
C  C106  1  0.66467660  0.06453534  0.72862975  1  1.555112  -0.001046  0.215726  0.593044  -0.002404  4.155973  -0.001
C  C107  1  0.93552747  0.33533572  0.77133826  1  1.556293  -0.001052  0.21542  0.592584  -0.002408  4.155408  -0.001
C  C108  1  0.33528822  0.93550884  0.27136402  1  1.55563  -0.001051  0.215685  0.592903  -0.002406  4.155863  -0.001
C  C109  1  0.06448281  0.66471988  0.22864732  1  1.55602  -0.001052  0.215615  0.592535  -0.002408  4.155761  -0.001
C  C110  1  0.71726569  0.90968949  0.59603908  1  0.38632  0.012007  0.095244  0.134989  0.0067  4.040407  0.011
C  C111  1  0.09030708  0.28272396  0.90395445  1  0.386172  0.012012  0.095165  0.134931  0.006704  4.040905  0.011
C  C112  1  0.28277623  0.09029461  0.40397011  1  0.386721  0.012  0.09496  0.134707  0.006696  4.040018  0.011
C  C113  1  0.90969500  0.71726331  0.09602898  1  0.386578  0.012008  0.094936  0.134426  0.006702  4.040727  0.011
C  C114  1  0.74792448  0.87828700  0.55402997  1  0.341152  0.006136  0.096251  0.131951  0.003499  4.057528  0.006
C  C115  1  0.12172717  0.25205151  0.94595904  1  0.339563  0.006136  0.096212  0.131571  0.003498  4.05795  0.006
C  C116  1  0.25212388  0.12169430  0.44597817  1  0.340582  0.00614  0.096129  0.13165  0.003501  4.05793  0.006
C  C117  1  0.87828861  0.74792087  0.05401974  1  0.341353  0.006134  0.096502  0.132212  0.003498  4.057147  0.006
C  C118  1  0.65659893  0.86446126  0.52717895  1  0.074022  0.002203  -0.092603  -0.163507  0.000835  3.996004  0.002
C  C119  1  0.13555151  0.34336885  0.97281084  1  0.073511  0.002203  -0.092739  -0.163661  0.000835  3.995738  0.002
C  C120  1  0.34344184  0.13550289  0.47283272  1  -0.070817  0.002254  -0.092555  -0.163057  0.000832  3.996245  0.002
C  C121  1  0.86447435  0.65659469  0.02716696  1  0.066604  0.002206  -0.092595  -0.163355  0.000834  3.996169  0.002
C  C122  1  0.53557782  0.88144604  0.54393061  1  -0.075011  -0.002413  -0.090094  -0.096274  -0.003242  4.001268  -0.001
C  C123  1  0.11854349  0.46439635  0.95606396  1  -0.102617  -0.0024  -0.089941  -0.095937  -0.003241  4.000937  -0.001
C  C124  1  0.46445741  0.11851985  0.45608055  1  0.069771  -0.002465  -0.09007  -0.096552  -0.003237  4.001056  -0.001
C  C125  1  0.88147223  0.53557146  0.04391402  1  -0.06869  -0.002418  -0.090076  -0.096296  -0.003244  4.001454  -0.001
C  C126  1  0.50403874  0.90981298  0.58635086  1  -0.012229  0.010741  -0.023451  -0.04053  0.005448  3.976957  0.009
C  C127  1  0.09015010  0.49593235  0.91364493  1  0.016072  0.01073  -0.023353  -0.0404  0.005449  3.976826  0.009
C  C128  1  0.49598184  0.09016701  0.41365595  1  -0.01207  0.010733  -0.023451  -0.040531  0.005444  3.976646  0.009
C  C129  1  0.90985183  0.50404303  0.08633541  1  -0.011617  0.010749  -0.023593  -0.040629  0.005452  3.976214  0.009
C  C130  1  0.59453867  0.92404212  0.61289777  1  -0.008294  -0.004127  -0.078619  -0.15351  -0.00575  3.912472  -0.002
C  C131  1  0.07591790  0.40544622  0.88709594  1  -0.007483  -0.004129  -0.078652  -0.153405  -0.005751  3.912731  -0.002
C  C132  1  0.40548850  0.07594786  0.38710730  1  -0.008048  -0.004124  -0.078468  -0.153371  -0.005745  3.912646  -0.002
C  C133  1  0.92407305  0.59453998  0.11288690  1  -0.007738  -0.004131  -0.078546  -0.153324  -0.005754  3.912255  -0.002
C  C134  1  0.37056227  0.92541516  0.60199687  1  1.547371  -0.001948  0.215407  0.591526  -0.003403  4.159146  -0.001
C  C135  1  0.07453566  0.62942690  0.89800324  1  1.547533  -0.001948  0.215249  0.59114  -0.003403  4.159893  -0.001
C  C136  1  0.62946569  0.07456190  0.39801293  1  1.546323  -0.00194  0.215387  0.591719  -0.003403  4.158716  -0.001
C  C137  1  0.92547166  0.37053305  0.10198176  1  1.547502  -0.001943  0.215323  0.591546  -0.003407  4.158956  -0.001
C  C138  1  0.13118599  0.27278443  0.61073654  1  0.370034  0.006623  0.094092  0.130461  0.003791  4.067581  0.007
C  C139  1  0.72718202  0.86882116  0.88926377  1  0.371727  0.006615  0.093998  0.130241  0.003788  4.067339  0.007
C  C140  1  0.86881520  0.72719399  0.38929676  1  0.369702  0.006615  0.093893  0.130016  0.003788  4.067052  0.007
C  C141  1  0.27280514  0.13115736  0.11071535  1  0.37077  0.006615  0.094059  0.130166  0.003788  4.067068  0.007
C  C142  1  0.09337269  0.30288676  0.56934471  1  0.397913  0.007787  0.088823  0.119731  0.004183  4.057682  0.008
C  C143  1  0.69709422  0.90663840  0.93065628  1  0.397452  0.007779  0.088981  0.11977  0.004178  4.057782  0.008
C  C144  1  0.90664051  0.69708803  0.43069272  1  0.395723  0.007786  0.089207  0.120086  0.004178  4.056945  0.008
C  C145  1  0.30289668  0.09334414  0.06932293  1  0.396407  0.007775  0.089068  0.12019  0.004175  4.057169  0.008
C  C146  1  0.15075890  0.48299112  0.61721770  1  0.01481  -0.002098  -0.089235  -0.096494  -0.002861  4.000114  -0.001
C  C147  1  0.51696472  0.84925092  0.88279598  1  0.01402  -0.002097  -0.089371  -0.096876  -0.00286  4.000585  -0.001
C  C148  1  0.84920353  0.51699408  0.38282651  1  0.001058  -0.002096  -0.089391  -0.096904  -0.002861  4.00051  -0.001
C  C149  1  0.48302268  0.15074953  0.11718063  1  0.000779  -0.002096  -0.089424  -0.097078  -0.002859  4.000641  -0.001
C  C150  1  0.11487252  0.51393165  0.57550729  1  -0.000517  0.008021  -0.024357  -0.04282  0.003813  3.983347  0.007
C  C151  1  0.48605006  0.88514450  0.92450822  1  0.000844  0.008014  -0.024232  -0.042426  0.003811  3.983514  0.007
C  C152  1  0.88510852  0.48606174  0.42453708  1  -0.028305  0.008089  -0.024265  -0.042463  0.003813  3.983148  0.007
C  C153  1  0.51394192  0.11485159  0.07546807  1  -0.028239  0.008086  -0.024223  -0.042687  0.00381  3.983447  0.007
C  C154  1  0.08592653  0.42422303  0.55108997  1  -0.016427  -0.002499  -0.08276  -0.161287  -0.003884  3.931032  -0.001
C  C155  1  0.57576919  0.91408772  0.94891904  1  -0.016789  -0.002499  -0.082793  -0.161521  -0.003883  3.931383  -0.001
C  C156  1  0.91407190  0.57575400  0.44895188  1  -0.017815  -0.002495  -0.082618  -0.161743  -0.003883  3.931512  -0.001
C  C157  1  0.42422275  0.08590472  0.05105985  1  -0.017328  -0.002496  -0.082629  -0.161236  -0.003884  3.931287  -0.001
C  C158  1  0.15980413  0.36353437  0.63538683  1  -0.017904  0.000386  -0.091088  -0.159966  -0.000326  4.003741  0.001
C  C159  1  0.63640415  0.84019860  0.86462005  1  -0.017698  0.000387  -0.091202  -0.159988  -0.000324  4.003925  0.001
C  C160  1  0.84017021  0.63644170  0.36465169  1  -0.003279  0.000384  -0.091218  -0.159646  -0.000325  4.004353  0.001
C  C161  1  0.36357943  0.15979144  0.13535727  1  -0.004467  0.000383  -0.091267  -0.159573  -0.000326  4.003736  0.001
C  C162  1  0.10616661  0.64639801  0.55854268  1  1.530397  -0.001589  0.213599  0.585454  -0.003223  4.167217  -0.001
C  C163  1  0.35360039  0.89384012  0.94147565  1  1.530031  -0.001581  0.21371  0.585227  -0.003221  4.167599  -0.001
C  C164  1  0.89383754  0.35359372  0.44149827  1  1.561335  -0.001656  0.214024  0.585606  -0.003222  4.166715  -0.001
C  C165  1  0.64640269  0.10615340  0.05850538  1  1.5615  -0.001656  0.213985  0.585443  -0.00322  4.166775  -0.001
C  C166  1  0.30397693  0.75194264  0.46352344  1  0.378281  0.001552  -0.143902  -0.116028  0.000694  3.919861  0.001
C  C167  1  0.24800877  0.69604918  0.03647347  1  0.379627  0.001555  -0.14373  -0.115489  0.000695  3.919469  0.001
C  C168  1  0.69599844  0.24804243  0.53651509  1  0.372267  0.001554  -0.143817  -0.115688  0.000694  3.919286  0.001
C  C169  1  0.75196673  0.30396131  0.96350943  1  0.374527  0.001556  -0.143816  -0.115948  0.000695  3.920077  0.001
N  N170  1  0.21042089  0.05097880  0.72008896  1  -0.685983  0.051258  -0.244707  -0.248528  0.026715  3.535568  0.03
N  N171  1  0.94902114  0.78960348  0.77988127  1  -0.693043  0.051288  -0.24467  -0.248589  0.026704  3.535554  0.03
N  N172  1  0.78955446  0.94901348  0.27991568  1  -0.683919  0.051234  -0.244588  -0.248433  0.026703  3.535209  0.03
N  N173  1  0.05098257  0.21044215  0.22011102  1  -0.690915  0.05125  -0.244583  -0.248533  0.026698  3.535833  0.03
N  N174  1  0.12136810  0.06862792  0.75098656  1  -0.183947  0.049376  -0.115602  -0.036061  0.026092  3.574512  0.045
N  N175  1  0.93135053  0.87866210  0.74898621  1  -0.176633  0.049335  -0.115443  -0.035879  0.026095  3.574864  0.045
N  N176  1  0.87860463  0.93137756  0.24901527  1  -0.184918  0.04937  -0.115777  -0.036305  0.026094  3.574785  0.045
N  N177  1  0.06862270  0.12138813  0.25101057  1  -0.177791  0.049313  -0.115469  -0.035742  0.026088  3.574579  0.045
N  N178  1  0.16504590  0.09513726  0.78613114  1  -0.703186  0.073671  -0.244256  -0.227342  0.037706  3.574327  0.056
N  N179  1  0.90484667  0.83500337  0.71383890  1  -0.703891  0.073673  -0.244089  -0.226932  0.037692  3.573628  0.056
N  N180  1  0.83493247  0.90487652  0.21386904  1  -0.70357  0.073642  -0.244209  -0.227359  0.037694  3.57419  0.056
N  N181  1  0.09513131  0.16505713  0.28615589  1  -0.703607  0.07366  -0.244273  -0.227592  0.037693  3.573906  0.056
N  N182  1  0.82653736  0.92089580  0.61274604  1  -0.700574  0.053311  -0.247196  -0.257608  0.027957  3.557131  0.031
N  N183  1  0.07911237  0.17344300  0.88724961  1  -0.700395  0.053309  -0.247103  -0.257317  0.027947  3.556753  0.031
N  N184  1  0.17349734  0.07910313  0.38726637  1  -0.699224  0.053295  -0.246913  -0.257265  0.027946  3.556077  0.031
N  N185  1  0.92087670  0.82653892  0.11273715  1  -0.700877  0.053293  -0.247029  -0.257341  0.027934  3.556335  0.031
N  N186  1  0.91637381  0.89758243  0.58243566  1  -0.154868  0.05199  -0.11356  -0.028003  0.027541  3.57246  0.048
N  N187  1  0.10242994  0.08358610  0.91755562  1  -0.15486  0.052004  -0.113677  -0.028522  0.027549  3.573419  0.048
N  N188  1  0.08365992  0.10241298  0.41757593  1  -0.155589  0.051973  -0.113619  -0.027686  0.027531  3.572265  0.048
N  N189  1  0.89756460  0.91638949  0.08242680  1  -0.154271  0.051996  -0.113579  -0.028045  0.027548  3.57261  0.048
N  N190  1  0.87317669  0.87044533  0.54734431  1  -0.676459  0.071416  -0.237466  -0.231738  0.037355  3.54363  0.059
N  N191  1  0.12956991  0.12679556  0.95264263  1  -0.675404  0.071408  -0.237136  -0.230944  0.037353  3.543753  0.059
N  N192  1  0.12687078  0.12953885  0.45266471  1  -0.676129  0.07139  -0.237361  -0.232006  0.037343  3.543602  0.059
N  N193  1  0.87043761  0.87318264  0.04733715  1  -0.676277  0.071413  -0.237422  -0.231715  0.037352  3.543331  0.059
N  N194  1  0.12955221  0.14899053  0.61889177  1  -0.711955  0.062076  -0.247042  -0.235546  0.031976  3.57698  0.047
N  N195  1  0.85096864  0.87046668  0.88110084  1  -0.713137  0.062042  -0.246868  -0.235023  0.031948  3.576  0.047
N  N196  1  0.87047385  0.85097954  0.38113200  1  -0.712989  0.062034  -0.246918  -0.235287  0.031955  3.576343  0.047
N  N197  1  0.14901483  0.12951241  0.11888180  1  -0.712412  0.062026  -0.24689  -0.235375  0.031945  3.576813  0.047
N  N198  1  0.09159976  0.10612985  0.58522620  1  -0.166405  0.043585  -0.116274  -0.041487  0.022998  3.556422  0.042
N  N199  1  0.89384240  0.90842104  0.91476416  1  -0.166024  0.043569  -0.116357  -0.041983  0.02299  3.55671  0.042
N  N200  1  0.90844389  0.89384030  0.41479363  1  -0.168136  0.043601  -0.116193  -0.041443  0.022994  3.557179  0.042
N  N201  1  0.10613921  0.09155742  0.08521918  1  -0.166732  0.043575  -0.116239  -0.041474  0.02299  3.557181  0.042
N  N202  1  0.06947945  0.19499525  0.55454399  1  -0.705021  0.050536  -0.241725  -0.255696  0.027353  3.526704  0.036
N  N203  1  0.80499012  0.93053948  0.94544872  1  -0.704883  0.050525  -0.241682  -0.255481  0.027349  3.527031  0.036
N  N204  1  0.93055505  0.80498362  0.44548054  1  -0.702512  0.050515  -0.241966  -0.256051  0.027359  3.528454  0.036
N  N205  1  0.19499615  0.06944193  0.05453345  1  -0.705183  0.050528  -0.241931  -0.256128  0.027353  3.527761  0.036
O  O206  1  0.96190597  0.08531541  0.68571654  1  -1.179819  0.233476  -0.554304  -0.83157  0.12366  2.359272  0.192
O  O207  1  0.91474937  0.03809486  0.81425721  1  -1.181339  0.233452  -0.554397  -0.831889  0.123629  2.359573  0.192
O  O208  1  0.03806325  0.91470708  0.31428647  1  -1.179892  0.233432  -0.554208  -0.831473  0.123636  2.359532  0.192
O  O209  1  0.08521548  0.96195205  0.18573617  1  -1.181813  0.233432  -0.554489  -0.832409  0.123626  2.359403  0.192
O  O210  1  0.07568201  0.89335912  0.64636893  1  -1.156266  0.233183  -0.553516  -0.835371  0.123457  2.354549  0.191
O  O211  1  0.10666281  0.92431329  0.85361800  1  -1.156502  0.233139  -0.553419  -0.835178  0.123438  2.35444  0.191
O  O212  1  0.92434883  0.10663027  0.35362764  1  -1.155913  0.233117  -0.553305  -0.835114  0.123423  2.354164  0.191
O  O213  1  0.89333561  0.07567729  0.14636699  1  -1.155665  0.233098  -0.553301  -0.834924  0.123407  2.354189  0.191
O  O214  1  0.10072659  0.95677830  0.52026373  1  -1.136932  0.244495  -0.553826  -0.831649  0.130766  2.39973  0.205
O  O215  1  0.04320233  0.89928250  0.97974389  1  -1.136995  0.244508  -0.553793  -0.831708  0.130768  2.399385  0.205
O  O216  1  0.89929629  0.04323618  0.47976072  1  -1.136926  0.244503  -0.553895  -0.831758  0.13077  2.399461  0.205
O  O217  1  0.95678486  0.10069605  0.02024583  1  -1.136892  0.244491  -0.553861  -0.831693  0.130773  2.399262  0.205
O  O218  1  0.69207116  0.03375333  0.69077349  1  -1.156541  0.088287  -0.321876  -0.559035  0.044908  2.353406  0.071
O  O219  1  0.96635237  0.30792431  0.80919215  1  -1.156784  0.088276  -0.321761  -0.558801  0.044911  2.352547  0.071
O  O220  1  0.30790572  0.96629361  0.30922017  1  -1.156932  0.088237  -0.321896  -0.558814  0.044893  2.35307  0.071
O  O221  1  0.03365870  0.69211836  0.19079378  1  -1.156738  0.088262  -0.321983  -0.558918  0.044907  2.353045  0.071
O  O222  1  0.74157048  0.08565105  0.75370917  1  -1.168337  0.07191  -0.309544  -0.550386  0.036795  2.371757  0.064
O  O223  1  0.91438457  0.25844205  0.74626421  1  -1.169132  0.071865  -0.30944  -0.549987  0.036766  2.372106  0.064
O  O224  1  0.25838434  0.91440836  0.24628570  1  -1.168239  0.071909  -0.309644  -0.550504  0.036794  2.372414  0.064
O  O225  1  0.08560261  0.74161613  0.25372414  1  -1.168982  0.071893  -0.309434  -0.550018  0.036776  2.372472  0.064
O  O226  1  0.34399570  0.95174227  0.64034016  1  -1.153432  0.088255  -0.321467  -0.557941  0.044797  2.362008  0.071
O  O227  1  0.04819870  0.65601261  0.85965948  1  -1.153226  0.088195  -0.321277  -0.557878  0.044774  2.362316  0.071
O  O228  1  0.65603864  0.04822741  0.35966811  1  -1.153404  0.08825  -0.321493  -0.558103  0.044799  2.36171  0.071
O  O229  1  0.95181252  0.34396323  0.14032713  1  -1.153822  0.088219  -0.321286  -0.557921  0.044775  2.361994  0.071
O  O230  1  0.29261214  0.91170573  0.57620006  1  -1.162474  0.070004  -0.310223  -0.553183  0.036125  2.3747  0.062
O  O231  1  0.08826477  0.70735241  0.92380425  1  -1.163011  0.069955  -0.310287  -0.552936  0.036092  2.3748  0.062
O  O232  1  0.70740665  0.08827912  0.42381133  1  -1.161926  0.069945  -0.310228  -0.553297  0.036095  2.37457  0.062
O  O233  1  0.91174615  0.29259785  0.07618404  1  -1.162442  0.069954  -0.310231  -0.553246  0.036101  2.374726  0.062
O  O234  1  0.06994991  0.67296879  0.52135904  1  -1.154585  0.089275  -0.318488  -0.564085  0.045897  2.372516  0.074
O  O235  1  0.32702074  0.93005727  0.97865893  1  -1.154881  0.089279  -0.318615  -0.563932  0.0459  2.372751  0.074
O  O236  1  0.93005586  0.32700256  0.47868276  1  -1.155215  0.089279  -0.318688  -0.563871  0.0459  2.372488  0.074
O  O237  1  0.67298484  0.06991300  0.02132457  1  -1.155301  0.089307  -0.318599  -0.563642  0.045912  2.372512  0.074
O  O238  1  0.13561741  0.72295877  0.58226818  1  -1.161372  0.070796  -0.309955  -0.551342  0.036705  2.359557  0.062
O  O239  1  0.27703532  0.86437997  0.91775259  1  -1.161342  0.070778  -0.309987  -0.551426  0.036695  2.359325  0.062
O  O240  1  0.86442286  0.27703574  0.41776571  1  -1.161129  0.070804  -0.310227  -0.551801  0.036706  2.359291  0.062
O  O241  1  0.72297698  0.13561215  0.08222447  1  -1.161305  0.070786  -0.31032  -0.551836  0.036693  2.359204  0.062
O  O242  1  0.19038467  0.81831627  0.44906861  1  -1.110417  0.032913  -0.392144  -0.43961  0.016344  2.404117  0.027
O  O243  1  0.18163991  0.80963780  0.05092529  1  -1.110078  0.032945  -0.392241  -0.439741  0.016359  2.404613  0.027
O  O244  1  0.80961921  0.18173224  0.55096976  1  -1.110364  0.032889  -0.392051  -0.439388  0.016333  2.403234  0.027
O  O245  1  0.81831421  0.19036583  0.94905312  1  -1.109712  0.032929  -0.392148  -0.439309  0.01635  2.404174  0.027
