# generated using pymatgen
data_Zn4C24O13F12
_symmetry_space_group_name_H-M   'P 1'
_cell_length_a   18.38599058
_cell_length_b   18.40833498
_cell_length_c   18.10927449
_cell_angle_alpha   119.92657534
_cell_angle_beta   118.75427442
_cell_angle_gamma   90.15154714
_symmetry_Int_Tables_number   1
_chemical_formula_structural   Zn4C24O13F12
_chemical_formula_sum   'Zn8 C48 O26 F24'
_cell_volume   4413.09403218
_cell_formula_units_Z   2
loop_
 _symmetry_equiv_pos_site_id
 _symmetry_equiv_pos_as_xyz
  1  'x, y, z'
loop_
 _atom_site_type_symbol
 _atom_site_label
 _atom_site_symmetry_multiplicity
 _atom_site_fract_x
 _atom_site_fract_y
 _atom_site_fract_z
 _atom_site_occupancy
 _atom_site_pbe_bader_charge
 _atom_site_pbe_bader_spin_density
 _atom_site_pbe_cm5_charge
 _atom_site_pbe_ddec_charge
 _atom_site_pbe_ddec_spin_density
 _atom_site_pbe_ddec_sum_bond_order
 _atom_site_pbe_magmom
Zn  Zn0  1  0.06416777  0.96292690  0.10383528  1  1.31993  0  0.683472  0.975217  0  2.329795  0
Zn  Zn1  1  0.05728010  0.95175899  0.91623878  1  1.324115  0  0.683889  0.97663  0  2.319522  0
Zn  Zn2  1  0.06047827  0.13203052  0.09407144  1  1.320932  0  0.682941  0.972327  0  2.345602  0
Zn  Zn3  1  0.88989728  0.96149920  0.92998150  1  1.318353  0  0.682277  0.969404  0  2.359622  0
Zn  Zn4  1  0.47768118  0.54842710  0.92565561  1  1.317227  0  0.683434  0.974656  0  2.336126  0
Zn  Zn5  1  0.47137342  0.54237077  0.09856209  1  1.320943  0  0.684256  0.978211  0  2.318798  0
Zn  Zn6  1  0.64602272  0.54467911  0.10000161  1  1.319393  0  0.682594  0.970612  0  2.355015  0
Zn  Zn7  1  0.47679478  0.37200818  0.91957612  1  1.314738  0  0.682714  0.972398  0  2.347059  0
C  C8  1  0.15610348  0.86373252  0.01114826  1  1.612666  0  0.239912  0.65436  0  4.149826  0
C  C9  1  0.21467748  0.80680660  0.01270453  1  0.14102  0  -0.021238  -0.20428  0  4.001062  0
C  C10  1  0.29870866  0.83629383  0.03839020  1  0.571052  0  0.098528  0.165775  0  4.079753  0
C  C11  1  0.35287825  0.78346754  0.04009047  1  0.535484  0  0.099498  0.16873  0  4.076252  0
C  C12  1  0.32455438  0.69953236  0.01610656  1  0.086989  0  -0.022654  -0.208563  0  3.998536  0
C  C13  1  0.38207219  0.64166602  0.01571081  1  1.662169  0  0.238782  0.654375  0  4.146046  0
C  C14  1  0.24047801  0.67020849  0.99062429  1  0.558974  0  0.099964  0.169186  0  4.077984  0
C  C15  1  0.18637295  0.72307344  0.98890904  1  0.528277  0  0.098343  0.165369  0  4.080161  0
C  C16  1  0.15848454  0.14607692  0.28748677  1  1.628025  0  0.240116  0.655313  0  4.150507  0
C  C17  1  0.21805020  0.20554614  0.40241787  1  0.09037  0  -0.021477  -0.204971  0  4.004505  0
C  C18  1  0.19014002  0.26498880  0.46082828  1  0.590447  0  0.098995  0.165612  0  4.082001  0
C  C19  1  0.24499404  0.31906671  0.56752642  1  0.556496  0  0.099592  0.16976  0  4.077339  0
C  C20  1  0.32930409  0.31514820  0.61878612  1  0.05331  0  -0.021737  -0.20924  0  4.000339  0
C  C21  1  0.38698487  0.37104884  0.73387012  1  1.661449  0  0.239656  0.655801  0  4.146544  0
C  C22  1  0.35743478  0.25613451  0.56020897  1  0.533943  0  0.099547  0.169032  0  4.079747  0
C  C23  1  0.30257026  0.20213416  0.45356691  1  0.600009  0  0.099026  0.166672  0  4.082747  0
C  C24  1  0.88695815  0.87038415  0.02441941  1  1.627944  0  0.240238  0.656023  0  4.151487  0
C  C25  1  0.83007086  0.81102037  0.02376491  1  0.12304  0  -0.021454  -0.206882  0  4.004268  0
C  C26  1  0.77595747  0.72650216  0.93509399  1  0.5515  0  0.098626  0.166781  0  4.081572  0
C  C27  1  0.72076181  0.67171538  0.93214788  1  0.575622  0  0.099119  0.167955  0  4.081076  0
C  C28  1  0.71823409  0.69989609  0.01795567  1  0.126271  0  -0.021926  -0.208232  0  4.00517  0
C  C29  1  0.65879055  0.64115482  0.01523529  1  1.629379  0  0.239756  0.655642  0  4.151349  0
C  C30  1  0.77262818  0.78425459  0.10676334  1  0.554222  0  0.099476  0.16866  0  4.081756  0
C  C31  1  0.82784770  0.83907495  0.10967107  1  0.517831  0  0.09939  0.168113  0  4.081839  0
C  C32  1  0.15149440  0.12924006  0.99593011  1  1.623957  0  0.24005  0.656132  0  4.149998  0
C  C33  1  0.21124472  0.18499854  0.99576606  1  0.119448  0  -0.021703  -0.206171  0  4.004264  0
C  C34  1  0.29532550  0.23883190  0.08319805  1  0.546152  0  0.098502  0.166919  0  4.081621  0
C  C35  1  0.34970877  0.29428647  0.08597524  1  0.553686  0  0.09886  0.166827  0  4.082624  0
C  C36  1  0.32159366  0.29741671  0.00122386  1  0.081684  0  -0.022099  -0.207139  0  4.001436  0
C  C37  1  0.37950201  0.35812867  0.00432001  1  1.627573  0  0.240735  0.658629  0  4.14558  0
C  C38  1  0.23792409  0.24271737  0.91330732  1  0.542383  0  0.098709  0.16621  0  4.080302  0
C  C39  1  0.18351513  0.18725461  0.91059569  1  0.591032  0  0.099126  0.167823  0  4.080994  0
C  C40  1  0.87613419  0.85951230  0.73468939  1  1.624938  0  0.239702  0.655427  0  4.148475  0
C  C41  1  0.81631824  0.80107605  0.61971328  1  0.107905  0  -0.021248  -0.207387  0  4.005621  0
C  C42  1  0.76092099  0.83292062  0.56581082  1  0.612645  0  0.098744  0.167826  0  4.078929  0
C  C43  1  0.70530557  0.77901829  0.45917495  1  0.520116  0  0.09896  0.166796  0  4.081426  0
C  C44  1  0.70359951  0.69180460  0.40356691  1  0.093482  0  -0.02141  -0.205452  0  4.005094  0
C  C45  1  0.64722205  0.63489520  0.28827927  1  1.605099  0  0.239623  0.65463  0  4.149298  0
C  C46  1  0.75846734  0.65972980  0.45748848  1  0.529627  0  0.098636  0.166644  0  4.082492  0
C  C47  1  0.81411379  0.71360096  0.56407497  1  0.604375  0  0.098888  0.167491  0  4.083606  0
C  C48  1  0.88221802  0.14292913  0.01479170  1  1.625869  0  0.238583  0.6519  0  4.152543  0
C  C49  1  0.82475965  0.20064289  0.01499252  1  0.143862  0  -0.022146  -0.208322  0  4.001271  0
C  C50  1  0.76342464  0.19489215  0.03810339  1  0.581331  0  0.100376  0.170309  0  4.076581  0
C  C51  1  0.70892679  0.24732775  0.03639480  1  0.545129  0  0.099419  0.166544  0  4.079074  0
C  C52  1  0.71420798  0.30691826  0.01152164  1  0.126568  0  -0.021074  -0.20415  0  4.003966  0
C  C53  1  0.65594359  0.36389561  0.01025154  1  1.626707  0  0.239912  0.654028  0  4.154258  0
C  C54  1  0.77548755  0.31278664  0.98852647  1  0.548971  0  0.098741  0.166801  0  4.077559  0
C  C55  1  0.83007361  0.26044424  0.99029583  1  0.536496  0  0.10023  0.168064  0  4.077686  0
O  O56  1  0.01870866  0.00175595  0.01100044  1  -1.236055  0  -0.569205  -1.039778  0  2.515862  0
O  O57  1  0.13471072  0.88310376  0.94689849  1  -1.153825  0  -0.299797  -0.524042  0  2.299295  0
O  O58  1  0.13436927  0.88606851  0.07434140  1  -1.143726  0  -0.300266  -0.525025  0  2.305339  0
O  O59  1  0.39597246  0.61334520  0.07092648  1  -1.153224  0  -0.30119  -0.527026  0  2.306253  0
O  O60  1  0.41035871  0.62702906  0.95958776  1  -1.151902  0  -0.301469  -0.52693  0  2.310129  0
O  O61  1  0.13173383  0.18441896  0.24205156  1  -1.142579  0  -0.300105  -0.523832  0  2.305761  0
O  O62  1  0.14123674  0.06366995  0.24815137  1  -1.148548  0  -0.301082  -0.526609  0  2.306382  0
O  O63  1  0.41457453  0.32908959  0.77472607  1  -1.153259  0  -0.301967  -0.527438  0  2.309487  0
O  O64  1  0.40166045  0.45389276  0.77827673  1  -1.160184  0  -0.300532  -0.525301  0  2.306  0
O  O65  1  0.84629489  0.88768927  0.95845963  1  -1.152343  0  -0.301566  -0.525949  0  2.317192  0
O  O66  1  0.96878495  0.89659490  0.08974782  1  -1.148888  0  -0.300752  -0.525732  0  2.298419  0
O  O67  1  0.69604726  0.62417115  0.08200389  1  -1.150147  0  -0.301198  -0.525679  0  2.31316  0
O  O68  1  0.57777827  0.61484321  0.94679805  1  -1.149669  0  -0.301541  -0.526881  0  2.305353  0
O  O69  1  0.13494860  0.17205976  0.06355962  1  -1.146099  0  -0.30194  -0.527874  0  2.314639  0
O  O70  1  0.12404598  0.04637641  0.92948546  1  -1.160246  0  -0.300239  -0.52488  0  2.298393  0
O  O71  1  0.39661358  0.32109232  0.93650553  1  -1.133055  0  -0.301807  -0.527486  0  2.309977  0
O  O72  1  0.40488672  0.43990952  0.07408100  1  -1.152053  0  -0.301711  -0.529031  0  2.301923  0
O  O73  1  0.83872813  0.89011604  0.78193147  1  -1.150874  0  -0.300389  -0.524078  0  2.311418  0
O  O74  1  0.95744117  0.87229663  0.77240347  1  -1.140737  0  -0.301023  -0.526942  0  2.299243  0
O  O75  1  0.68872627  0.60974783  0.24546757  1  -1.15348  0  -0.300726  -0.525231  0  2.311063  0
O  O76  1  0.56515867  0.61831530  0.24605599  1  -1.145937  0  -0.299288  -0.523513  0  2.295245  0
O  O77  1  0.84262631  0.06046874  0.95902692  1  -1.157747  0  -0.301527  -0.524905  0  2.316817  0
O  O78  1  0.96401277  0.18228641  0.06986545  1  -1.159901  0  -0.300768  -0.52474  0  2.311468  0
O  O79  1  0.69491617  0.44669623  0.07148264  1  -1.160204  0  -0.300604  -0.524828  0  2.312272  0
O  O80  1  0.57425221  0.32326751  0.94826283  1  -1.154934  0  -0.300377  -0.52361  0  2.305845  0
O  O81  1  0.51731709  0.50207655  0.01105597  1  -1.225702  0  -0.569512  -1.040622  0  2.517835  0
F  F82  1  0.32930103  0.91783227  0.06451715  1  -0.6122  0  -0.088082  -0.104742  0  1.344725  0
F  F83  1  0.43445174  0.81559123  0.06802575  1  -0.611798  0  -0.087204  -0.103277  0  1.34869  0
F  F84  1  0.20932026  0.58862758  0.96394719  1  -0.612141  0  -0.087605  -0.103951  0  1.349055  0
F  F85  1  0.10470978  0.69133459  0.96112795  1  -0.609908  0  -0.08808  -0.104352  0  1.344682  0
F  F86  1  0.10813215  0.26866885  0.41442561  1  -0.610163  0  -0.087779  -0.103909  0  1.346567  0
F  F87  1  0.21423897  0.37325640  0.62110588  1  -0.617451  0  -0.08754  -0.103958  0  1.348511  0
F  F88  1  0.43925051  0.25206094  0.60638123  1  -0.611521  0  -0.086651  -0.102624  0  1.349199  0
F  F89  1  0.33284488  0.14741722  0.39962690  1  -0.616778  0  -0.087436  -0.103787  0  1.347538  0
F  F90  1  0.77807718  0.69617422  0.85139861  1  -0.611034  0  -0.088002  -0.104396  0  1.347834  0
F  F91  1  0.67108704  0.58972517  0.84578474  1  -0.616219  0  -0.087141  -0.103297  0  1.347141  0
F  F92  1  0.77033712  0.81482540  0.19036481  1  -0.609017  0  -0.08755  -0.104022  0  1.349183  0
F  F93  1  0.87735691  0.92119835  0.19587492  1  -0.617625  0  -0.087559  -0.104105  0  1.34628  0
F  F94  1  0.32545230  0.23643152  0.16597498  1  -0.609691  0  -0.088068  -0.10483  0  1.346731  0
F  F95  1  0.43116204  0.34386739  0.17122791  1  -0.613269  0  -0.087215  -0.103246  0  1.348039  0
F  F96  1  0.20748908  0.24519029  0.83055372  1  -0.609157  0  -0.087706  -0.10379  0  1.347738  0
F  F97  1  0.10197546  0.13776758  0.82545196  1  -0.614316  0  -0.087662  -0.104205  0  1.344408  0
F  F98  1  0.76259910  0.91770932  0.61656038  1  -0.61169  0  -0.088008  -0.104476  0  1.346112  0
F  F99  1  0.65493934  0.81316820  0.40965394  1  -0.616073  0  -0.088044  -0.104547  0  1.344209  0
F  F100  1  0.75698487  0.57504891  0.40651522  1  -0.611598  0  -0.087576  -0.104313  0  1.345791  0
F  F101  1  0.86465476  0.67949504  0.61348162  1  -0.61673  0  -0.08745  -0.103478  0  1.346211  0
F  F102  1  0.75779869  0.13994106  0.06526225  1  -0.611612  0  -0.086803  -0.103084  0  1.350371  0
F  F103  1  0.65219511  0.24163400  0.06188579  1  -0.612332  0  -0.087737  -0.104288  0  1.34596  0
F  F104  1  0.78082134  0.36789329  0.96140373  1  -0.611811  0  -0.087385  -0.103799  0  1.34486  0
F  F105  1  0.88644489  0.26624304  0.96444065  1  -0.611705  0  -0.086909  -0.102386  0  1.349306  0
