# generated using pymatgen
data_NaP2H13(C2O)6
_symmetry_space_group_name_H-M   'P 1'
_cell_length_a   5.66686741
_cell_length_b   7.77391100
_cell_length_c   16.01063222
_cell_angle_alpha   102.95704586
_cell_angle_beta   94.21092902
_cell_angle_gamma   96.10726563
_symmetry_Int_Tables_number   1
_chemical_formula_structural   NaP2H13(C2O)6
_chemical_formula_sum   'Na2 P4 H26 C24 O12'
_cell_volume   680.01491254
_cell_formula_units_Z   2
loop_
 _symmetry_equiv_pos_site_id
 _symmetry_equiv_pos_as_xyz
  1  'x, y, z'
loop_
 _atom_site_type_symbol
 _atom_site_label
 _atom_site_symmetry_multiplicity
 _atom_site_fract_x
 _atom_site_fract_y
 _atom_site_fract_z
 _atom_site_occupancy
 _atom_site_hle17_bader_spin_density
 _atom_site_hle17_ddec_charge
 _atom_site_hle17_ddec_spin_density
 _atom_site_hle17_ddec_sum_bond_order
 _atom_site_hle17_magmom
 _atom_site_hse06_10hf_bader_spin_density
 _atom_site_hse06_10hf_ddec_charge
 _atom_site_hse06_10hf_ddec_spin_density
 _atom_site_hse06_10hf_ddec_sum_bond_order
 _atom_site_hse06_10hf_magmom
 _atom_site_hse06_bader_spin_density
 _atom_site_hse06_ddec_charge
 _atom_site_hse06_ddec_spin_density
 _atom_site_hse06_ddec_sum_bond_order
 _atom_site_hse06_magmom
 _atom_site_pbe_bader_spin_density
 _atom_site_pbe_cm5_charge
 _atom_site_pbe_ddec_charge
 _atom_site_pbe_ddec_spin_density
 _atom_site_pbe_ddec_sum_bond_order
 _atom_site_pbe_magmom
Na  Na0  1  0.79808054  0.81825034  0.00241801  1  0  0.921223  0  0.368891  0  0  0.891751  0  0.503108  0  0  0.89887  0  0.485337  0  0  0.711349  0.886383  0  0.515894  0
Na  Na1  1  0.20193152  0.18174713  0.99758264  1  0  0.9212  0  0.368925  0  0  0.891752  0  0.503103  0  0  0.898866  0  0.48535  0  0  0.711362  0.886384  0  0.515893  0
P  P2  1  0.29572801  0.67561772  0.11793153  1  0  1.51249  0  4.698876  0  0  1.357161  0  5.190454  0  0  1.406204  0  5.149824  0  0  0.402466  1.323001  0  5.218248  0
P  P3  1  0.70427721  0.32438113  0.88206969  1  0  1.512407  0  4.698802  0  0  1.357135  0  5.190383  0  0  1.406176  0  5.14975  0  0  0.402467  1.322974  0  5.218178  0
P  P4  1  0.24363445  0.77317404  0.86367799  1  0  1.484457  0  4.804191  0  0  1.325966  0  5.305057  0  0  1.375955  0  5.264058  0  0  0.362227  1.291172  0  5.332947  0
P  P5  1  0.75637495  0.22682750  0.13631992  1  0  1.48435  0  4.803912  0  0  1.325889  0  5.304781  0  0  1.375883  0  5.263783  0  0  0.362132  1.291097  0  5.332669  0
H  H6  1  0.91505233  0.56142962  0.10876565  1  0  0.452401  0  0.849035  0  0  0.416339  0  0.91958  0  0  0.428491  0  0.902268  0  0  0.316085  0.407868  0  0.931611  0
H  H7  1  0.08495253  0.43856662  0.89123215  1  0  0.452349  0  0.849088  0  0  0.416297  0  0.91962  0  0  0.428442  0  0.902317  0  0  0.316087  0.407826  0  0.93165  0
H  H8  1  0.51624131  0.45375187  0.09972883  1  0  0.438437  0  0.875091  0  0  0.402223  0  0.946498  0  0  0.414414  0  0.929291  0  0  0.312009  0.393729  0  0.958448  0
H  H9  1  0.48376263  0.54624966  0.90027265  1  0  0.438457  0  0.875061  0  0  0.40225  0  0.946461  0  0  0.414438  0  0.92926  0  0  0.312011  0.393757  0  0.95841  0
H  H10  1  0.54189044  0.99106935  0.89182392  1  0  0.436052  0  0.873179  0  0  0.403915  0  0.938947  0  0  0.415419  0  0.922395  0  0  0.313815  0.395879  0  0.950482  0
H  H11  1  0.45812035  0.00893080  0.10817699  1  0  0.436015  0  0.873235  0  0  0.403859  0  0.939025  0  0  0.415362  0  0.922475  0  0  0.313784  0.395823  0  0.950559  0
H  H12  1  0.02636682  0.59884614  0.25803832  1  0  0.090284  0  0.979591  0  0  0.098292  0  1.047208  0  0  0.100692  0  1.046924  0  0  0.102041  0.096541  0  1.04749  0
H  H13  1  0.97362286  0.40115423  0.74196009  1  0  0.090265  0  0.97972  0  0  0.09826  0  1.047328  0  0  0.100662  0  1.047041  0  0  0.102026  0.096509  0  1.047608  0
H  H14  1  0.13514556  0.65191664  0.41417634  1  0  0.077105  0  0.99416  0  0  0.087396  0  1.059729  0  0  0.089184  0  1.060318  0  0  0.094121  0.086118  0  1.059405  0
H  H15  1  0.86484153  0.34807972  0.58582341  1  0  0.077125  0  0.994102  0  0  0.087415  0  1.059694  0  0  0.089213  0  1.060254  0  0  0.09414  0.086136  0  1.059369  0
H  H16  1  0.53237492  0.81409376  0.48023727  1  0  0.080335  0  0.968738  0  0  0.092508  0  1.030582  0  0  0.094901  0  1.02971  0  0  0.097282  0.090794  0  1.03123  0
H  H17  1  0.46761703  0.18589992  0.51976108  1  0  0.08039  0  0.968633  0  0  0.092544  0  1.030493  0  0  0.094937  0  1.029622  0  0  0.097294  0.09083  0  1.031142  0
H  H18  1  0.82708635  0.91227173  0.38607673  1  0  0.082341  0  0.977145  0  0  0.09372  0  1.037289  0  0  0.095662  0  1.038336  0  0  0.095461  0.092294  0  1.036677  0
H  H19  1  0.17291098  0.08772317  0.61392568  1  0  0.082453  0  0.977181  0  0  0.093773  0  1.037381  0  0  0.095731  0  1.03841  0  0  0.095505  0.092346  0  1.036769  0
H  H20  1  0.72085018  0.85411952  0.22875837  1  0  0.093606  0  0.961262  0  0  0.102778  0  1.02626  0  0  0.105449  0  1.025355  0  0  0.106567  0.10083  0  1.02701  0
H  H21  1  0.27914939  0.14587801  0.77124503  1  0  0.093604  0  0.961317  0  0  0.102781  0  1.026301  0  0  0.105452  0  1.025395  0  0  0.106563  0.100835  0  1.027047  0
H  H22  1  0.84616843  0.90181066  0.78559835  1  0  0.105645  0  0.962413  0  0  0.114733  0  1.024588  0  0  0.117976  0  1.022854  0  0  0.109144  0.112332  0  1.025994  0
H  H23  1  0.15382246  0.09818701  0.21440104  1  0  0.105654  0  0.962408  0  0  0.114744  0  1.024579  0  0  0.117987  0  1.022845  0  0  0.109137  0.112335  0  1.025992  0
H  H24  1  0.69623705  0.88500884  0.63370888  1  0  0.084215  0  0.972142  0  0  0.093697  0  1.036688  0  0  0.095487  0  1.038007  0  0  0.09549  0.092398  0  1.035879  0
H  H25  1  0.30375298  0.11499414  0.36629295  1  0  0.08425  0  0.972064  0  0  0.093704  0  1.036642  0  0  0.095498  0  1.037946  0  0  0.095498  0.092407  0  1.035836  0
H  H26  1  0.90970534  0.72879933  0.51401702  1  0  0.074  0  0.983712  0  0  0.084614  0  1.049784  0  0  0.08713  0  1.048401  0  0  0.094301  0.082796  0  1.050823  0
H  H27  1  0.09028981  0.27121164  0.48598336  1  0  0.074035  0  0.983645  0  0  0.084623  0  1.049754  0  0  0.087136  0  1.048375  0  0  0.094293  0.082807  0  1.050781  0
H  H28  1  0.27237818  0.59029251  0.54721105  1  0  0.081084  0  0.963047  0  0  0.093021  0  1.024033  0  0  0.095271  0  1.023951  0  0  0.09692  0.091414  0  1.0242  0
H  H29  1  0.72761736  0.40971984  0.45278638  1  0  0.081082  0  0.963006  0  0  0.093006  0  1.024017  0  0  0.095256  0  1.023935  0  0  0.096908  0.091394  0  1.02418  0
H  H30  1  0.42195148  0.60926195  0.69873615  1  0  0.09503  0  0.947222  0  0  0.106658  0  1.006983  0  0  0.108762  0  1.007448  0  0  0.10343  0.105141  0  1.006704  0
H  H31  1  0.57805294  0.39075034  0.30126030  1  0  0.094983  0  0.947262  0  0  0.10665  0  1.006988  0  0  0.108776  0  1.007401  0  0  0.103417  0.105133  0  1.006708  0
C  C32  1  0.36655079  0.72333183  0.23293220  1  0  -0.281479  0  3.801425  0  0  -0.235385  0  4.036015  0  0  -0.246367  0  4.058833  0  0  -0.028242  -0.228085  0  4.020737  0
C  C33  1  0.63344409  0.27665911  0.76706844  1  0  -0.281433  0  3.801171  0  0  -0.235447  0  4.035912  0  0  -0.246431  0  4.058728  0  0  -0.028238  -0.228148  0  4.020637  0
C  C34  1  0.20221009  0.66695461  0.28570397  1  0  -0.031418  0  3.748244  0  0  -0.053816  0  3.98688  0  0  -0.053505  0  4.009505  0  0  -0.079377  -0.053868  0  3.971559  0
C  C35  1  0.79778688  0.33303767  0.71429501  1  0  -0.031437  0  3.748219  0  0  -0.053779  0  3.986907  0  0  -0.053465  0  4.009525  0  0  -0.079362  -0.053832  0  3.971589  0
C  C36  1  0.26352944  0.69822753  0.37418575  1  0  -0.080003  0  3.773165  0  0  -0.090669  0  4.018403  0  0  -0.094172  0  4.041056  0  0  -0.094413  -0.08833  0  4.003009  0
C  C37  1  0.73646900  0.30176339  0.62581437  1  0  -0.08003  0  3.773114  0  0  -0.090718  0  4.01836  0  0  -0.094216  0  4.041014  0  0  -0.094477  -0.088377  0  4.002968  0
C  C38  1  0.48740840  0.78710295  0.41071022  1  0  -0.074068  0  3.77394  0  0  -0.086564  0  4.017147  0  0  -0.086954  0  4.037373  0  0  -0.0911  -0.086105  0  4.003263  0
C  C39  1  0.51258419  0.21288534  0.58929068  1  0  -0.074041  0  3.773848  0  0  -0.086488  0  4.016985  0  0  -0.086881  0  4.037218  0  0  -0.091024  -0.08603  0  4.003103  0
C  C40  1  0.65202495  0.84289705  0.35836182  1  0  -0.076508  0  3.7621  0  0  -0.086867  0  4.008274  0  0  -0.090573  0  4.030822  0  0  -0.09325  -0.084359  0  3.992989  0
C  C41  1  0.34797167  0.15709387  0.64163950  1  0  -0.076647  0  3.76237  0  0  -0.086957  0  4.008516  0  0  -0.090677  0  4.031057  0  0  -0.09335  -0.084449  0  3.993233  0
C  C42  1  0.59228662  0.81095532  0.26961297  1  0  -0.027211  0  3.738817  0  0  -0.051505  0  3.981441  0  0  -0.050506  0  4.002771  0  0  -0.077083  -0.052041  0  3.967005  0
C  C43  1  0.40771400  0.18903822  0.73038939  1  0  -0.027248  0  3.738951  0  0  -0.051516  0  3.98161  0  0  -0.050515  0  4.002941  0  0  -0.077086  -0.052053  0  3.967174  0
C  C44  1  0.14361673  0.75875539  0.75212203  1  0  -0.26011  0  3.78098  0  0  -0.21577  0  4.017007  0  0  -0.226342  0  4.039447  0  0  -0.024476  -0.208729  0  4.001925  0
C  C45  1  0.85638763  0.24124753  0.24787586  1  0  -0.260052  0  3.78092  0  0  -0.215792  0  4.017054  0  0  -0.226371  0  4.039503  0  0  -0.024507  -0.208755  0  4.001977  0
C  C46  1  0.93945942  0.83549168  0.73292032  1  0  -0.034362  0  3.735011  0  0  -0.056541  0  3.974022  0  0  -0.055909  0  3.994623  0  0  -0.075863  -0.056791  0  3.96006  0
C  C47  1  0.06053854  0.16450593  0.26707928  1  0  -0.034406  0  3.734937  0  0  -0.056552  0  3.973937  0  0  -0.055925  0  3.994547  0  0  -0.075852  -0.056795  0  3.959982  0
C  C48  1  0.85527702  0.82447512  0.64746798  1  0  -0.077911  0  3.764911  0  0  -0.087375  0  4.010772  0  0  -0.090714  0  4.032954  0  0  -0.092697  -0.08513  0  3.995649  0
C  C49  1  0.14471353  0.17553054  0.35253354  1  0  -0.077868  0  3.764717  0  0  -0.087307  0  4.010565  0  0  -0.090645  0  4.03275  0  0  -0.092652  -0.085069  0  3.995448  0
C  C50  1  0.97517709  0.73667636  0.58070726  1  0  -0.079257  0  3.784736  0  0  -0.092754  0  4.030232  0  0  -0.093242  0  4.050522  0  0  -0.094044  -0.092219  0  4.016365  0
C  C51  1  0.02481330  0.26332799  0.41929224  1  0  -0.079422  0  3.784733  0  0  -0.092912  0  4.030236  0  0  -0.093403  0  4.050527  0  0  -0.094111  -0.092376  0  4.016373  0
C  C52  1  0.17916268  0.65974172  0.59937305  1  0  -0.090147  0  3.778061  0  0  -0.100441  0  4.028025  0  0  -0.104179  0  4.050277  0  0  -0.095906  -0.097953  0  4.012883  0
C  C53  1  0.82083206  0.34026662  0.40062515  1  0  -0.089987  0  3.777942  0  0  -0.100265  0  4.027881  0  0  -0.104006  0  4.050144  0  0  -0.095843  -0.097766  0  4.012725  0
C  C54  1  0.26340092  0.67020193  0.68468708  1  0  -0.036273  0  3.74254  0  0  -0.05869  0  3.985081  0  0  -0.057941  0  4.006568  0  0  -0.080592  -0.059008  0  3.970459  0
C  C55  1  0.73660227  0.32980371  0.31530858  1  0  -0.036326  0  3.742417  0  0  -0.058759  0  3.984974  0  0  -0.058009  0  4.006475  0  0  -0.080586  -0.059075  0  3.970349  0
O  O56  1  0.01913879  0.67330784  0.09838271  1  0  -0.777018  0  2.001786  0  0  -0.712287  0  2.243704  0  0  -0.731648  0  2.215826  0  0  -0.4087  -0.698711  0  2.262801  0
O  O57  1  0.98086567  0.32669636  0.90161845  1  0  -0.776968  0  2.001808  0  0  -0.712269  0  2.243717  0  0  -0.731618  0  2.215841  0  0  -0.408734  -0.698694  0  2.262814  0
O  O58  1  0.34190056  0.47895905  0.08075312  1  0  -0.790706  0  2.046853  0  0  -0.72426  0  2.290629  0  0  -0.745243  0  2.264634  0  0  -0.417577  -0.709455  0  2.308288  0
O  O59  1  0.65810482  0.52104111  0.91925013  1  0  -0.790704  0  2.046743  0  0  -0.724255  0  2.290477  0  0  -0.745249  0  2.264512  0  0  -0.417598  -0.709449  0  2.308136  0
O  O60  1  0.43943284  0.80886954  0.08057056  1  0  -0.854242  0  1.953345  0  0  -0.785072  0  2.204072  0  0  -0.807976  0  2.182096  0  0  -0.385257  -0.768975  0  2.218941  0
O  O61  1  0.56056884  0.19112935  0.91943056  1  0  -0.854182  0  1.95339  0  0  -0.785024  0  2.204101  0  0  -0.80793  0  2.182129  0  0  -0.385193  -0.768926  0  2.218972  0
O  O62  1  0.51826480  0.85410480  0.87836609  1  0  -0.781678  0  2.023153  0  0  -0.715779  0  2.258094  0  0  -0.735941  0  2.232117  0  0  -0.414305  -0.701557  0  2.275825  0
O  O63  1  0.48174113  0.14589680  0.12163046  1  0  -0.781634  0  2.023098  0  0  -0.715731  0  2.258071  0  0  -0.735903  0  2.232098  0  0  -0.41428  -0.701508  0  2.275798  0
O  O64  1  0.09296600  0.88722349  0.92023788  1  0  -0.9209  0  1.899191  0  0  -0.865422  0  2.168672  0  0  -0.886193  0  2.145817  0  0  -0.504046  -0.850689  0  2.184151  0
O  O65  1  0.90704570  0.11278071  0.07975976  1  0  -0.920838  0  1.899094  0  0  -0.865384  0  2.168623  0  0  -0.886127  0  2.145705  0  0  -0.504009  -0.850652  0  2.184097  0
O  O66  1  0.25200194  0.58043770  0.87389438  1  0  -0.835416  0  2.020636  0  0  -0.745569  0  2.255396  0  0  -0.772466  0  2.234907  0  0  -0.355781  -0.726679  0  2.269192  0
O  O67  1  0.74801260  0.41956250  0.12610166  1  0  -0.835395  0  2.020639  0  0  -0.745533  0  2.255391  0  0  -0.772436  0  2.234895  0  0  -0.355724  -0.726643  0  2.269184  0
