# generated using pymatgen
data_CdH17C25N3O5
_symmetry_space_group_name_H-M   'P 1'
_cell_length_a   9.28723536
_cell_length_b   10.21832758
_cell_length_c   12.47700000
_cell_angle_alpha   76.79099797
_cell_angle_beta   89.00431674
_cell_angle_gamma   67.44098709
_symmetry_Int_Tables_number   1
_chemical_formula_structural   CdH17C25N3O5
_chemical_formula_sum   'Cd2 H34 C50 N6 O10'
_cell_volume   1061.28053281
_cell_formula_units_Z   2
loop_
 _symmetry_equiv_pos_site_id
 _symmetry_equiv_pos_as_xyz
  1  'x, y, z'
loop_
 _atom_site_type_symbol
 _atom_site_label
 _atom_site_symmetry_multiplicity
 _atom_site_fract_x
 _atom_site_fract_y
 _atom_site_fract_z
 _atom_site_occupancy
 _atom_site_hle17_bader_spin_density
 _atom_site_hle17_ddec_charge
 _atom_site_hle17_ddec_spin_density
 _atom_site_hle17_ddec_sum_bond_order
 _atom_site_hle17_magmom
 _atom_site_hse06_10hf_bader_spin_density
 _atom_site_hse06_10hf_ddec_charge
 _atom_site_hse06_10hf_ddec_spin_density
 _atom_site_hse06_10hf_ddec_sum_bond_order
 _atom_site_hse06_10hf_magmom
 _atom_site_hse06_bader_spin_density
 _atom_site_hse06_ddec_charge
 _atom_site_hse06_ddec_spin_density
 _atom_site_hse06_ddec_sum_bond_order
 _atom_site_hse06_magmom
 _atom_site_pbe_bader_charge
 _atom_site_pbe_bader_spin_density
 _atom_site_pbe_cm5_charge
 _atom_site_pbe_ddec_charge
 _atom_site_pbe_ddec_spin_density
 _atom_site_pbe_ddec_sum_bond_order
 _atom_site_pbe_magmom
Cd  Cd0  1  0.22221907  0.07111403  0.26296314  1  0  1.078633  0  1.755632  0  0  0.881802  0  2.20717  0  0  0.937585  0  2.156689  0  1.260935  0  0.766235  0.84352  0  2.2417  0
Cd  Cd1  1  0.77778074  0.92888624  0.73703665  1  0  1.078625  0  1.755651  0  0  0.881802  0  2.207185  0  0  0.937586  0  2.156703  0  1.26092  0  0.766236  0.84352  0  2.241715  0
H  H2  1  0.37284552  0.01101737  0.50784352  1  0  0.08792  0  0.964249  0  0  0.092464  0  1.037615  0  0  0.095847  0  1.033501  0  0.130156  0  0.117003  0.089698  0  1.040821  0
H  H3  1  0.62715321  0.98898289  0.49215709  1  0  0.087929  0  0.964243  0  0  0.092468  0  1.037618  0  0  0.09585  0  1.033504  0  0.13015  0  0.117001  0.089701  0  1.040823  0
H  H4  1  0.37459851  0.61355376  0.71781455  1  0  0.099172  0  0.967132  0  0  0.1069  0  1.037505  0  0  0.109718  0  1.035589  0  0.09893  0  0.10504  0.104888  0  1.039006  0
H  H5  1  0.62540375  0.38644323  0.28218422  1  0  0.099156  0  0.967183  0  0  0.106895  0  1.037535  0  0  0.109714  0  1.035619  0  0.098917  0  0.105024  0.104871  0  1.039048  0
H  H6  1  0.15539031  0.78244316  0.38608277  1  0  0.076107  0  0.943224  0  0  0.082682  0  1.013226  0  0  0.085234  0  1.011143  0  0.079342  0  0.111968  0.081036  0  1.014494  0
H  H7  1  0.84460689  0.21755820  0.61391685  1  0  0.076147  0  0.943199  0  0  0.082683  0  1.01324  0  0  0.085234  0  1.011158  0  0.079357  0  0.111982  0.081039  0  1.014502  0
H  H8  1  0.01361050  0.36769121  0.71400107  1  0  0.086764  0  0.971959  0  0  0.095184  0  1.037166  0  0  0.097531  0  1.037343  0  0.08511  0  0.095825  0.093487  0  1.03755  0
H  H9  1  0.98638976  0.63230796  0.28599892  1  0  0.086763  0  0.97197  0  0  0.095183  0  1.037179  0  0  0.09753  0  1.037355  0  0.08511  0  0.095822  0.093485  0  1.037563  0
H  H10  1  0.13332372  0.20100376  0.58886387  1  0  0.085956  0  0.948207  0  0  0.096801  0  1.009915  0  0  0.099428  0  1.009079  0  0.064866  0  0.098276  0.095694  0  1.009274  0
H  H11  1  0.86667502  0.79899651  0.41113594  1  0  0.085968  0  0.94818  0  0  0.096811  0  1.009891  0  0  0.099438  0  1.009056  0  0.064892  0  0.098287  0.095704  0  1.009249  0
H  H12  1  0.30931608  0.25895414  0.45076397  1  0  0.087256  0  0.973547  0  0  0.097973  0  1.036062  0  0  0.099973  0  1.035721  0  0.075062  0  0.0983  0.095849  0  1.037493  0
H  H13  1  0.69068203  0.74104503  0.54923605  1  0  0.087277  0  0.97352  0  0  0.098013  0  1.036003  0  0  0.100015  0  1.035659  0  0.075083  0  0.098302  0.095888  0  1.037436  0
H  H14  1  0.36551957  0.48093807  0.43758799  1  0  0.08901  0  0.958482  0  0  0.098896  0  1.020966  0  0  0.101406  0  1.021014  0  0.044588  0  0.095867  0.097443  0  1.020268  0
H  H15  1  0.63447962  0.51906111  0.56241121  1  0  0.089002  0  0.958494  0  0  0.098887  0  1.020979  0  0  0.101398  0  1.021026  0  0.044558  0  0.095873  0.097434  0  1.020281  0
H  H16  1  0.84199946  0.17145706  0.20271333  1  0  0.080848  0  0.941243  0  0  0.088297  0  1.007734  0  0  0.09057  0  1.006049  0  0.09084  0  0.116367  0.08653  0  1.008805  0
H  H17  1  0.15800143  0.82854320  0.79728805  1  0  0.080866  0  0.941244  0  0  0.088302  0  1.007745  0  0  0.090572  0  1.006061  0  0.090847  0  0.116374  0.086535  0  1.008816  0
H  H18  1  0.66032303  0.09153088  0.11493435  1  0  0.116598  0  0.957858  0  0  0.126378  0  1.014564  0  0  0.129675  0  1.014015  0  0.153472  0  0.108711  0.12404  0  1.015264  0
H  H19  1  0.33967893  0.90846938  0.88506542  1  0  0.116586  0  0.957854  0  0  0.126367  0  1.014564  0  0  0.129662  0  1.01402  0  0.153459  0  0.108704  0.124028  0  1.015267  0
H  H20  1  0.77568004  0.85814011  0.04756451  1  0  0.113996  0  0.940655  0  0  0.12626  0  0.999032  0  0  0.129058  0  0.997131  0  0.123134  0  0.112482  0.124068  0  0.999883  0
H  H21  1  0.22432084  0.14186015  0.95243607  1  0  0.114003  0  0.940616  0  0  0.126257  0  0.999006  0  0  0.129049  0  0.997111  0  0.123122  0  0.112483  0.124066  0  0.999855  0
H  H22  1  0.00928620  0.64240832  0.03163459  1  0  0.125399  0  0.940542  0  0  0.136538  0  0.997061  0  0  0.139923  0  0.994802  0  0.118874  0  0.114329  0.134103  0  0.999298  0
H  H23  1  0.99071559  0.35758977  0.96836718  1  0  0.125368  0  0.94056  0  0  0.136541  0  0.997033  0  0  0.139926  0  0.994774  0  0.118855  0  0.114339  0.134106  0  0.99927  0
H  H24  1  0.29746879  0.51106554  0.05074155  1  0  0.105684  0  0.957061  0  0  0.11772  0  1.015862  0  0  0.120446  0  1.015038  0  0.085565  0  0.108697  0.116132  0  1.015666  0
H  H25  1  0.70253255  0.48893363  0.94925923  1  0  0.105684  0  0.957058  0  0  0.117723  0  1.015854  0  0  0.120448  0  1.01503  0  0.085559  0  0.108699  0.116133  0  1.015654  0
H  H26  1  0.56124056  0.50823041  0.09099890  1  0  0.101855  0  0.944124  0  0  0.112789  0  1.006221  0  0  0.115701  0  1.003834  0  0.078542  0  0.11184  0.110696  0  1.007687  0
H  H27  1  0.43875941  0.49177204  0.90900048  1  0  0.101866  0  0.94411  0  0  0.112804  0  1.006197  0  0  0.115716  0  1.003811  0  0.078578  0  0.111845  0.110711  0  1.007664  0
H  H28  1  0.72302894  0.62691500  0.15586705  1  0  0.119238  0  0.970047  0  0  0.124313  0  1.036176  0  0  0.128063  0  1.03483  0  0.149586  0  0.108214  0.12097  0  1.038704  0
H  H29  1  0.27697149  0.37308636  0.84413253  1  0  0.11923  0  0.970051  0  0  0.124316  0  1.036169  0  0  0.128064  0  1.034825  0  0.149584  0  0.108201  0.120969  0  1.038701  0
H  H30  1  0.58421379  0.85245566  0.22813456  1  0  0.080162  0  0.947269  0  0  0.086197  0  1.015877  0  0  0.088317  0  1.014932  0  0.119202  0  0.114722  0.085551  0  1.014234  0
H  H31  1  0.41578664  0.14754569  0.77186582  1  0  0.080121  0  0.947398  0  0  0.086157  0  1.016005  0  0  0.088275  0  1.015062  0  0.119233  0  0.11471  0.085511  0  1.014361  0
H  H32  1  0.31867494  0.26685473  0.13340100  1  0  0.404658  0  0.909112  0  0  0.371974  0  0.976624  0  0  0.383984  0  0.959324  0  0.621683  0  0.273783  0.363545  0  0.988695  0
H  H33  1  0.68132487  0.73314554  0.86659879  1  0  0.404687  0  0.909069  0  0  0.371987  0  0.976605  0  0  0.383998  0  0.959305  0  0.621707  0  0.273783  0.363558  0  0.988677  0
H  H34  1  0.12978926  0.33298954  0.12942516  1  0  0.406416  0  0.908575  0  0  0.374317  0  0.97521  0  0  0.386214  0  0.958161  0  0.640441  0  0.275195  0.36607  0  0.986908  0
H  H35  1  0.87021100  0.66700964  0.87057483  1  0  0.406415  0  0.908573  0  0  0.374319  0  0.975204  0  0  0.386216  0  0.958155  0  0.640437  0  0.275199  0.366072  0  0.986902  0
C  C36  1  0.33887210  0.91809594  0.52354365  1  0  0.126094  0  3.667893  0  0  0.083791  0  3.918818  0  0  0.09293  0  3.934958  0  0.488382  0  0.05266  0.07905  0  3.906739  0
C  C37  1  0.66112879  0.08190433  0.47645613  1  0  0.126087  0  3.667897  0  0  0.083788  0  3.918813  0  0  0.092928  0  3.934956  0  0.488369  0  0.05268  0.079049  0  3.906735  0
C  C38  1  0.38425144  0.81426276  0.62451018  1  0  -0.113701  0  3.759711  0  0  -0.08643  0  3.998039  0  0  -0.098728  0  4.021719  0  -0.019012  0  -0.015296  -0.078951  0  3.981475  0
C  C39  1  0.61575036  0.18573533  0.37548920  1  0  -0.113784  0  3.759779  0  0  -0.086508  0  3.998105  0  0  -0.098808  0  4.021787  0  -0.018969  0  -0.015339  -0.079028  0  3.981537  0
C  C40  1  0.33897403  0.69642314  0.64012964  1  0  -0.058912  0  3.675886  0  0  -0.095767  0  3.923017  0  0  -0.091165  0  3.939029  0  -0.044704  0  -0.062569  -0.098617  0  3.912394  0
C  C41  1  0.66102839  0.30357603  0.35986872  1  0  -0.058871  0  3.675902  0  0  -0.095713  0  3.923027  0  0  -0.091114  0  3.939041  0  -0.04489  0  -0.062553  -0.098553  0  3.912411  0
C  C42  1  0.25532355  0.68189379  0.55456860  1  0  0.027631  0  3.779443  0  0  0.045402  0  4.018042  0  0  0.041688  0  4.039897  0  0.029345  0  0.004695  0.047684  0  4.002861  0
C  C43  1  0.74467825  0.31810429  0.44543078  1  0  0.027618  0  3.779382  0  0  0.045341  0  4.018038  0  0  0.04163  0  4.039894  0  0.029365  0  0.004678  0.047621  0  4.002862  0
C  C44  1  0.21887513  0.78985030  0.45576613  1  0  0.093741  0  3.663095  0  0  0.053894  0  3.917453  0  0  0.061881  0  3.932657  0  0.49863  0  0.050936  0.04873  0  3.907208  0
C  C45  1  0.78112406  0.21014888  0.54423387  1  0  0.093656  0  3.663139  0  0  0.053849  0  3.917532  0  0  0.061842  0  3.932724  0  0.498671  0  0.050907  0.048686  0  3.907288  0
C  C46  1  0.21674411  0.55201170  0.56498868  1  0  0.033254  0  3.777812  0  0  0.04118  0  4.007377  0  0  0.041905  0  4.032593  0  0.0076  0  -0.007104  0.040411  0  3.990546  0
C  C47  1  0.78325570  0.44798856  0.43501112  1  0  0.033261  0  3.777831  0  0  0.041194  0  4.007399  0  0  0.041917  0  4.032615  0  0.007829  0  -0.007084  0.040425  0  3.990568  0
C  C48  1  0.11762139  0.51898360  0.64369070  1  0  -0.094516  0  3.720825  0  0  -0.074449  0  3.948936  0  0  -0.081716  0  3.970857  0  -0.044614  0  -0.013499  -0.06931  0  3.934565  0
C  C49  1  0.88237734  0.48101667  0.35630831  1  0  -0.094494  0  3.720843  0  0  -0.074425  0  3.948933  0  0  -0.081692  0  3.970854  0  -0.044623  0  -0.013494  -0.069286  0  3.934561  0
C  C50  1  0.09102823  0.39100542  0.65275309  1  0  -0.082052  0  3.756569  0  0  -0.102426  0  4.004216  0  0  -0.103348  0  4.025718  0  -0.068137  0  -0.088277  -0.102434  0  3.990768  0
C  C51  1  0.90897204  0.60899375  0.34724610  1  0  -0.082101  0  3.756668  0  0  -0.102482  0  4.004319  0  0  -0.103403  0  4.025823  0  -0.068144  0  -0.088288  -0.10249  0  3.990872  0
C  C52  1  0.15853957  0.29800075  0.58356208  1  0  -0.062513  0  3.764428  0  0  -0.078674  0  4.021869  0  0  -0.080633  0  4.042553  0  -0.030193  0  -0.090334  -0.07773  0  4.00782  0
C  C53  1  0.84145854  0.70199842  0.41643714  1  0  -0.062456  0  3.764378  0  0  -0.078614  0  4.021819  0  0  -0.080573  0  4.042507  0  -0.030204  0  -0.090309  -0.077669  0  4.00777  0
C  C54  1  0.25692385  0.33065441  0.50555281  1  0  -0.049653  0  3.760658  0  0  -0.066952  0  4.013912  0  0  -0.067394  0  4.034925  0  -0.003969  0  -0.090376  -0.066629  0  4.000526  0
C  C55  1  0.74307472  0.66934368  0.49444740  1  0  -0.049724  0  3.76063  0  0  -0.06704  0  4.013889  0  0  -0.067484  0  4.034903  0  -0.004014  0  -0.09041  -0.066717  0  4.000503  0
C  C56  1  0.28645554  0.45630618  0.49706971  1  0  -0.121369  0  3.751447  0  0  -0.139395  0  4.000172  0  0  -0.143097  0  4.022134  0  -0.06973  0  -0.094104  -0.136449  0  3.984328  0
C  C57  1  0.71354303  0.54369190  0.50293051  1  0  -0.121322  0  3.751602  0  0  -0.139337  0  4.000316  0  0  -0.143039  0  4.022278  0  -0.069779  0  -0.094081  -0.136391  0  3.984472  0
C  C58  1  0.88688186  0.07266096  0.17190130  1  0  0.150663  0  3.697336  0  0  0.117225  0  3.956101  0  0  0.125757  0  3.973513  0  0.522633  0  0.057036  0.112502  0  3.945039  0
C  C59  1  0.11311840  0.92733822  0.82810029  1  0  0.150643  0  3.697349  0  0  0.117221  0  3.95611  0  0  0.125757  0  3.97352  0  0.522807  0  0.057037  0.112498  0  3.945049  0
C  C60  1  0.78555149  0.02601725  0.12314462  1  0  -0.124685  0  3.725663  0  0  -0.139539  0  3.985126  0  0  -0.146643  0  4.006434  0  -0.087562  0  -0.086229  -0.137176  0  3.971405  0
C  C61  1  0.21444877  0.97398193  0.87685617  1  0  -0.124685  0  3.725657  0  0  -0.139542  0  3.985112  0  0  -0.146647  0  4.006418  0  -0.087615  0  -0.08623  -0.13718  0  3.971392  0
C  C62  1  0.84846381  0.89876313  0.08699402  1  0  -0.034594  0  3.653479  0  0  -0.060576  0  3.904446  0  0  -0.057973  0  3.922079  0  -0.021937  0  -0.05717  -0.060772  0  3.890414  0
C  C63  1  0.15153646  0.10123604  0.91300677  1  0  -0.034612  0  3.653471  0  0  -0.060583  0  3.904439  0  0  -0.057974  0  3.922071  0  -0.021916  0  -0.057183  -0.060779  0  3.890405  0
C  C64  1  0.01222262  0.81970267  0.09834748  1  0  0.021941  0  3.785869  0  0  0.037929  0  4.020311  0  0  0.035302  0  4.044433  0  0.005097  0  -0.00086  0.040929  0  4.002877  0
C  C65  1  0.98777657  0.18029651  0.90165412  1  0  0.021965  0  3.785916  0  0  0.037955  0  4.02036  0  0  0.035328  0  4.04448  0  0.005091  0  -0.000854  0.040955  0  4.002925  0
C  C66  1  0.10584393  0.87731899  0.14572033  1  0  0.120243  0  3.772048  0  0  0.112248  0  4.012921  0  0  0.116281  0  4.036148  0  0.495178  0  0.11329  0.109828  0  3.99711  0
C  C67  1  0.89415633  0.12268018  0.85428126  1  0  0.120159  0  3.772171  0  0  0.112164  0  4.013031  0  0  0.116195  0  4.03626  0  0.495209  0  0.113265  0.109744  0  3.997221  0
C  C68  1  0.08430423  0.68612738  0.06418748  1  0  -0.077544  0  3.708894  0  0  -0.101999  0  3.965948  0  0  -0.103526  0  3.986314  0  0.012851  0  -0.076089  -0.101983  0  3.952838  0
C  C69  1  0.91569450  0.31387289  0.93581313  1  0  -0.077481  0  3.708927  0  0  -0.101958  0  3.965965  0  0  -0.103484  0  3.986328  0  0.012849  0  -0.076076  -0.101946  0  3.952862  0
C  C70  1  0.24305738  0.61464108  0.07402197  1  0  -0.095418  0  3.721379  0  0  -0.118972  0  3.975357  0  0  -0.12281  0  3.997907  0  -0.039697  0  -0.080557  -0.115506  0  3.959239  0
C  C71  1  0.75694350  0.38535918  0.92597941  1  0  -0.095471  0  3.721438  0  0  -0.119032  0  3.975436  0  0  -0.12287  0  3.997984  0  -0.039732  0  -0.080587  -0.115566  0  3.95932  0
C  C72  1  0.34180221  0.67348775  0.11513293  1  0  0.031377  0  3.794856  0  0  0.047478  0  4.025753  0  0  0.045642  0  4.050617  0  -0.008329  0  0.000125  0.047858  0  4.009416  0
C  C73  1  0.65820021  0.32651143  0.88486784  1  0  0.03139  0  3.794842  0  0  0.047503  0  4.025716  0  0  0.045666  0  4.05058  0  -0.008301  0  0.000126  0.047883  0  4.009378  0
C  C74  1  0.27451687  0.80409472  0.15236152  1  0  0.117856  0  3.774426  0  0  0.112866  0  4.011551  0  0  0.116201  0  4.035197  0  0.45862  0  0.112317  0.110155  0  3.996052  0
C  C75  1  0.72548401  0.19590555  0.84763826  1  0  0.117916  0  3.774385  0  0  0.112936  0  4.011482  0  0  0.116271  0  4.035129  0  0.458607  0  0.112357  0.110225  0  3.995984  0
C  C76  1  0.50661279  0.60932126  0.11796903  1  0  -0.042117  0  3.674202  0  0  -0.067061  0  3.923646  0  0  -0.064746  0  3.940111  0  -0.047898  0  -0.059456  -0.067594  0  3.911888  0
C  C77  1  0.49338656  0.39068010  0.88202976  1  0  -0.042142  0  3.674151  0  0  -0.067096  0  3.923601  0  0  -0.064779  0  3.940063  0  -0.047927  0  -0.059466  -0.067629  0  3.911843  0
C  C78  1  0.59582987  0.67398556  0.15505209  1  0  -0.11483  0  3.716457  0  0  -0.12826  0  3.970862  0  0  -0.134613  0  3.991195  0  -0.018787  0  -0.080925  -0.12433  0  3.956912  0
C  C79  1  0.40416948  0.32601580  0.84494750  1  0  -0.114801  0  3.71637  0  0  -0.128234  0  3.970765  0  0  -0.134587  0  3.991097  0  -0.018798  0  -0.080895  -0.124303  0  3.956819  0
C  C80  1  0.51895004  0.80061658  0.19372669  1  0  0.148112  0  3.688359  0  0  0.117562  0  3.939832  0  0  0.125639  0  3.957097  0  0.478599  0  0.057191  0.113511  0  3.925269  0
C  C81  1  0.48105039  0.19938477  0.80627208  1  0  0.148121  0  3.688459  0  0  0.117568  0  3.939936  0  0  0.125648  0  3.957199  0  0.478593  0  0.057197  0.113517  0  3.925372  0
C  C82  1  0.49143827  0.82338386  0.70966242  1  0  0.640702  0  3.950862  0  0  0.589843  0  4.24629  0  0  0.624408  0  4.239451  0  1.596635  0  0.202922  0.566776  0  4.249568  0
C  C83  1  0.50856262  0.17661641  0.29033816  1  0  0.640727  0  3.950854  0  0  0.589861  0  4.246285  0  0  0.624426  0  4.239445  0  1.596616  0  0.202921  0.566794  0  4.249564  0
C  C84  1  0.03007395  0.62071527  0.71487871  1  0  0.649225  0  3.924446  0  0  0.598066  0  4.22187  0  0  0.632794  0  4.213643  0  1.590928  0  0.202392  0.574293  0  4.227051  0
C  C85  1  0.96992631  0.37928391  0.28512128  1  0  0.649189  0  3.924472  0  0  0.59806  0  4.221843  0  0  0.632788  0  4.213615  0  1.590931  0  0.20239  0.574288  0  4.227023  0
N  N86  1  0.25793785  0.90606329  0.44082721  1  0  -0.310802  0  3.234112  0  0  -0.235556  0  3.503402  0  0  -0.254092  0  3.51987  0  -1.235196  0  -0.322612  -0.223188  0  3.491613  0
N  N87  1  0.74206304  0.09393698  0.55917257  1  0  -0.310758  0  3.23414  0  0  -0.235514  0  3.503412  0  0  -0.254052  0  3.519882  0  -1.235229  0  -0.322617  -0.223147  0  3.491623  0
N  N88  1  0.04148055  0.00075218  0.18280110  1  0  -0.361092  0  3.25853  0  0  -0.290464  0  3.523815  0  0  -0.309627  0  3.542147  0  -1.258849  0  -0.32528  -0.279347  0  3.512541  0
N  N89  1  0.95852079  0.99924700  0.81720048  1  0  -0.361041  0  3.258561  0  0  -0.290411  0  3.523825  0  0  -0.309574  0  3.542159  0  -1.259014  0  -0.325268  -0.279294  0  3.512552  0
N  N90  1  0.36391349  0.86331147  0.19210472  1  0  -0.355312  0  3.254419  0  0  -0.286778  0  3.51575  0  0  -0.305365  0  3.53426  0  -1.214752  0  -0.323486  -0.274125  0  3.502595  0
N  N91  1  0.63608632  0.13668880  0.80789588  1  0  -0.355327  0  3.254378  0  0  -0.286805  0  3.515712  0  0  -0.305394  0  3.534222  0  -1.214752  0  -0.323508  -0.274152  0  3.502557  0
O  O92  1  0.54561069  0.92241795  0.67801619  1  0  -0.657863  0  2.026728  0  0  -0.59132  0  2.285059  0  0  -0.620223  0  2.274119  0  -1.177698  0  -0.334657  -0.571272  0  2.291983  0
O  O93  1  0.45438866  0.07758340  0.32198500  1  0  -0.657868  0  2.026713  0  0  -0.59131  0  2.285029  0  0  -0.620212  0  2.274088  0  -1.177709  0  -0.334641  -0.571261  0  2.291952  0
O  O94  1  0.52182776  0.73250471  0.80258554  1  0  -0.627696  0  1.939001  0  0  -0.574861  0  2.157227  0  0  -0.599362  0  2.148183  0  -1.187815  0  -0.322958  -0.558068  0  2.162802  0
O  O95  1  0.47817358  0.26749446  0.19741444  1  0  -0.627685  0  1.939  0  0  -0.574856  0  2.157222  0  0  -0.599357  0  2.148177  0  -1.187783  0  -0.322956  -0.558063  0  2.162795  0
O  O96  1  0.96605609  0.75630036  0.66603245  1  0  -0.650536  0  2.003207  0  0  -0.584532  0  2.256132  0  0  -0.614493  0  2.246492  0  -1.173789  0  -0.336944  -0.564065  0  2.262406  0
O  O97  1  0.03394310  0.24369881  0.33396675  1  0  -0.650535  0  2.003225  0  0  -0.584534  0  2.25613  0  0  -0.614501  0  2.246502  0  -1.173804  0  -0.336959  -0.564067  0  2.262402  0
O  O98  1  0.02290733  0.56434020  0.81546044  1  0  -0.631336  0  1.947754  0  0  -0.574805  0  2.163727  0  0  -0.599883  0  2.154718  0  -1.18915  0  -0.321734  -0.557528  0  2.17015  0
O  O99  1  0.97709248  0.43566007  0.18453935  1  0  -0.631319  0  1.947733  0  0  -0.574796  0  2.163686  0  0  -0.599873  0  2.154677  0  -1.189151  0  -0.321721  -0.557519  0  2.17011  0
O  O100  1  0.22335767  0.25470308  0.10809652  1  0  -0.839952  0  1.855092  0  0  -0.776158  0  2.042573  0  0  -0.799667  0  2.007671  0  -1.262979  0  -0.595905  -0.759976  0  2.066547  0
O  O101  1  0.77664321  0.74529718  0.89190326  1  0  -0.839966  0  1.855043  0  0  -0.776156  0  2.042537  0  0  -0.799669  0  2.007632  0  -1.262985  0  -0.595899  -0.759975  0  2.066509  0
