# generated using pymatgen
data_Tb2H20C28S(N4O7)2
_symmetry_space_group_name_H-M   'P 1'
_cell_length_a   8.56917065
_cell_length_b   11.44899603
_cell_length_c   17.81660513
_cell_angle_alpha   102.83188743
_cell_angle_beta   89.96879719
_cell_angle_gamma   112.04902975
_symmetry_Int_Tables_number   1
_chemical_formula_structural   Tb2H20C28S(N4O7)2
_chemical_formula_sum   'Tb4 H40 C56 S2 N16 O28'
_cell_volume   1573.00831912
_cell_formula_units_Z   2
loop_
 _symmetry_equiv_pos_site_id
 _symmetry_equiv_pos_as_xyz
  1  'x, y, z'
loop_
 _atom_site_type_symbol
 _atom_site_label
 _atom_site_symmetry_multiplicity
 _atom_site_fract_x
 _atom_site_fract_y
 _atom_site_fract_z
 _atom_site_occupancy
 _atom_site_hle17_bader_spin_density
 _atom_site_hle17_ddec_charge
 _atom_site_hle17_ddec_spin_density
 _atom_site_hle17_ddec_sum_bond_order
 _atom_site_hle17_magmom
 _atom_site_hse06_10hf_bader_spin_density
 _atom_site_hse06_10hf_ddec_charge
 _atom_site_hse06_10hf_ddec_spin_density
 _atom_site_hse06_10hf_ddec_sum_bond_order
 _atom_site_hse06_10hf_magmom
 _atom_site_hse06_bader_spin_density
 _atom_site_hse06_ddec_charge
 _atom_site_hse06_ddec_spin_density
 _atom_site_hse06_ddec_sum_bond_order
 _atom_site_hse06_magmom
 _atom_site_pbe_bader_spin_density
 _atom_site_pbe_cm5_charge
 _atom_site_pbe_ddec_charge
 _atom_site_pbe_ddec_spin_density
 _atom_site_pbe_ddec_sum_bond_order
 _atom_site_pbe_magmom
Tb  Tb0  1  0.22556702  0.72211041  0.26181857  1  0  2.149267  0  1.732598  0  0  1.982978  0  2.226813  0  0  2.03139  0  2.183424  0  0  1.548123  1.945357  0  2.262312  0
Tb  Tb1  1  0.50337967  0.27789451  0.23812185  1  0  2.149656  0  1.731677  0  0  1.983437  0  2.226124  0  0  2.03199  0  2.182427  0  0  1.548286  1.94593  0  2.261479  0
Tb  Tb2  1  0.77443142  0.27788818  0.73818236  1  0  2.149229  0  1.732634  0  0  1.982938  0  2.226848  0  0  2.031351  0  2.183459  0  0  1.548098  1.945335  0  2.262322  0
Tb  Tb3  1  0.49661691  0.72210506  0.76187922  1  0  2.149633  0  1.73166  0  0  1.983396  0  2.22615  0  0  2.031959  0  2.182445  0  0  1.548235  1.945905  0  2.261473  0
H  H4  1  0.11194816  0.43878439  0.20609235  1  0  0.448473  0  0.849966  0  0  0.416493  0  0.91467  0  0  0.428072  0  0.897995  0  0  0.298382  0.40833  0  0.926399  0
H  H5  1  0.67275851  0.56142042  0.29407829  1  0  0.448778  0  0.849849  0  0  0.416268  0  0.915371  0  0  0.427919  0  0.898577  0  0  0.298058  0.408054  0  0.927178  0
H  H6  1  0.88805261  0.56121421  0.79390857  1  0  0.448505  0  0.84992  0  0  0.416551  0  0.914583  0  0  0.42813  0  0.897907  0  0  0.298417  0.408386  0  0.926315  0
H  H7  1  0.32723948  0.43857728  0.70591914  1  0  0.448741  0  0.849883  0  0  0.416222  0  0.915417  0  0  0.427874  0  0.898622  0  0  0.298066  0.408007  0  0.927225  0
H  H8  1  0.98346812  0.45533528  0.26994912  1  0  0.451053  0  0.846297  0  0  0.419386  0  0.909811  0  0  0.430795  0  0.893321  0  0  0.300587  0.411346  0  0.921391  0
H  H9  1  0.52767647  0.54454540  0.23018537  1  0  0.450768  0  0.84662  0  0  0.419075  0  0.910081  0  0  0.430517  0  0.89357  0  0  0.300366  0.411009  0  0.921684  0
H  H10  1  0.01653014  0.54466529  0.73005042  1  0  0.451061  0  0.846294  0  0  0.419399  0  0.909804  0  0  0.430808  0  0.893314  0  0  0.300592  0.41136  0  0.921383  0
H  H11  1  0.47232152  0.45545230  0.76981206  1  0  0.450836  0  0.846519  0  0  0.419147  0  0.909967  0  0  0.43059  0  0.893456  0  0  0.300427  0.411083  0  0.921569  0
H  H12  1  0.96908856  0.91240988  0.26268811  1  0  0.102854  0  0.971527  0  0  0.111274  0  1.034001  0  0  0.113518  0  1.033557  0  0  0.120732  0.109601  0  1.034525  0
H  H13  1  0.05589463  0.08768531  0.23738087  1  0  0.102751  0  0.971742  0  0  0.111064  0  1.034191  0  0  0.113406  0  1.033648  0  0  0.120705  0.109339  0  1.034764  0
H  H14  1  0.03090462  0.08759453  0.73731369  1  0  0.102925  0  0.971513  0  0  0.111265  0  1.034087  0  0  0.113508  0  1.033643  0  0  0.120729  0.109591  0  1.03461  0
H  H15  1  0.94410733  0.91231332  0.76261838  1  0  0.102774  0  0.971716  0  0  0.111116  0  1.034136  0  0  0.113461  0  1.033588  0  0  0.120693  0.109389  0  1.034706  0
H  H16  1  0.89778761  0.55389329  0.11201296  1  0  0.109905  0  0.916114  0  0  0.11969  0  0.97561  0  0  0.12262  0  0.971761  0  0  0.151092  0.117557  0  0.978321  0
H  H17  1  0.34427673  0.44610752  0.38804280  1  0  0.110321  0  0.916874  0  0  0.120139  0  0.976197  0  0  0.123066  0  0.97237  0  0  0.151386  0.117988  0  0.978911  0
H  H18  1  0.10221724  0.44611112  0.88798940  1  0  0.109827  0  0.916202  0  0  0.119651  0  0.975652  0  0  0.12258  0  0.971803  0  0  0.151075  0.11752  0  0.978364  0
H  H19  1  0.65571899  0.55389497  0.61195815  1  0  0.110346  0  0.916908  0  0  0.120171  0  0.976228  0  0  0.123092  0  0.972399  0  0  0.151397  0.11802  0  0.978944  0
H  H20  1  0.25272563  0.71192155  0.46341085  1  0  0.098413  0  0.975853  0  0  0.104692  0  1.04175  0  0  0.106262  0  1.042951  0  0  0.114666  0.103547  0  1.040984  0
H  H21  1  0.54105761  0.28755113  0.03665117  1  0  0.097946  0  0.977115  0  0  0.105054  0  1.041919  0  0  0.106633  0  1.043136  0  0  0.114849  0.103915  0  1.041146  0
H  H22  1  0.74728282  0.28807607  0.53659049  1  0  0.098418  0  0.976004  0  0  0.104691  0  1.04189  0  0  0.106265  0  1.043093  0  0  0.114667  0.103545  0  1.041122  0
H  H23  1  0.45894279  0.71245140  0.96334811  1  0  0.097892  0  0.977033  0  0  0.104986  0  1.041859  0  0  0.106565  0  1.043075  0  0  0.114811  0.103848  0  1.041085  0
H  H24  1  0.65628391  0.84637365  0.32853622  1  0  0.093008  0  0.936088  0  0  0.100073  0  1.005197  0  0  0.102208  0  1.002541  0  0  0.140704  0.098479  0  1.007092  0
H  H25  1  0.80988858  0.15325899  0.17140319  1  0  0.092627  0  0.936757  0  0  0.100027  0  1.005426  0  0  0.102066  0  1.002869  0  0  0.14087  0.098426  0  1.007329  0
H  H26  1  0.34371623  0.15362602  0.67145982  1  0  0.092822  0  0.936018  0  0  0.099918  0  1.005124  0  0  0.102055  0  1.002463  0  0  0.140619  0.098324  0  1.007029  0
H  H27  1  0.19010742  0.84674640  0.82859876  1  0  0.09262  0  0.93686  0  0  0.10001  0  1.005508  0  0  0.102058  0  1.002942  0  0  0.140868  0.098403  0  1.007413  0
H  H28  1  0.66967507  0.83041672  0.16812793  1  0  0.137754  0  0.956357  0  0  0.147071  0  1.014476  0  0  0.150562  0  1.011927  0  0  0.127441  0.144477  0  1.016481  0
H  H29  1  0.83871085  0.16986715  0.33193541  1  0  0.138211  0  0.957104  0  0  0.147489  0  1.015066  0  0  0.150936  0  1.012578  0  0  0.127623  0.144948  0  1.016976  0
H  H30  1  0.33032087  0.16958389  0.83186993  1  0  0.137796  0  0.956318  0  0  0.14712  0  1.014424  0  0  0.150601  0  1.011888  0  0  0.12747  0.144526  0  1.016427  0
H  H31  1  0.16128316  0.83012959  0.66806132  1  0  0.138195  0  0.95712  0  0  0.147508  0  1.015041  0  0  0.150956  0  1.012549  0  0  0.127637  0.144957  0  1.016966  0
H  H32  1  0.55478241  0.82169040  0.55870715  1  0  0.140486  0  0.941129  0  0  0.148244  0  1.001286  0  0  0.151789  0  0.998942  0  0  0.130948  0.145637  0  1.003132  0
H  H33  1  0.73326381  0.17795734  0.94127740  1  0  0.140417  0  0.940311  0  0  0.147789  0  1.000949  0  0  0.151346  0  0.998576  0  0  0.13091  0.145141  0  1.002855  0
H  H34  1  0.44523335  0.17831015  0.44129351  1  0  0.140446  0  0.941161  0  0  0.148182  0  1.001347  0  0  0.151727  0  0.999003  0  0  0.130956  0.145553  0  1.003226  0
H  H35  1  0.26673559  0.82204318  0.05872493  1  0  0.140465  0  0.940245  0  0  0.147832  0  1.000891  0  0  0.151389  0  0.998516  0  0  0.130931  0.145186  0  1.002798  0
H  H36  1  0.80443163  0.55394477  0.98882864  1  0  0.129696  0  0.934137  0  0  0.137944  0  0.995254  0  0  0.142029  0  0.992533  0  0  0.120382  0.134947  0  0.997383  0
H  H37  1  0.25044998  0.44632837  0.51128562  1  0  0.130196  0  0.934322  0  0  0.137476  0  0.996559  0  0  0.141625  0  0.993726  0  0  0.120355  0.134494  0  0.998673  0
H  H38  1  0.19557382  0.44605386  0.01117117  1  0  0.129655  0  0.934184  0  0  0.137926  0  0.995282  0  0  0.142006  0  0.992566  0  0  0.120383  0.134941  0  0.997393  0
H  H39  1  0.74954469  0.55366737  0.48871207  1  0  0.130144  0  0.934364  0  0  0.137433  0  0.996589  0  0  0.141581  0  0.993759  0  0  0.120357  0.134452  0  0.998699  0
H  H40  1  0.77449280  0.07077291  0.55200171  1  0  0.128149  0  0.952486  0  0  0.133635  0  1.01965  0  0  0.137611  0  1.016923  0  0  0.11808  0.130788  0  1.021616  0
H  H41  1  0.70378200  0.92931741  0.94765789  1  0  0.127328  0  0.953962  0  0  0.133972  0  1.019781  0  0  0.137951  0  1.016979  0  0  0.118338  0.131091  0  1.021822  0
H  H42  1  0.22551348  0.92922969  0.44799421  1  0  0.128061  0  0.952539  0  0  0.133566  0  1.019691  0  0  0.137559  0  1.016915  0  0  0.118056  0.13072  0  1.021656  0
H  H43  1  0.29621455  0.07068208  0.05234654  1  0  0.127299  0  0.954017  0  0  0.133955  0  1.019825  0  0  0.137927  0  1.017031  0  0  0.118327  0.131077  0  1.021869  0
C  C44  1  0.90899205  0.82634926  0.21653195  1  0  0.018529  0  3.753253  0  0  -0.013558  0  4.024397  0  0  -0.012423  0  4.043872  0  0  0.002051  -0.014353  0  4.0112  0
C  C45  1  0.08211784  0.17374919  0.28353697  1  0  0.019436  0  3.751037  0  0  -0.012281  0  4.021702  0  0  -0.011276  0  4.0412  0  0  0.002574  -0.013008  0  4.008524  0
C  C46  1  0.09100668  0.17365226  0.78346886  1  0  0.018435  0  3.753243  0  0  -0.0136  0  4.024381  0  0  -0.012464  0  4.043851  0  0  0.002001  -0.014397  0  4.011185  0
C  C47  1  0.91788112  0.82625043  0.71646130  1  0  0.019326  0  3.751052  0  0  -0.012414  0  4.021716  0  0  -0.011409  0  4.041213  0  0  0.002578  -0.013135  0  4.008532  0
C  C48  1  0.88044138  0.64195111  0.13993827  1  0  0.205509  0  3.639433  0  0  0.146421  0  3.907941  0  0  0.16224  0  3.915723  0  0  0.163093  0.136204  0  3.902116  0
C  C49  1  0.23864406  0.35805744  0.36014396  1  0  0.204644  0  3.639689  0  0  0.145425  0  3.908286  0  0  0.161242  0  3.916057  0  0  0.162514  0.135226  0  3.902462  0
C  C50  1  0.11956183  0.35805236  0.86006282  1  0  0.205619  0  3.639446  0  0  0.146494  0  3.907965  0  0  0.162315  0  3.915745  0  0  0.163109  0.136274  0  3.902145  0
C  C51  1  0.76135390  0.64194021  0.63985570  1  0  0.204666  0  3.639882  0  0  0.145433  0  3.908479  0  0  0.161261  0  3.916238  0  0  0.16252  0.135229  0  3.902663  0
C  C52  1  0.38166101  0.75622543  0.44977654  1  0  0.013731  0  3.762231  0  0  -0.016775  0  4.033842  0  0  -0.015554  0  4.053504  0  0  -0.00195  -0.017589  0  4.020413  0
C  C53  1  0.62554815  0.24323852  0.05023618  1  0  0.013051  0  3.764752  0  0  -0.018212  0  4.036348  0  0  -0.01703  0  4.056026  0  0  -0.002283  -0.01902  0  4.022932  0
C  C54  1  0.61834726  0.24377417  0.55022286  1  0  0.013698  0  3.762376  0  0  -0.016776  0  4.03395  0  0  -0.01556  0  4.053615  0  0  -0.00191  -0.017587  0  4.020513  0
C  C55  1  0.37445204  0.75676591  0.94976507  1  0  0.01314  0  3.764604  0  0  -0.018099  0  4.036188  0  0  -0.016916  0  4.055865  0  0  -0.002221  -0.018907  0  4.022774  0
C  C56  1  0.58468406  0.82422611  0.37723708  1  0  0.21463  0  3.666226  0  0  0.151933  0  3.93927  0  0  0.168168  0  3.947407  0  0  0.156785  0.141421  0  3.933228  0
C  C57  1  0.76051862  0.17541805  0.12273359  1  0  0.21509  0  3.666059  0  0  0.152297  0  3.938992  0  0  0.168634  0  3.947132  0  0  0.156363  0.141777  0  3.932962  0
C  C58  1  0.41531909  0.17577258  0.62275993  1  0  0.214724  0  3.666282  0  0  0.152001  0  3.939369  0  0  0.168236  0  3.947506  0  0  0.156798  0.141489  0  3.933326  0
C  C59  1  0.23947689  0.82458637  0.87726821  1  0  0.215091  0  3.666311  0  0  0.152328  0  3.939198  0  0  0.168663  0  3.947334  0  0  0.156369  0.141815  0  3.933164  0
C  C60  1  0.76199204  0.78712944  0.17032032  1  0  -0.049032  0  3.628319  0  0  -0.08906  0  3.884092  0  0  -0.086952  0  3.901502  0  0  0.004568  -0.090448  0  3.872579  0
C  C61  1  0.97446722  0.21307032  0.32976860  1  0  -0.049726  0  3.629003  0  0  -0.089787  0  3.884924  0  0  -0.087639  0  3.902405  0  0  0.004732  -0.091204  0  3.873353  0
C  C62  1  0.23800554  0.21287211  0.82967937  1  0  -0.049031  0  3.628302  0  0  -0.089058  0  3.884052  0  0  -0.086942  0  3.901465  0  0  0.004559  -0.090448  0  3.872539  0
C  C63  1  0.02552959  0.78692737  0.67022938  1  0  -0.049673  0  3.629027  0  0  -0.089767  0  3.884938  0  0  -0.087618  0  3.902416  0  0  0.004709  -0.091179  0  3.873379  0
C  C64  1  0.52905971  0.81087959  0.49748273  1  0  -0.038631  0  3.610166  0  0  -0.078979  0  3.864299  0  0  -0.076574  0  3.880692  0  0  0.009642  -0.080594  0  3.853472  0
C  C65  1  0.71842788  0.18882817  0.00251494  1  0  -0.037536  0  3.609544  0  0  -0.077396  0  3.863654  0  0  -0.074985  0  3.880069  0  0  0.009845  -0.078979  0  3.852848  0
C  C66  1  0.47094810  0.18911908  0.50251484  1  0  -0.038428  0  3.610233  0  0  -0.07875  0  3.864347  0  0  -0.076345  0  3.880741  0  0  0.009717  -0.080357  0  3.853546  0
C  C67  1  0.28157250  0.81117430  0.99748657  1  0  -0.037617  0  3.609569  0  0  -0.077484  0  3.863684  0  0  -0.075073  0  3.880099  0  0  0.009824  -0.079068  0  3.85288  0
C  C68  1  0.61641241  0.58589571  0.06195278  1  0  0.172691  0  3.733643  0  0  0.155019  0  3.986149  0  0  0.161388  0  4.007086  0  0  0.109747  0.150622  0  3.972187  0
C  C69  1  0.03060987  0.41421787  0.43808217  1  0  0.17046  0  3.738087  0  0  0.153217  0  3.990011  0  0  0.159536  0  4.011012  0  0  0.109556  0.148893  0  3.976017  0
C  C70  1  0.38359119  0.41410387  0.93804774  1  0  0.172753  0  3.73349  0  0  0.155082  0  3.986029  0  0  0.161453  0  4.006963  0  0  0.109782  0.150682  0  3.972068  0
C  C71  1  0.96938131  0.58577787  0.56191553  1  0  0.170536  0  3.73794  0  0  0.153155  0  3.990046  0  0  0.159475  0  4.011042  0  0  0.109504  0.148814  0  3.976039  0
C  C72  1  0.83228002  0.92274804  0.47451798  1  0  0.169388  0  3.736622  0  0  0.154122  0  3.986638  0  0  0.159476  0  4.008621  0  0  0.104429  0.150459  0  3.971875  0
C  C73  1  0.90957449  0.07710034  0.02541768  1  0  0.168576  0  3.738503  0  0  0.152511  0  3.989042  0  0  0.157827  0  4.01109  0  0  0.103997  0.148885  0  3.974245  0
C  C74  1  0.16772784  0.07725074  0.52547456  1  0  0.169258  0  3.736689  0  0  0.153986  0  3.986828  0  0  0.159334  0  4.008817  0  0  0.104466  0.150325  0  3.972065  0
C  C75  1  0.09042204  0.92289913  0.97458787  1  0  0.168664  0  3.738319  0  0  0.152437  0  3.989  0  0  0.157753  0  4.011044  0  0  0.103988  0.148813  0  3.974206  0
C  C76  1  0.44268093  0.55720624  0.06779453  1  0  -0.084516  0  3.678338  0  0  -0.067839  0  3.917311  0  0  -0.072718  0  3.934293  0  0  0.002645  -0.064823  0  3.906171  0
C  C77  1  0.88558812  0.44272749  0.43213869  1  0  -0.082209  0  3.678127  0  0  -0.065738  0  3.916688  0  0  -0.070574  0  3.933673  0  0  0.002978  -0.062897  0  3.90576  0
C  C78  1  0.55732034  0.44279335  0.93220542  1  0  -0.084472  0  3.678112  0  0  -0.067805  0  3.917069  0  0  -0.072684  0  3.934051  0  0  0.002636  -0.064782  0  3.905922  0
C  C79  1  0.11440451  0.55727117  0.56785888  1  0  -0.082242  0  3.678179  0  0  -0.065715  0  3.916774  0  0  -0.070547  0  3.933754  0  0  0.002986  -0.062814  0  3.905774  0
C  C80  1  0.67006618  0.52887300  0.99479449  1  0  -0.132368  0  3.707901  0  0  -0.168928  0  3.970942  0  0  -0.170844  0  3.989009  0  0  -0.071808  -0.167602  0  3.958991  0
C  C81  1  0.14118512  0.47131636  0.50528626  1  0  -0.133513  0  3.709071  0  0  -0.169281  0  3.972303  0  0  -0.17122  0  3.990287  0  0  -0.071963  -0.167982  0  3.960443  0
C  C82  1  0.32993809  0.47112559  0.00520644  1  0  -0.1323  0  3.708006  0  0  -0.168895  0  3.971082  0  0  -0.170806  0  3.989147  0  0  -0.071801  -0.167592  0  3.959151  0
C  C83  1  0.85880817  0.52868128  0.49471396  1  0  -0.133506  0  3.708964  0  0  -0.169241  0  3.972257  0  0  -0.171179  0  3.99024  0  0  -0.072006  -0.167921  0  3.96041  0
C  C84  1  0.95785751  0.87915600  0.44353193  1  0  -0.110169  0  3.676299  0  0  -0.096456  0  3.919127  0  0  -0.102697  0  3.938906  0  0  -0.006006  -0.092458  0  3.905955  0
C  C85  1  0.07867693  0.12070031  0.05658674  1  0  -0.110515  0  3.676721  0  0  -0.095346  0  3.918398  0  0  -0.101587  0  3.938232  0  0  -0.005838  -0.091398  0  3.905264  0
C  C86  1  0.04214917  0.12084274  0.55646228  1  0  -0.109975  0  3.676234  0  0  -0.096393  0  3.919279  0  0  -0.102629  0  3.939053  0  0  -0.006036  -0.092396  0  3.906105  0
C  C87  1  0.92132148  0.87929824  0.94341643  1  0  -0.110566  0  3.676663  0  0  -0.095279  0  3.918268  0  0  -0.101517  0  3.938097  0  0  -0.005804  -0.091339  0  3.905145  0
C  C88  1  0.87461893  0.03993337  0.52957971  1  0  -0.117138  0  3.692196  0  0  -0.149012  0  3.947458  0  0  -0.150195  0  3.965298  0  0  -0.07222  -0.148194  0  3.935595  0
C  C89  1  0.83466169  0.96005641  0.97021095  1  0  -0.115697  0  3.692469  0  0  -0.148919  0  3.947317  0  0  -0.150033  0  3.965137  0  0  -0.072505  -0.148088  0  3.93547  0
C  C90  1  0.12538775  0.96006536  0.47041506  1  0  -0.116985  0  3.692128  0  0  -0.148917  0  3.947369  0  0  -0.150094  0  3.965217  0  0  -0.07227  -0.148099  0  3.935506  0
C  C91  1  0.16533291  0.03993920  0.02979290  1  0  -0.115704  0  3.692596  0  0  -0.148877  0  3.947493  0  0  -0.149985  0  3.96532  0  0  -0.072514  -0.148052  0  3.935648  0
C  C92  1  0.36409743  0.60826047  0.13611275  1  0  0.672216  0  3.880764  0  0  0.621187  0  4.172807  0  0  0.656599  0  4.16215  0  0  0.207153  0.597233  0  4.179161  0
C  C93  1  0.75597697  0.39156948  0.36378599  1  0  0.671484  0  3.881335  0  0  0.620534  0  4.173112  0  0  0.655909  0  4.162507  0  0  0.207244  0.596645  0  4.179448  0
C  C94  1  0.63590366  0.39174109  0.86388638  1  0  0.672196  0  3.880865  0  0  0.621175  0  4.172888  0  0  0.656593  0  4.162227  0  0  0.207186  0.597221  0  4.179243  0
C  C95  1  0.24401703  0.60842723  0.63621185  1  0  0.671642  0  3.881011  0  0  0.620673  0  4.172826  0  0  0.656043  0  4.162213  0  0  0.207305  0.596768  0  4.179166  0
C  C96  1  0.92343579  0.74927190  0.38674750  1  0  0.691343  0  3.885838  0  0  0.638479  0  4.191039  0  0  0.672818  0  4.181543  0  0  0.223239  0.615251  0  4.196601  0
C  C97  1  0.17421668  0.25071968  0.11332999  1  0  0.690282  0  3.887336  0  0  0.636907  0  4.192597  0  0  0.671225  0  4.183162  0  0  0.222657  0.613722  0  4.198115  0
C  C98  1  0.07656754  0.25072482  0.61325034  1  0  0.691357  0  3.885592  0  0  0.63848  0  4.190883  0  0  0.672822  0  4.18138  0  0  0.223211  0.615256  0  4.196444  0
C  C99  1  0.82578135  0.74928276  0.88667320  1  0  0.690376  0  3.887198  0  0  0.637019  0  4.192425  0  0  0.671336  0  4.182986  0  0  0.222695  0.613835  0  4.197948  0
S  S100  1  0.40207755  0.00001331  0.24990076  1  0  1.518743  0  5.965814  0  0  1.411045  0  6.49243  0  0  1.466567  0  6.455965  0  0  0.509343  1.372759  0  6.515785  0
S  S101  1  0.59792252  0.99998622  0.75010199  1  0  1.518782  0  5.96564  0  0  1.411083  0  6.492268  0  0  1.466609  0  6.455794  0  0  0.509387  1.372797  0  6.515625  0
N  N102  1  0.98164460  0.73535527  0.19691321  1  0  -0.479854  0  3.261564  0  0  -0.424434  0  3.547534  0  0  -0.44042  0  3.562441  0  0  -0.437832  -0.413181  0  3.536971  0
N  N103  1  0.24609639  0.26460845  0.30314562  1  0  -0.480622  0  3.259479  0  0  -0.42523  0  3.545624  0  0  -0.441225  0  3.560562  0  0  -0.438308  -0.414012  0  3.535058  0
N  N104  1  0.01835440  0.26464913  0.80308971  1  0  -0.479879  0  3.261436  0  0  -0.424451  0  3.547388  0  0  -0.440437  0  3.562291  0  0  -0.437783  -0.413201  0  3.536828  0
N  N105  1  0.75390158  0.73538923  0.69685292  1  0  -0.480594  0  3.259483  0  0  -0.42519  0  3.545621  0  0  -0.441184  0  3.560556  0  0  -0.43829  -0.413977  0  3.535056  0
N  N106  1  0.41793126  0.76581192  0.37497691  1  0  -0.499451  0  3.251841  0  0  -0.442241  0  3.540949  0  0  -0.458573  0  3.554572  0  0  -0.448553  -0.430696  0  3.531173  0
N  N107  1  0.65219827  0.23369286  0.12503525  1  0  -0.499563  0  3.250526  0  0  -0.442518  0  3.540293  0  0  -0.458854  0  3.55385  0  0  -0.448528  -0.431001  0  3.530564  0
N  N108  1  0.58207303  0.23418672  0.62502178  1  0  -0.499486  0  3.251877  0  0  -0.442293  0  3.541019  0  0  -0.458624  0  3.554641  0  0  -0.448583  -0.43075  0  3.53124  0
N  N109  1  0.34780008  0.76631255  0.87496558  1  0  -0.499546  0  3.250618  0  0  -0.442509  0  3.540366  0  0  -0.458842  0  3.553918  0  0  -0.448494  -0.430994  0  3.530631  0
N  N110  1  0.74462854  0.66890722  0.12170584  1  0  -0.088928  0  3.589027  0  0  0.000253  0  3.802883  0  0  -0.015294  0  3.827893  0  0  -0.223149  0.010544  0  3.785861  0
N  N111  1  0.07575442  0.33122203  0.37838139  1  0  -0.087506  0  3.589714  0  0  0.001652  0  3.80351  0  0  -0.013895  0  3.828558  0  0  -0.223186  0.011946  0  3.786444  0
N  N112  1  0.25537254  0.33109431  0.87829441  1  0  -0.088971  0  3.58894  0  0  0.000205  0  3.802818  0  0  -0.015342  0  3.827824  0  0  -0.223188  0.010496  0  3.785794  0
N  N113  1  0.92423937  0.66877661  0.62161730  1  0  -0.087552  0  3.589855  0  0  0.00165  0  3.803671  0  0  -0.013896  0  3.828713  0  0  -0.223186  0.011942  0  3.786611  0
N  N114  1  0.65692858  0.85330437  0.45028436  1  0  -0.092397  0  3.617396  0  0  -0.003118  0  3.831566  0  0  -0.018297  0  3.855943  0  0  -0.226973  0.006897  0  3.814932  0
N  N115  1  0.80372964  0.14642553  0.04967203  1  0  -0.092299  0  3.619083  0  0  -0.002878  0  3.832486  0  0  -0.0181  0  3.856969  0  0  -0.22643  0.007168  0  3.81578  0
N  N116  1  0.34307788  0.14669627  0.54971238  1  0  -0.092363  0  3.617775  0  0  -0.003076  0  3.831987  0  0  -0.01825  0  3.856358  0  0  -0.226961  0.00694  0  3.815348  0
N  N117  1  0.19627335  0.85357984  0.95033104  1  0  -0.092352  0  3.619078  0  0  -0.002887  0  3.832518  0  0  -0.018112  0  3.857004  0  0  -0.226501  0.00716  0  3.815809  0
O  O118  1  0.05240052  0.73021436  0.35951946  1  0  -0.746379  0  2.063878  0  0  -0.688197  0  2.331552  0  0  -0.714695  0  2.321881  0  0  -0.420734  -0.669099  0  2.337507  0
O  O119  1  0.32235420  0.26993262  0.14050726  1  0  -0.746529  0  2.063904  0  0  -0.68824  0  2.331919  0  0  -0.71478  0  2.322265  0  0  -0.421112  -0.669099  0  2.33773  0
O  O120  1  0.94760247  0.26977936  0.64048242  1  0  -0.746367  0  2.0637  0  0  -0.68817  0  2.331391  0  0  -0.714665  0  2.32172  0  0  -0.420702  -0.66906  0  2.337317  0
O  O121  1  0.67764337  0.73006891  0.85949299  1  0  -0.746559  0  2.063782  0  0  -0.688284  0  2.331806  0  0  -0.714824  0  2.322152  0  0  -0.421107  -0.669142  0  2.337614  0
O  O122  1  0.44364970  0.88713762  0.21033709  1  0  -0.775912  0  1.964405  0  0  -0.723945  0  2.218525  0  0  -0.745497  0  2.202298  0  0  -0.407056  -0.708391  0  2.229116  0
O  O123  1  0.55664174  0.11318830  0.28931451  1  0  -0.775411  0  1.965395  0  0  -0.723577  0  2.220282  0  0  -0.74511  0  2.20392  0  0  -0.406853  -0.708074  0  2.230965  0
O  O124  1  0.55635087  0.11286290  0.78966469  1  0  -0.77588  0  1.964332  0  0  -0.723912  0  2.218458  0  0  -0.745461  0  2.202227  0  0  -0.407027  -0.708358  0  2.229046  0
O  O125  1  0.44335972  0.88680934  0.71068572  1  0  -0.775519  0  1.965335  0  0  -0.723688  0  2.220226  0  0  -0.745219  0  2.203866  0  0  -0.406957  -0.708189  0  2.230907  0
O  O126  1  0.27912022  0.95091955  0.30598963  1  0  -0.773173  0  1.984212  0  0  -0.724164  0  2.247786  0  0  -0.745825  0  2.23276  0  0  -0.407876  -0.708403  0  2.257281  0
O  O127  1  0.32757318  0.04886893  0.19400759  1  0  -0.773158  0  1.983014  0  0  -0.724917  0  2.247524  0  0  -0.746604  0  2.232528  0  0  -0.407904  -0.709223  0  2.25711  0
O  O128  1  0.72088033  0.04908095  0.69401327  1  0  -0.773196  0  1.98416  0  0  -0.724181  0  2.247714  0  0  -0.745839  0  2.232687  0  0  -0.407916  -0.708432  0  2.257223  0
O  O129  1  0.67242903  0.95113255  0.80599546  1  0  -0.773082  0  1.98308  0  0  -0.724846  0  2.24761  0  0  -0.746545  0  2.232631  0  0  -0.407828  -0.709154  0  2.257182  0
O  O130  1  0.09447213  0.50229763  0.25105320  1  0  -0.953102  0  1.848248  0  0  -0.901789  0  2.057031  0  0  -0.922445  0  2.024172  0  0  -0.675913  -0.886632  0  2.079932  0
O  O131  1  0.59162247  0.49774330  0.24915708  1  0  -0.953443  0  1.848316  0  0  -0.90188  0  2.058144  0  0  -0.922648  0  2.025075  0  0  -0.675224  -0.886676  0  2.081182  0
O  O132  1  0.90552428  0.49770392  0.74894649  1  0  -0.953184  0  1.848276  0  0  -0.901892  0  2.057018  0  0  -0.92254  0  2.024162  0  0  -0.675941  -0.886734  0  2.079917  0
O  O133  1  0.40837669  0.50225441  0.75083979  1  0  -0.953451  0  1.848246  0  0  -0.901887  0  2.058108  0  0  -0.922646  0  2.02503  0  0  -0.675277  -0.886689  0  2.081143  0
O  O134  1  0.42809940  0.62860683  0.20518468  1  0  -0.695339  0  2.048204  0  0  -0.633448  0  2.283765  0  0  -0.660009  0  2.274858  0  0  -0.354947  -0.614676  0  2.289396  0
O  O135  1  0.79972241  0.37144817  0.29470427  1  0  -0.694679  0  2.047918  0  0  -0.6328  0  2.283538  0  0  -0.659345  0  2.274618  0  0  -0.354562  -0.614017  0  2.28905  0
O  O136  1  0.57190120  0.37139375  0.79481486  1  0  -0.695385  0  2.048247  0  0  -0.633483  0  2.28379  0  0  -0.660055  0  2.274888  0  0  -0.354972  -0.614713  0  2.289422  0
O  O137  1  0.20027110  0.62854757  0.70529342  1  0  -0.694723  0  2.047816  0  0  -0.632818  0  2.283383  0  0  -0.659408  0  2.274571  0  0  -0.354577  -0.614042  0  2.288903  0
O  O138  1  0.23310953  0.62997690  0.12380650  1  0  -0.664532  0  1.974039  0  0  -0.618421  0  2.215101  0  0  -0.643984  0  2.207836  0  0  -0.357071  -0.600332  0  2.219517  0
O  O139  1  0.60315403  0.36964266  0.37611864  1  0  -0.664222  0  1.976259  0  0  -0.61796  0  2.217023  0  0  -0.643579  0  2.209841  0  0  -0.356868  -0.599837  0  2.221325  0
O  O140  1  0.76689205  0.37002564  0.87619222  1  0  -0.664517  0  1.974199  0  0  -0.618416  0  2.215266  0  0  -0.643978  0  2.207997  0  0  -0.357096  -0.600329  0  2.219681  0
O  O141  1  0.39684142  0.63035696  0.62387963  1  0  -0.664254  0  1.976223  0  0  -0.61799  0  2.217017  0  0  -0.643606  0  2.209837  0  0  -0.356855  -0.599857  0  2.221297  0
O  O142  1  0.77323223  0.66849217  0.37208040  1  0  -0.605835  0  1.990095  0  0  -0.553911  0  2.214218  0  0  -0.577704  0  2.205921  0  0  -0.297582  -0.537478  0  2.219526  0
O  O143  1  0.10496547  0.33145160  0.12796070  1  0  -0.604571  0  1.991858  0  0  -0.553083  0  2.216467  0  0  -0.576815  0  2.208138  0  0  -0.296751  -0.536651  0  2.221701  0
O  O144  1  0.22677090  0.33150647  0.62791829  1  0  -0.605868  0  1.990045  0  0  -0.553916  0  2.214176  0  0  -0.57771  0  2.205878  0  0  -0.297567  -0.537481  0  2.219477  0
O  O145  1  0.89502989  0.66854786  0.87204541  1  0  -0.604631  0  1.991758  0  0  -0.553179  0  2.216359  0  0  -0.576921  0  2.208053  0  0  -0.296821  -0.536751  0  2.221606  0
