# generated using pymatgen
data_CdH28C22(N5O)2
_symmetry_space_group_name_H-M   'P 1'
_cell_length_a   7.75649676
_cell_length_b   9.07955862
_cell_length_c   18.23165858
_cell_angle_alpha   90.00001833
_cell_angle_beta   89.99982796
_cell_angle_gamma   113.40675461
_symmetry_Int_Tables_number   1
_chemical_formula_structural   CdH28C22(N5O)2
_chemical_formula_sum   'Cd2 H56 C44 N20 O4'
_cell_volume   1178.31377299
_cell_formula_units_Z   2
loop_
 _symmetry_equiv_pos_site_id
 _symmetry_equiv_pos_as_xyz
  1  'x, y, z'
loop_
 _atom_site_type_symbol
 _atom_site_label
 _atom_site_symmetry_multiplicity
 _atom_site_fract_x
 _atom_site_fract_y
 _atom_site_fract_z
 _atom_site_occupancy
 _atom_site_hle17_bader_spin_density
 _atom_site_hle17_ddec_charge
 _atom_site_hle17_ddec_spin_density
 _atom_site_hle17_ddec_sum_bond_order
 _atom_site_hle17_magmom
 _atom_site_hse06_10hf_bader_spin_density
 _atom_site_hse06_10hf_ddec_charge
 _atom_site_hse06_10hf_ddec_spin_density
 _atom_site_hse06_10hf_ddec_sum_bond_order
 _atom_site_hse06_10hf_magmom
 _atom_site_hse06_bader_spin_density
 _atom_site_hse06_ddec_charge
 _atom_site_hse06_ddec_spin_density
 _atom_site_hse06_ddec_sum_bond_order
 _atom_site_hse06_magmom
 _atom_site_pbe_bader_spin_density
 _atom_site_pbe_cm5_charge
 _atom_site_pbe_ddec_charge
 _atom_site_pbe_ddec_spin_density
 _atom_site_pbe_ddec_sum_bond_order
 _atom_site_pbe_magmom
Cd  Cd0  1  0.99999707  0.49999879  0.50000053  1  0  1.048164  0  1.9284  0  0  0.853603  0  2.398936  0  0  0.899238  0  2.360961  0  0  0.784184  0.821652  0  2.424807  0
Cd  Cd1  1  0.00000117  0.99999834  0.00000015  1  0  1.04818  0  1.928371  0  0  0.853622  0  2.398903  0  0  0.899256  0  2.360929  0  0  0.784189  0.821673  0  2.424772  0
H  H2  1  0.22664001  0.94155971  0.35393810  1  0  0.074084  0  0.940253  0  0  0.089671  0  1.002796  0  0  0.089983  0  1.004036  0  0  0.107621  0.089323  0  1.002101  0
H  H3  1  0.77336123  0.55843892  0.85393556  1  0  0.074071  0  0.940264  0  0  0.089656  0  1.002784  0  0  0.089981  0  1.004022  0  0  0.10761  0.089307  0  1.002089  0
H  H4  1  0.77336263  0.05844067  0.64606360  1  0  0.074062  0  0.940253  0  0  0.089644  0  1.0028  0  0  0.089973  0  1.004025  0  0  0.107599  0.089296  0  1.002105  0
H  H5  1  0.22664140  0.44156146  0.14606284  1  0  0.074094  0  0.940247  0  0  0.089677  0  1.002786  0  0  0.08999  0  1.004022  0  0  0.107633  0.089329  0  1.00209  0
H  H6  1  0.37146725  0.02085511  0.43130117  1  0  0.076328  0  0.91959  0  0  0.092108  0  0.98057  0  0  0.092025  0  0.980933  0  0  0.109707  0.09203  0  0.980402  0
H  H7  1  0.62853324  0.47914646  0.93129998  1  0  0.076318  0  0.919591  0  0  0.092095  0  0.98057  0  0  0.092013  0  0.980935  0  0  0.109702  0.092018  0  0.9804  0
H  H8  1  0.62853575  0.97914887  0.56869943  1  0  0.076296  0  0.919616  0  0  0.092099  0  0.980568  0  0  0.092016  0  0.980933  0  0  0.109709  0.09202  0  0.980401  0
H  H9  1  0.37146940  0.52085393  0.06869898  1  0  0.076302  0  0.919594  0  0  0.092088  0  0.980558  0  0  0.092004  0  0.980922  0  0  0.109701  0.092011  0  0.980387  0
H  H10  1  0.54578229  0.27444347  0.37069496  1  0  0.07847  0  0.958662  0  0  0.093145  0  1.027296  0  0  0.093923  0  1.027807  0  0  0.091106  0.092503  0  1.027036  0
H  H11  1  0.45421628  0.22555581  0.87069615  1  0  0.078483  0  0.958705  0  0  0.093169  0  1.027342  0  0  0.093947  0  1.027851  0  0  0.091109  0.092526  0  1.02708  0
H  H12  1  0.45421906  0.72555691  0.62930400  1  0  0.078478  0  0.958709  0  0  0.093161  0  1.027337  0  0  0.093939  0  1.027847  0  0  0.091126  0.09252  0  1.027078  0
H  H13  1  0.54578635  0.77444457  0.12930335  1  0  0.078563  0  0.958641  0  0  0.093241  0  1.027278  0  0  0.094017  0  1.027789  0  0  0.09115  0.0926  0  1.027017  0
H  H14  1  0.38235892  0.22843803  0.29738522  1  0  0.059386  0  0.952437  0  0  0.079001  0  1.015895  0  0  0.079482  0  1.016736  0  0  0.088817  0.078647  0  1.015278  0
H  H15  1  0.61763784  0.27155899  0.79738511  1  0  0.059394  0  0.952444  0  0  0.079023  0  1.015901  0  0  0.079506  0  1.01674  0  0  0.088827  0.078669  0  1.015284  0
H  H16  1  0.61764039  0.77156353  0.70261483  1  0  0.059373  0  0.952478  0  0  0.078996  0  1.015933  0  0  0.079477  0  1.016774  0  0  0.088832  0.078643  0  1.015317  0
H  H17  1  0.38236276  0.72844259  0.20261439  1  0  0.059402  0  0.952395  0  0  0.079031  0  1.015857  0  0  0.079512  0  1.016695  0  0  0.088818  0.078677  0  1.015241  0
H  H18  1  0.62887491  0.04187495  0.32953242  1  0  0.080374  0  0.959703  0  0  0.095509  0  1.025562  0  0  0.096483  0  1.02627  0  0  0.093522  0.094629  0  1.025386  0
H  H19  1  0.37112214  0.45812321  0.82953321  1  0  0.080356  0  0.959784  0  0  0.09545  0  1.025679  0  0  0.096438  0  1.026371  0  0  0.093519  0.094563  0  1.025508  0
H  H20  1  0.37112330  0.95812422  0.67046708  1  0  0.080362  0  0.959783  0  0  0.095475  0  1.025662  0  0  0.096449  0  1.026369  0  0  0.093513  0.094587  0  1.025494  0
H  H21  1  0.62887791  0.54187716  0.17046739  1  0  0.080365  0  0.959769  0  0  0.09547  0  1.025659  0  0  0.096444  0  1.026368  0  0  0.093522  0.094583  0  1.025488  0
H  H22  1  0.47921545  0.01458344  0.25311983  1  0  0.062778  0  0.931749  0  0  0.08247  0  0.991157  0  0  0.083112  0  0.99163  0  0  0.088503  0.081941  0  0.990907  0
H  H23  1  0.52078350  0.48541487  0.75312043  1  0  0.062744  0  0.931765  0  0  0.082426  0  0.991172  0  0  0.08307  0  0.991645  0  0  0.088486  0.081898  0  0.990918  0
H  H24  1  0.52078331  0.98541692  0.74687967  1  0  0.062735  0  0.93178  0  0  0.082419  0  0.991187  0  0  0.083062  0  0.991658  0  0  0.088477  0.081889  0  0.990934  0
H  H25  1  0.47921785  0.51458551  0.24687962  1  0  0.062704  0  0.931784  0  0  0.082392  0  0.991182  0  0  0.083034  0  0.991655  0  0  0.088468  0.081862  0  0.99093  0
H  H26  1  0.66649591  0.29442073  0.21127384  1  0  0.085956  0  0.944418  0  0  0.100274  0  1.009659  0  0  0.101289  0  1.009114  0  0  0.111243  0.099321  0  1.010411  0
H  H27  1  0.33350392  0.20557886  0.71127464  1  0  0.085994  0  0.944389  0  0  0.100305  0  1.009618  0  0  0.101328  0  1.009075  0  0  0.111238  0.099343  0  1.010395  0
H  H28  1  0.33350285  0.70557963  0.78872566  1  0  0.085953  0  0.944356  0  0  0.100232  0  1.009655  0  0  0.101259  0  1.009115  0  0  0.111247  0.099275  0  1.010419  0
H  H29  1  0.66649797  0.79442272  0.28872542  1  0  0.085982  0  0.944371  0  0  0.100289  0  1.009619  0  0  0.101308  0  1.009076  0  0  0.111263  0.099333  0  1.010383  0
H  H30  1  0.81162160  0.33016775  0.29051394  1  0  0.08015  0  0.944783  0  0  0.095043  0  1.008635  0  0  0.095176  0  1.010176  0  0  0.109132  0.094819  0  1.007823  0
H  H31  1  0.18837372  0.16983167  0.79051382  1  0  0.080158  0  0.944799  0  0  0.095047  0  1.008653  0  0  0.095185  0  1.010197  0  0  0.109124  0.094827  0  1.00783  0
H  H32  1  0.18837402  0.66983140  0.70948557  1  0  0.08015  0  0.944787  0  0  0.095051  0  1.008646  0  0  0.095191  0  1.010193  0  0  0.109133  0.094831  0  1.007823  0
H  H33  1  0.81162633  0.83016870  0.20948569  1  0  0.080127  0  0.944805  0  0  0.095022  0  1.008657  0  0  0.095161  0  1.010202  0  0  0.10912  0.0948  0  1.007844  0
H  H34  1  0.34214287  0.35339605  0.44573709  1  0  0.095947  0  0.961209  0  0  0.102674  0  1.030271  0  0  0.104541  0  1.028458  0  0  0.12984  0.101309  0  1.031469  0
H  H35  1  0.65785640  0.14660309  0.94573526  1  0  0.095951  0  0.961201  0  0  0.102676  0  1.030265  0  0  0.104543  0  1.028452  0  0  0.129841  0.101311  0  1.031462  0
H  H36  1  0.65785459  0.64660431  0.55426406  1  0  0.09597  0  0.961187  0  0  0.102683  0  1.030264  0  0  0.10455  0  1.028452  0  0  0.129834  0.101318  0  1.03146  0
H  H37  1  0.34214550  0.85339849  0.05426369  1  0  0.095952  0  0.961204  0  0  0.102682  0  1.030265  0  0  0.104548  0  1.028453  0  0  0.129834  0.101318  0  1.031462  0
H  H38  1  0.75286739  0.10980255  0.44809863  1  0  0.103065  0  0.964026  0  0  0.111504  0  1.027839  0  0  0.113862  0  1.02673  0  0  0.114557  0.109814  0  1.02872  0
H  H39  1  0.24713112  0.39019778  0.94809902  1  0  0.103083  0  0.964019  0  0  0.111532  0  1.027812  0  0  0.11389  0  1.026701  0  0  0.114564  0.109832  0  1.028714  0
H  H40  1  0.24712972  0.89019421  0.55190252  1  0  0.103082  0  0.964021  0  0  0.111529  0  1.027818  0  0  0.113886  0  1.026707  0  0  0.11457  0.109833  0  1.02871  0
H  H41  1  0.75287097  0.60980141  0.05190103  1  0  0.10309  0  0.964043  0  0  0.111545  0  1.027824  0  0  0.113904  0  1.02671  0  0  0.114593  0.109844  0  1.028733  0
H  H42  1  0.90933727  0.90335487  0.39426695  1  0  0.111057  0  0.987461  0  0  0.115925  0  1.059259  0  0  0.118542  0  1.058062  0  0  0.117411  0.113926  0  1.060287  0
H  H43  1  0.09066291  0.59664488  0.89426530  1  0  0.110994  0  0.98751  0  0  0.115892  0  1.059268  0  0  0.118505  0  1.058076  0  0  0.117406  0.113895  0  1.060294  0
H  H44  1  0.09066482  0.09664432  0.60573310  1  0  0.111028  0  0.987489  0  0  0.115905  0  1.059277  0  0  0.118524  0  1.058085  0  0  0.117393  0.113909  0  1.060303  0
H  H45  1  0.90934102  0.40335551  0.10573255  1  0  0.111036  0  0.987468  0  0  0.115906  0  1.059272  0  0  0.118521  0  1.058074  0  0  0.117403  0.113908  0  1.060298  0
H  H46  1  0.70779581  0.10426057  0.10950632  1  0  0.102275  0  0.946981  0  0  0.109101  0  1.01462  0  0  0.111615  0  1.011379  0  0  0.134719  0.107309  0  1.016963  0
H  H47  1  0.29220962  0.39574404  0.60950555  1  0  0.10228  0  0.946936  0  0  0.109114  0  1.014574  0  0  0.111625  0  1.011331  0  0  0.134724  0.107322  0  1.016919  0
H  H48  1  0.29220276  0.89574218  0.89049373  1  0  0.10227  0  0.946943  0  0  0.109095  0  1.014584  0  0  0.111608  0  1.011344  0  0  0.13471  0.107304  0  1.016927  0
H  H49  1  0.70779467  0.60425995  0.39049395  1  0  0.102263  0  0.946953  0  0  0.109087  0  1.014597  0  0  0.1116  0  1.011358  0  0  0.134714  0.107294  0  1.016941  0
H  H50  1  0.22568486  0.10796197  0.18169260  1  0  0.100791  0  0.960433  0  0  0.112123  0  1.018896  0  0  0.114319  0  1.018171  0  0  0.114414  0.110502  0  1.01952  0
H  H51  1  0.77431686  0.39204129  0.68169231  1  0  0.100805  0  0.960404  0  0  0.11213  0  1.018877  0  0  0.114326  0  1.018142  0  0  0.114427  0.11051  0  1.019498  0
H  H52  1  0.77431371  0.89204079  0.81830745  1  0  0.100778  0  0.96044  0  0  0.112115  0  1.018902  0  0  0.114309  0  1.018183  0  0  0.114397  0.110494  0  1.019524  0
H  H53  1  0.22568449  0.60795909  0.31830775  1  0  0.100789  0  0.96045  0  0  0.112114  0  1.01892  0  0  0.114312  0  1.018191  0  0  0.114425  0.110492  0  1.019544  0
H  H54  1  0.07111846  0.23095519  0.29281041  1  0  0.111753  0  0.985304  0  0  0.117878  0  1.053255  0  0  0.120463  0  1.052398  0  0  0.118409  0.115924  0  1.054144  0
H  H55  1  0.92888257  0.26904545  0.79280935  1  0  0.111758  0  0.985298  0  0  0.117875  0  1.053258  0  0  0.120467  0  1.052392  0  0  0.118427  0.115921  0  1.054147  0
H  H56  1  0.92888085  0.76904637  0.70718964  1  0  0.11174  0  0.985363  0  0  0.117863  0  1.053311  0  0  0.12045  0  1.05245  0  0  0.11842  0.115909  0  1.054202  0
H  H57  1  0.07112007  0.73095493  0.20719015  1  0  0.111732  0  0.98536  0  0  0.117855  0  1.053307  0  0  0.12044  0  1.05245  0  0  0.118415  0.115902  0  1.054196  0
C  C58  1  0.30446732  0.05271780  0.38427313  1  0  0.012632  0  3.60876  0  0  -0.045547  0  3.860781  0  0  -0.040987  0  3.872492  0  0  -0.050087  -0.048464  0  3.852634  0
C  C59  1  0.69553170  0.44728265  0.88427185  1  0  0.012688  0  3.608738  0  0  -0.045444  0  3.860713  0  0  -0.040901  0  3.87243  0  0  -0.050068  -0.048361  0  3.85256  0
C  C60  1  0.69553383  0.94728497  0.61572802  1  0  0.012722  0  3.608794  0  0  -0.045461  0  3.860799  0  0  -0.040913  0  3.872513  0  0  -0.050074  -0.048376  0  3.85265  0
C  C61  1  0.30446891  0.55271892  0.11572766  1  0  0.012677  0  3.608802  0  0  -0.045471  0  3.860796  0  0  -0.04091  0  3.872509  0  0  -0.05011  -0.048389  0  3.852642  0
C  C62  1  0.45224729  0.17624404  0.33577279  1  0  -0.132237  0  3.686961  0  0  -0.175203  0  3.947546  0  0  -0.176874  0  3.961651  0  0  -0.165632  -0.173749  0  3.937518  0
C  C63  1  0.54774916  0.32375290  0.83577333  1  0  -0.132319  0  3.687111  0  0  -0.175341  0  3.947707  0  0  -0.177018  0  3.961827  0  0  -0.16568  -0.173881  0  3.937668  0
C  C64  1  0.54775147  0.82375632  0.66422726  1  0  -0.13224  0  3.687091  0  0  -0.175235  0  3.947678  0  0  -0.176908  0  3.961787  0  0  -0.165665  -0.173784  0  3.937651  0
C  C65  1  0.45225237  0.67624508  0.16422618  1  0  -0.132414  0  3.687047  0  0  -0.175442  0  3.947665  0  0  -0.17711  0  3.961766  0  0  -0.16568  -0.173986  0  3.937637  0
C  C66  1  0.56888773  0.10456159  0.29250621  1  0  -0.12414  0  3.680723  0  0  -0.164254  0  3.940545  0  0  -0.165885  0  3.954125  0  0  -0.16541  -0.162861  0  3.931128  0
C  C67  1  0.43111091  0.39543664  0.79250746  1  0  -0.124018  0  3.680724  0  0  -0.164069  0  3.940486  0  0  -0.165699  0  3.954068  0  0  -0.165342  -0.162669  0  3.931064  0
C  C68  1  0.43111158  0.89543997  0.70749219  1  0  -0.124074  0  3.680707  0  0  -0.164124  0  3.940464  0  0  -0.165742  0  3.954055  0  0  -0.165339  -0.162723  0  3.931044  0
C  C69  1  0.56889173  0.60456374  0.20749314  1  0  -0.124012  0  3.680716  0  0  -0.164078  0  3.94049  0  0  -0.165696  0  3.954071  0  0  -0.165367  -0.16268  0  3.931069  0
C  C70  1  0.72569351  0.23786716  0.25167221  1  0  -0.007265  0  3.618349  0  0  -0.069963  0  3.875306  0  0  -0.065757  0  3.886488  0  0  -0.056178  -0.072612  0  3.867758  0
C  C71  1  0.27430416  0.26213115  0.75167254  1  0  -0.00734  0  3.618365  0  0  -0.070014  0  3.875279  0  0  -0.065842  0  3.886505  0  0  -0.056205  -0.072663  0  3.867728  0
C  C72  1  0.27430322  0.76213439  0.74832730  1  0  -0.007189  0  3.618257  0  0  -0.069898  0  3.875271  0  0  -0.065741  0  3.886509  0  0  -0.056202  -0.072545  0  3.867719  0
C  C73  1  0.72569848  0.73786924  0.24832751  1  0  -0.007186  0  3.618304  0  0  -0.06988  0  3.875262  0  0  -0.065702  0  3.886481  0  0  -0.056185  -0.07253  0  3.867715  0
C  C74  1  0.20196096  0.26144874  0.43808345  1  0  0.143569  0  3.668389  0  0  0.086833  0  3.930705  0  0  0.098859  0  3.945758  0  0  0.130816  0.079062  0  3.920257  0
C  C75  1  0.79803653  0.23854921  0.93808366  1  0  0.143544  0  3.668387  0  0  0.086816  0  3.930699  0  0  0.098842  0  3.945752  0  0  0.13078  0.079043  0  3.920252  0
C  C76  1  0.79803596  0.73855042  0.56191605  1  0  0.143543  0  3.668404  0  0  0.086805  0  3.93074  0  0  0.098831  0  3.945791  0  0  0.130792  0.079034  0  3.920294  0
C  C77  1  0.20196352  0.76145116  0.06191640  1  0  0.143553  0  3.668408  0  0  0.086807  0  3.930733  0  0  0.098834  0  3.945786  0  0  0.130815  0.079037  0  3.920286  0
C  C78  1  0.89843284  0.12974447  0.43904506  1  0  -0.004972  0  3.764354  0  0  -0.039812  0  4.037362  0  0  -0.037686  0  4.055993  0  0  -0.010102  -0.041254  0  4.024836  0
C  C79  1  0.10156465  0.37025347  0.93904618  1  0  -0.004909  0  3.764385  0  0  -0.039738  0  4.037384  0  0  -0.037612  0  4.056018  0  0  -0.010011  -0.041182  0  4.02485  0
C  C80  1  0.10156372  0.87025109  0.56095390  1  0  -0.004867  0  3.764269  0  0  -0.039692  0  4.037254  0  0  -0.037565  0  4.055887  0  0  -0.010006  -0.041132  0  4.024721  0
C  C81  1  0.89843560  0.62974450  0.06095442  1  0  -0.004967  0  3.764334  0  0  -0.03981  0  4.037334  0  0  -0.037683  0  4.055967  0  0  -0.010109  -0.041256  0  4.024801  0
C  C82  1  0.97379930  0.02712509  0.41172275  1  0  -0.061486  0  3.687121  0  0  -0.105622  0  3.956897  0  0  -0.103072  0  3.974656  0  0  -0.002845  -0.107095  0  3.944958  0
C  C83  1  0.02619969  0.47287291  0.91172288  1  0  -0.061475  0  3.687183  0  0  -0.105628  0  3.956976  0  0  -0.103075  0  3.974735  0  0  -0.002876  -0.1071  0  3.945032  0
C  C84  1  0.02619891  0.97287407  0.58827730  1  0  -0.061501  0  3.687149  0  0  -0.105649  0  3.956933  0  0  -0.103103  0  3.974699  0  0  -0.002872  -0.10712  0  3.944989  0
C  C85  1  0.97380240  0.52712627  0.08827607  1  0  -0.061422  0  3.687089  0  0  -0.105562  0  3.956863  0  0  -0.103008  0  3.97462  0  0  -0.002829  -0.107032  0  3.944919  0
C  C86  1  0.82798641  0.11850484  0.14357774  1  0  0.146751  0  3.670297  0  0  0.088997  0  3.939632  0  0  0.102054  0  3.951766  0  0  0.135198  0.080793  0  3.931116  0
C  C87  1  0.17201690  0.38149850  0.64357768  1  0  0.146831  0  3.670166  0  0  0.089063  0  3.939525  0  0  0.102124  0  3.951654  0  0  0.135215  0.080857  0  3.93101  0
C  C88  1  0.17201215  0.88149792  0.85642176  1  0  0.146868  0  3.670243  0  0  0.089114  0  3.939575  0  0  0.102174  0  3.951703  0  0  0.135258  0.080909  0  3.931059  0
C  C89  1  0.82798684  0.61850429  0.35642183  1  0  0.146883  0  3.67019  0  0  0.089135  0  3.939529  0  0  0.102191  0  3.951663  0  0  0.135249  0.080929  0  3.931015  0
C  C90  1  0.09392656  0.12305409  0.18338096  1  0  -0.016225  0  3.786124  0  0  -0.050701  0  4.060328  0  0  -0.048929  0  4.079  0  0  -0.012036  -0.051793  0  4.047754  0
C  C91  1  0.90607663  0.37694677  0.68338159  1  0  -0.016305  0  3.786119  0  0  -0.050777  0  4.060335  0  0  -0.048999  0  4.079008  0  0  -0.012071  -0.051868  0  4.047758  0
C  C92  1  0.90607220  0.87694627  0.81661854  1  0  -0.016264  0  3.786065  0  0  -0.050744  0  4.060274  0  0  -0.048975  0  4.078949  0  0  -0.012028  -0.051835  0  4.047697  0
C  C93  1  0.09392601  0.62305361  0.31661901  1  0  -0.01625  0  3.786184  0  0  -0.05072  0  4.06039  0  0  -0.048947  0  4.079066  0  0  -0.012029  -0.051813  0  4.047817  0
C  C94  1  0.02122835  0.18514557  0.23856743  1  0  -0.083573  0  3.697761  0  0  -0.124634  0  3.963041  0  0  -0.122222  0  3.980751  0  0  -0.006366  -0.12622  0  3.951904  0
C  C95  1  0.97877311  0.31485518  0.73856741  1  0  -0.083472  0  3.697811  0  0  -0.12453  0  3.963085  0  0  -0.122122  0  3.980783  0  0  -0.006359  -0.12612  0  3.951952  0
C  C96  1  0.97876911  0.81485479  0.76143207  1  0  -0.083367  0  3.69772  0  0  -0.124423  0  3.962981  0  0  -0.122008  0  3.980684  0  0  -0.006325  -0.126015  0  3.951853  0
C  C97  1  0.02123008  0.68514640  0.26143264  1  0  -0.083373  0  3.697802  0  0  -0.12442  0  3.963054  0  0  -0.122005  0  3.980758  0  0  -0.006324  -0.126007  0  3.951918  0
C  C98  1  0.42975171  0.71127381  0.45285599  1  0  0.570946  0  4.1297  0  0  0.535496  0  4.425344  0  0  0.568515  0  4.426983  0  0  0.239145  0.51318  0  4.423559  0
C  C99  1  0.57024099  0.78872458  0.95285046  1  0  0.570832  0  4.129638  0  0  0.535419  0  4.42525  0  0  0.568439  0  4.426889  0  0  0.239099  0.513102  0  4.423458  0
C  C100  1  0.57024152  0.28872293  0.54715009  1  0  0.570921  0  4.129581  0  0  0.535506  0  4.425181  0  0  0.568527  0  4.426818  0  0  0.239136  0.513188  0  4.423392  0
C  C101  1  0.42974874  0.21126735  0.04714575  1  0  0.570772  0  4.129781  0  0  0.535321  0  4.42544  0  0  0.568341  0  4.42708  0  0  0.239039  0.513004  0  4.42365  0
N  N102  1  0.16601403  0.11216012  0.41111609  1  0  -0.076562  0  3.584774  0  0  0.020216  0  3.797966  0  0  0.005039  0  3.825423  0  0  -0.247298  0.030113  0  3.779379  0
N  N103  1  0.83398367  0.38783788  0.91111462  1  0  -0.076609  0  3.58476  0  0  0.020153  0  3.797981  0  0  0.004974  0  3.825443  0  0  -0.247301  0.03005  0  3.779394  0
N  N104  1  0.83398343  0.88784024  0.58888451  1  0  -0.076653  0  3.584899  0  0  0.020129  0  3.798122  0  0  0.00495  0  3.825584  0  0  -0.247305  0.030025  0  3.779536  0
N  N105  1  0.16601897  0.61216250  0.08888379  1  0  -0.076624  0  3.58474  0  0  0.020154  0  3.797946  0  0  0.004975  0  3.825403  0  0  -0.247289  0.030051  0  3.779359  0
N  N106  1  0.04182339  0.27499893  0.45519336  1  0  -0.383874  0  3.267496  0  0  -0.308704  0  3.547344  0  0  -0.328292  0  3.566405  0  0  -0.359017  -0.295235  0  3.53407  0
N  N107  1  0.95817452  0.22500019  0.95519445  1  0  -0.383858  0  3.267526  0  0  -0.308693  0  3.547373  0  0  -0.328282  0  3.566434  0  0  -0.359022  -0.295223  0  3.534096  0
N  N108  1  0.95817298  0.72499903  0.54480615  1  0  -0.383877  0  3.267554  0  0  -0.308704  0  3.5474  0  0  -0.328292  0  3.56646  0  0  -0.359035  -0.295236  0  3.534127  0
N  N109  1  0.04182683  0.77500019  0.04480615  1  0  -0.38386  0  3.267504  0  0  -0.308687  0  3.547352  0  0  -0.328276  0  3.566413  0  0  -0.359025  -0.295219  0  3.534083  0
N  N110  1  0.85276135  0.18193009  0.21238990  1  0  -0.06174  0  3.571082  0  0  0.034267  0  3.78763  0  0  0.019623  0  3.813739  0  0  -0.246255  0.043722  0  3.770032  0
N  N111  1  0.14723957  0.31807191  0.71239041  1  0  -0.061887  0  3.571195  0  0  0.034116  0  3.787759  0  0  0.019479  0  3.813878  0  0  -0.246286  0.043572  0  3.770161  0
N  N112  1  0.14723722  0.81807267  0.78760960  1  0  -0.062065  0  3.571277  0  0  0.033946  0  3.787885  0  0  0.019314  0  3.814  0  0  -0.246349  0.0434  0  3.770288  0
N  N113  1  0.85276361  0.68192968  0.28760964  1  0  -0.062083  0  3.571323  0  0  0.033903  0  3.787921  0  0  0.019267  0  3.814034  0  0  -0.24637  0.043358  0  3.770326  0
N  N114  1  0.97224265  0.08246197  0.12444006  1  0  -0.378187  0  3.224173  0  0  -0.311372  0  3.508308  0  0  -0.329658  0  3.525482  0  0  -0.352637  -0.298821  0  3.496003  0
N  N115  1  0.02776082  0.41754141  0.62443963  1  0  -0.378156  0  3.224111  0  0  -0.311339  0  3.508249  0  0  -0.329625  0  3.525421  0  0  -0.352617  -0.298788  0  3.495944  0
N  N116  1  0.02775592  0.91754079  0.87556054  1  0  -0.37818  0  3.224123  0  0  -0.311368  0  3.508263  0  0  -0.329653  0  3.525435  0  0  -0.352651  -0.298816  0  3.495956  0
N  N117  1  0.97224292  0.58246138  0.37556042  1  0  -0.378177  0  3.224148  0  0  -0.311365  0  3.508281  0  0  -0.32965  0  3.525454  0  0  -0.352644  -0.298814  0  3.495975  0
N  N118  1  0.32830818  0.63767896  0.50179236  1  0  -0.754891  0  2.783948  0  0  -0.70721  0  3.066618  0  0  -0.731799  0  3.066406  0  0  -0.466684  -0.690407  0  3.066598  0
N  N119  1  0.67169012  0.86231914  0.00178937  1  0  -0.754909  0  2.783785  0  0  -0.707202  0  3.066372  0  0  -0.73179  0  3.066161  0  0  -0.466684  -0.690394  0  3.06635  0
N  N120  1  0.67168948  0.36231900  0.49821153  1  0  -0.754886  0  2.783783  0  0  -0.707169  0  3.066345  0  0  -0.731759  0  3.066133  0  0  -0.466646  -0.690362  0  3.066324  0
N  N121  1  0.32831215  0.13767765  0.99820684  1  0  -0.754867  0  2.78401  0  0  -0.707174  0  3.066647  0  0  -0.731761  0  3.066438  0  0  -0.466702  -0.690368  0  3.066625  0
O  O122  1  0.53643553  0.78621282  0.40420539  1  0  -0.535263  0  2.038583  0  0  -0.486053  0  2.253546  0  0  -0.507405  0  2.246086  0  0  -0.285717  -0.471207  0  2.25803  0
O  O123  1  0.46356345  0.71379289  0.90419999  1  0  -0.535126  0  2.038682  0  0  -0.485974  0  2.253686  0  0  -0.507323  0  2.246221  0  0  -0.285665  -0.47114  0  2.258194  0
O  O124  1  0.46355954  0.21378513  0.59580014  1  0  -0.535259  0  2.038655  0  0  -0.486097  0  2.253655  0  0  -0.507448  0  2.246187  0  0  -0.28574  -0.471262  0  2.258168  0
O  O125  1  0.53643126  0.28620147  0.09579952  1  0  -0.535105  0  2.038607  0  0  -0.485907  0  2.253591  0  0  -0.507261  0  2.246129  0  0  -0.285593  -0.471067  0  2.258087  0
