# generated using pymatgen
data_H12PbC22(NO)4
_symmetry_space_group_name_H-M   'P 1'
_cell_length_a   7.34835804
_cell_length_b   12.06156229
_cell_length_c   12.54972489
_cell_angle_alpha   113.60054439
_cell_angle_beta   100.16106821
_cell_angle_gamma   91.82013993
_symmetry_Int_Tables_number   1
_chemical_formula_structural   H12PbC22(NO)4
_chemical_formula_sum   'H24 Pb2 C44 N8 O8'
_cell_volume   996.80841746
_cell_formula_units_Z   2
loop_
 _symmetry_equiv_pos_site_id
 _symmetry_equiv_pos_as_xyz
  1  'x, y, z'
loop_
 _atom_site_type_symbol
 _atom_site_label
 _atom_site_symmetry_multiplicity
 _atom_site_fract_x
 _atom_site_fract_y
 _atom_site_fract_z
 _atom_site_occupancy
 _atom_site_hle17_bader_spin_density
 _atom_site_hle17_ddec_charge
 _atom_site_hle17_ddec_spin_density
 _atom_site_hle17_ddec_sum_bond_order
 _atom_site_hle17_magmom
 _atom_site_hse06_10hf_bader_spin_density
 _atom_site_hse06_10hf_ddec_charge
 _atom_site_hse06_10hf_ddec_spin_density
 _atom_site_hse06_10hf_ddec_sum_bond_order
 _atom_site_hse06_10hf_magmom
 _atom_site_hse06_bader_spin_density
 _atom_site_hse06_ddec_charge
 _atom_site_hse06_ddec_spin_density
 _atom_site_hse06_ddec_sum_bond_order
 _atom_site_hse06_magmom
 _atom_site_pbe_bader_spin_density
 _atom_site_pbe_cm5_charge
 _atom_site_pbe_ddec_charge
 _atom_site_pbe_ddec_spin_density
 _atom_site_pbe_ddec_sum_bond_order
 _atom_site_pbe_magmom
H  H0  1  0.74897947  0.17002583  0.18201306  1  0  0.085995  0  0.935222  0  0  0.094461  0  0.995775  0  0  0.096968  0  0.993608  0  0  0.121289  0.0926  0  0.997374  0
H  H1  1  0.25110283  0.82996305  0.81798113  1  0  0.08582  0  0.935433  0  0  0.094335  0  0.995925  0  0  0.09684  0  0.993758  0  0  0.121265  0.092477  0  0.997515  0
H  H2  1  0.80182520  0.04588843  0.97607358  1  0  0.110332  0  0.931626  0  0  0.12416  0  0.979694  0  0  0.127264  0  0.979503  0  0  0.115109  0.121922  0  0.980004  0
H  H3  1  0.19840219  0.95412058  0.02393409  1  0  0.109864  0  0.931878  0  0  0.123867  0  0.979821  0  0  0.126976  0  0.979621  0  0  0.114904  0.121635  0  0.980133  0
H  H4  1  0.82048257  0.15142709  0.84029798  1  0  0.101802  0  0.977989  0  0  0.109761  0  1.043465  0  0  0.111933  0  1.042721  0  0  0.108264  0.108176  0  1.043997  0
H  H5  1  0.17958149  0.84856430  0.15968448  1  0  0.101557  0  0.978179  0  0  0.109498  0  1.0437  0  0  0.111667  0  1.042952  0  0  0.108217  0.107917  0  1.044229  0
H  H6  1  0.64684740  0.73269735  0.37571561  1  0  0.078231  0  0.963821  0  0  0.082759  0  1.035473  0  0  0.084662  0  1.034455  0  0  0.11335  0.08127  0  1.036328  0
H  H7  1  0.35294667  0.26724566  0.62422732  1  0  0.078099  0  0.963691  0  0  0.082602  0  1.035447  0  0  0.08451  0  1.03443  0  0  0.11322  0.081108  0  1.036301  0
H  H8  1  0.66516182  0.85839174  0.25813297  1  0  0.105101  0  0.940855  0  0  0.121082  0  0.990149  0  0  0.123159  0  0.990756  0  0  0.112386  0.119573  0  0.989876  0
H  H9  1  0.33497646  0.14161137  0.74189288  1  0  0.105038  0  0.940856  0  0  0.120974  0  0.990221  0  0  0.123055  0  0.990824  0  0  0.112357  0.119465  0  0.989945  0
H  H10  1  0.72139659  0.75377962  0.04892779  1  0  0.112555  0  0.925407  0  0  0.121968  0  0.984069  0  0  0.125851  0  0.980627  0  0  0.116106  0.119114  0  0.986578  0
H  H11  1  0.27875956  0.24623645  0.95111567  1  0  0.112721  0  0.925373  0  0  0.122107  0  0.984013  0  0  0.126003  0  0.980578  0  0  0.116166  0.119251  0  0.986523  0
H  H12  1  0.82118899  0.33983420  0.62342162  1  0  0.091545  0  0.935127  0  0  0.098903  0  0.997569  0  0  0.101656  0  0.995885  0  0  0.117858  0.096867  0  0.998908  0
H  H13  1  0.17880780  0.66016851  0.37656031  1  0  0.091448  0  0.935169  0  0  0.098898  0  0.997543  0  0  0.101642  0  0.995881  0  0  0.117778  0.09686  0  0.998884  0
H  H14  1  0.80402855  0.56785808  0.70707026  1  0  0.105435  0  0.964159  0  0  0.109214  0  1.030146  0  0  0.112627  0  1.028037  0  0  0.118577  0.106639  0  1.03195  0
H  H15  1  0.19582605  0.43212989  0.29288853  1  0  0.105545  0  0.964288  0  0  0.109369  0  1.030169  0  0  0.112781  0  1.02807  0  0  0.118627  0.106797  0  1.031969  0
H  H16  1  0.55793241  0.09050169  0.38673562  1  0  0.10592  0  0.954112  0  0  0.114478  0  1.018476  0  0  0.118612  0  1.01552  0  0  0.101394  0.111472  0  1.02071  0
H  H17  1  0.44214516  0.90958854  0.61346589  1  0  0.105947  0  0.953724  0  0  0.114417  0  1.018192  0  0  0.118544  0  1.015243  0  0  0.101416  0.111407  0  1.020429  0
H  H18  1  0.40818788  0.89451584  0.37472484  1  0  0.085536  0  0.963488  0  0  0.094575  0  1.029144  0  0  0.097288  0  1.027945  0  0  0.098327  0.092636  0  1.030049  0
H  H19  1  0.59192667  0.10557246  0.62543121  1  0  0.085434  0  0.963796  0  0  0.094415  0  1.02944  0  0  0.097119  0  1.028269  0  0  0.098269  0.092478  0  1.030338  0
H  H20  1  0.07203697  0.87072584  0.37310474  1  0  0.091629  0  0.963959  0  0  0.099021  0  1.030671  0  0  0.102121  0  1.029641  0  0  0.097186  0.096818  0  1.03151  0
H  H21  1  0.92798489  0.12926317  0.62684297  1  0  0.091555  0  0.96389  0  0  0.098989  0  1.030554  0  0  0.102087  0  1.029524  0  0  0.097204  0.096793  0  1.031382  0
H  H22  1  0.88426545  0.04397191  0.38641363  1  0  0.090114  0  0.971411  0  0  0.097476  0  1.039482  0  0  0.101132  0  1.036686  0  0  0.097283  0.094869  0  1.041471  0
H  H23  1  0.11571755  0.95600538  0.61346017  1  0  0.090111  0  0.971237  0  0  0.097479  0  1.039309  0  0  0.101131  0  1.036508  0  0  0.097249  0.094872  0  1.041295  0
Pb  Pb24  1  0.71411299  0.44735375  0.38861920  1  0  1.290769  0  1.42506  0  0  1.095923  0  1.816988  0  0  1.159515  0  1.775743  0  0  0.630031  1.050217  0  1.8457  0
Pb  Pb25  1  0.28580206  0.55266653  0.61135939  1  0  1.290888  0  1.42488  0  0  1.096084  0  1.816755  0  0  1.159677  0  1.77551  0  0  0.630101  1.05037  0  1.845463  0
C  C26  1  0.75783036  0.21122670  0.11953641  1  0  0.154335  0  3.693528  0  0  0.12335  0  3.945424  0  0  0.131312  0  3.962997  0  0  0.065507  0.118166  0  3.933371  0
C  C27  1  0.24220767  0.78875722  0.88044101  1  0  0.154603  0  3.693368  0  0  0.123556  0  3.945379  0  0  0.131526  0  3.962947  0  0  0.065715  0.118369  0  3.933333  0
C  C28  1  0.78747511  0.14268649  0.00493667  1  0  -0.122399  0  3.735823  0  0  -0.131156  0  3.979453  0  0  -0.138677  0  4.00085  0  0  -0.077438  -0.126286  0  3.964944  0
C  C29  1  0.21265289  0.85730452  0.99505818  1  0  -0.121981  0  3.736041  0  0  -0.130907  0  3.97965  0  0  -0.138438  0  4.001052  0  0  -0.077388  -0.126043  0  3.965154  0
C  C30  1  0.79745172  0.20026830  0.92999361  1  0  -0.020191  0  3.677003  0  0  -0.045734  0  3.924232  0  0  -0.042815  0  3.942431  0  0  -0.057527  -0.047336  0  3.911688  0
C  C31  1  0.20257662  0.79972374  0.06998769  1  0  -0.019998  0  3.676901  0  0  -0.045463  0  3.924105  0  0  -0.042532  0  3.942305  0  0  -0.057473  -0.04707  0  3.911574  0
C  C32  1  0.77563250  0.32501944  0.96995499  1  0  -0.036988  0  3.745398  0  0  -0.026559  0  3.982634  0  0  -0.031156  0  4.006599  0  0  0.001283  -0.023659  0  3.966573  0
C  C33  1  0.22433851  0.67495944  0.03001648  1  0  -0.037135  0  3.745628  0  0  -0.026829  0  3.983087  0  0  -0.03144  0  4.007062  0  0  0.001212  -0.023928  0  3.967032  0
C  C34  1  0.74698817  0.38751140  0.08720510  1  0  0.143535  0  3.743327  0  0  0.131431  0  3.993871  0  0  0.136989  0  4.014714  0  0  0.123666  0.127758  0  3.979647  0
C  C35  1  0.25292904  0.61245891  0.91275938  1  0  0.14335  0  3.743202  0  0  0.131139  0  3.993852  0  0  0.136701  0  4.014697  0  0  0.123624  0.127464  0  3.979633  0
C  C36  1  0.72520040  0.51734102  0.13229159  1  0  0.140712  0  3.759867  0  0  0.128177  0  4.012406  0  0  0.133694  0  4.033395  0  0  0.120055  0.124545  0  3.99807  0
C  C37  1  0.27472173  0.48262390  0.86767523  1  0  0.140796  0  3.760218  0  0  0.128477  0  4.012483  0  0  0.133986  0  4.033454  0  0  0.120084  0.124839  0  3.998162  0
C  C38  1  0.67440723  0.69263455  0.28603438  1  0  0.145626  0  3.704142  0  0  0.114398  0  3.963011  0  0  0.121988  0  3.981096  0  0  0.057754  0.109535  0  3.950618  0
C  C39  1  0.32548116  0.30733646  0.71392955  1  0  0.145889  0  3.703318  0  0  0.114569  0  3.962334  0  0  0.122171  0  3.980384  0  0  0.057827  0.109712  0  3.949929  0
C  C40  1  0.68372890  0.76205139  0.21976443  1  0  -0.109977  0  3.717325  0  0  -0.12102  0  3.968532  0  0  -0.128162  0  3.990303  0  0  -0.077448  -0.116403  0  3.953762  0
C  C41  1  0.31631593  0.23794380  0.78025693  1  0  -0.109944  0  3.717477  0  0  -0.120933  0  3.968709  0  0  -0.128076  0  3.990483  0  0  -0.077529  -0.116322  0  3.953933  0
C  C42  1  0.71410409  0.70541312  0.10540463  1  0  -0.02134  0  3.671611  0  0  -0.050746  0  3.926127  0  0  -0.047261  0  3.942263  0  0  -0.058307  -0.05268  0  3.914983  0
C  C43  1  0.28598459  0.29458590  0.89460513  1  0  -0.021708  0  3.672587  0  0  -0.051086  0  3.92701  0  0  -0.047645  0  3.943192  0  0  -0.058361  -0.053023  0  3.915869  0
C  C44  1  0.73464504  0.58031399  0.05894192  1  0  -0.040311  0  3.748846  0  0  -0.029526  0  3.988304  0  0  -0.033721  0  4.011773  0  0  -0.000907  -0.026945  0  3.972618  0
C  C45  1  0.26531780  0.41966931  0.94102099  1  0  -0.040132  0  3.749039  0  0  -0.029433  0  3.988308  0  0  -0.033602  0  4.011737  0  0  -0.000996  -0.026858  0  3.972629  0
C  C46  1  0.76363968  0.51576792  0.93869817  1  0  0.11483  0  3.792431  0  0  0.108381  0  4.046919  0  0  0.110728  0  4.068288  0  0  0.113131  0.106721  0  4.03259  0
C  C47  1  0.23628812  0.48420080  0.06128652  1  0  0.114565  0  3.792745  0  0  0.10833  0  4.04689  0  0  0.110682  0  4.068238  0  0  0.113366  0.106672  0  4.032559  0
C  C48  1  0.78149479  0.38967849  0.89430616  1  0  0.116819  0  3.789609  0  0  0.111466  0  4.040814  0  0  0.114067  0  4.062819  0  0  0.114326  0.109619  0  4.02607  0
C  C49  1  0.21846451  0.61031858  0.10568243  1  0  0.11696  0  3.79  0  0  0.111589  0  4.04112  0  0  0.114198  0  4.063118  0  0  0.114367  0.109742  0  4.026373  0
C  C50  1  0.80857879  0.39024006  0.71564306  1  0  0.093051  0  3.669888  0  0  0.067717  0  3.933614  0  0  0.070949  0  3.949049  0  0  0.059868  0.065514  0  3.92325  0
C  C51  1  0.19138818  0.60973061  0.28432494  1  0  0.092817  0  3.669667  0  0  0.067431  0  3.933313  0  0  0.070634  0  3.948801  0  0  0.059844  0.065243  0  3.922935  0
C  C52  1  0.79553453  0.51671407  0.76110782  1  0  0.084328  0  3.65755  0  0  0.058704  0  3.925066  0  0  0.06104  0  3.939777  0  0  0.058436  0.057071  0  3.915287  0
C  C53  1  0.20434901  0.48328338  0.23887775  1  0  0.084043  0  3.657563  0  0  0.058386  0  3.925189  0  0  0.060718  0  3.939878  0  0  0.058191  0.056746  0  3.915441  0
C  C54  1  0.40887601  0.28826413  0.40164031  1  0  0.66805  0  3.920402  0  0  0.612384  0  4.219357  0  0  0.648751  0  4.209522  0  0  0.210242  0.587511  0  4.225185  0
C  C55  1  0.59115340  0.71178207  0.59842475  1  0  0.667775  0  3.919955  0  0  0.612219  0  4.218764  0  0  0.648598  0  4.208948  0  0  0.210206  0.587336  0  4.224595  0
C  C56  1  0.30424530  0.17427182  0.39174388  1  0  -0.030715  0  3.697918  0  0  -0.016356  0  3.930176  0  0  -0.017345  0  3.947301  0  0  -0.004457  -0.015819  0  3.918884  0
C  C57  1  0.69576466  0.82576318  0.60829614  1  0  -0.03093  0  3.698532  0  0  -0.016612  0  3.930814  0  0  -0.017604  0  3.947954  0  0  -0.004663  -0.016063  0  3.9195  0
C  C58  1  0.40970477  0.07777610  0.38553744  1  0  -0.108096  0  3.731992  0  0  -0.128321  0  3.979568  0  0  -0.131802  0  3.99877  0  0  -0.093751  -0.125997  0  3.96664  0
C  C59  1  0.59034263  0.92226062  0.61457494  1  0  -0.107966  0  3.731423  0  0  -0.128086  0  3.978994  0  0  -0.131569  0  3.9982  0  0  -0.093661  -0.125764  0  3.966061  0
C  C60  1  0.32648232  0.96951616  0.37963507  1  0  -0.057021  0  3.787901  0  0  -0.073415  0  4.043896  0  0  -0.072751  0  4.063123  0  0  -0.089533  -0.073608  0  4.030646  0
C  C61  1  0.67357390  0.03052943  0.62044316  1  0  -0.057017  0  3.787792  0  0  -0.073361  0  4.043792  0  0  -0.072701  0  4.063014  0  0  -0.08944  -0.073557  0  4.030549  0
C  C62  1  0.13672395  0.95608506  0.37929258  1  0  -0.08592  0  3.793798  0  0  -0.100728  0  4.049424  0  0  -0.103635  0  4.069549  0  0  -0.098059  -0.098881  0  4.035778  0
C  C63  1  0.86327518  0.04391495  0.62068851  1  0  -0.085764  0  3.793821  0  0  -0.100596  0  4.049458  0  0  -0.1035  0  4.069579  0  0  -0.098076  -0.098761  0  4.035822  0
C  C64  1  0.03191238  0.05157686  0.38534593  1  0  -0.077613  0  3.768337  0  0  -0.099936  0  4.016825  0  0  -0.09959  0  4.037  0  0  -0.091551  -0.09993  0  4.003106  0
C  C65  1  0.96808177  0.94840374  0.61459385  1  0  -0.077658  0  3.768328  0  0  -0.099982  0  4.016853  0  0  -0.099617  0  4.037022  0  0  -0.091541  -0.099974  0  4.003137  0
C  C66  1  0.11341832  0.16166836  0.39205983  1  0  -0.095182  0  3.745963  0  0  -0.080302  0  3.978814  0  0  -0.08794  0  4.00041  0  0  -0.024472  -0.075492  0  3.964448  0
C  C67  1  0.88659726  0.83833905  0.60792707  1  0  -0.09512  0  3.745673  0  0  -0.080237  0  3.978628  0  0  -0.087898  0  4.000262  0  0  -0.024439  -0.07543  0  3.964262  0
C  C68  1  0.99460969  0.26274967  0.40061805  1  0  0.628942  0  3.957888  0  0  0.577813  0  4.253673  0  0  0.61269  0  4.247652  0  0  0.198589  0.55419  0  4.256736  0
C  C69  1  0.00538715  0.73725128  0.59936879  1  0  0.629198  0  3.958303  0  0  0.577978  0  4.25421  0  0  0.612857  0  4.248196  0  0  0.198669  0.554361  0  4.257283  0
N  N70  1  0.73960264  0.32982423  0.15961455  1  0  -0.340167  0  3.166493  0  0  -0.27597  0  3.420491  0  0  -0.295026  0  3.440977  0  0  -0.284827  -0.262881  0  3.406325  0
N  N71  1  0.26038174  0.67014560  0.84034741  1  0  -0.339834  0  3.165827  0  0  -0.275619  0  3.419884  0  0  -0.294676  0  3.440364  0  0  -0.284737  -0.262527  0  3.405715  0
N  N72  1  0.69537471  0.57436489  0.24401031  1  0  -0.369594  0  3.180908  0  0  -0.309053  0  3.438944  0  0  -0.32819  0  3.460755  0  0  -0.295533  -0.295937  0  3.423943  0
N  N73  1  0.30443361  0.42558095  0.75593490  1  0  -0.369733  0  3.181066  0  0  -0.309283  0  3.439187  0  0  -0.328414  0  3.460972  0  0  -0.295516  -0.296172  0  3.424187  0
N  N74  1  0.77308261  0.57886059  0.87147747  1  0  -0.276315  0  3.03211  0  0  -0.251786  0  3.30522  0  0  -0.258509  0  3.31867  0  0  -0.295215  -0.247023  0  3.296072  0
N  N75  1  0.22680706  0.42112129  0.12848354  1  0  -0.275903  0  3.032254  0  0  -0.251418  0  3.305254  0  0  -0.258133  0  3.318709  0  0  -0.295054  -0.246657  0  3.296108  0
N  N76  1  0.80340804  0.32750717  0.78146921  1  0  -0.297371  0  3.074688  0  0  -0.263599  0  3.342927  0  0  -0.273349  0  3.360611  0  0  -0.295205  -0.256778  0  3.330877  0
N  N77  1  0.19657156  0.67247164  0.21848462  1  0  -0.297212  0  3.07448  0  0  -0.263462  0  3.342807  0  0  -0.273209  0  3.360499  0  0  -0.29524  -0.256644  0  3.330761  0
O  O78  1  0.43056229  0.29467762  0.30595004  1  0  -0.614327  0  1.929591  0  0  -0.555534  0  2.159217  0  0  -0.584202  0  2.150084  0  0  -0.299057  -0.535202  0  2.164714  0
O  O79  1  0.56938779  0.70539895  0.69412394  1  0  -0.614011  0  1.928938  0  0  -0.55524  0  2.158454  0  0  -0.58391  0  2.149319  0  0  -0.298899  -0.534911  0  2.163942  0
O  O80  1  0.48583345  0.36595967  0.50597744  1  0  -0.697156  0  1.980229  0  0  -0.625803  0  2.218625  0  0  -0.658529  0  2.21282  0  0  -0.307321  -0.602444  0  2.22177  0
O  O81  1  0.51425003  0.63402796  0.49408733  1  0  -0.69731  0  1.979744  0  0  -0.626213  0  2.218596  0  0  -0.658839  0  2.21256  0  0  -0.307577  -0.602853  0  2.221748  0
O  O82  1  0.06991797  0.36401638  0.40921536  1  0  -0.704633  0  2.030501  0  0  -0.630316  0  2.263921  0  0  -0.662428  0  2.258893  0  0  -0.307918  -0.607622  0  2.266682  0
O  O83  1  0.93010001  0.63601401  0.59080762  1  0  -0.70461  0  2.031173  0  0  -0.630234  0  2.264626  0  0  -0.662357  0  2.259601  0  0  -0.307922  -0.607503  0  2.267271  0
O  O84  1  0.82210361  0.24297304  0.39814539  1  0  -0.63991  0  1.949207  0  0  -0.581694  0  2.182322  0  0  -0.609891  0  2.17466  0  0  -0.311436  -0.561832  0  2.186719  0
O  O85  1  0.17788015  0.75703414  0.60183875  1  0  -0.640022  0  1.949362  0  0  -0.58176  0  2.182503  0  0  -0.60996  0  2.174833  0  0  -0.31142  -0.5619  0  2.186895  0
