# generated using pymatgen
data_NiH10C16(NO)4
_symmetry_space_group_name_H-M   'P 1'
_cell_length_a   8.41408936
_cell_length_b   15.01783056
_cell_length_c   15.01782428
_cell_angle_alpha   89.99994864
_cell_angle_beta   89.99992597
_cell_angle_gamma   89.99993600
_symmetry_Int_Tables_number   1
_chemical_formula_structural   NiH10C16(NO)4
_chemical_formula_sum   'Ni4 H40 C64 N16 O16'
_cell_volume   1897.67282438
_cell_formula_units_Z   4
loop_
 _symmetry_equiv_pos_site_id
 _symmetry_equiv_pos_as_xyz
  1  'x, y, z'
loop_
 _atom_site_type_symbol
 _atom_site_label
 _atom_site_symmetry_multiplicity
 _atom_site_fract_x
 _atom_site_fract_y
 _atom_site_fract_z
 _atom_site_occupancy
 _atom_site_hle17_ddec_charge
 _atom_site_hle17_ddec_spin_density
 _atom_site_hle17_ddec_sum_bond_order
 _atom_site_hle17_magmom
 _atom_site_hse06_10hf_bader_charge
 _atom_site_hse06_10hf_bader_spin_density
 _atom_site_hse06_10hf_ddec_charge
 _atom_site_hse06_10hf_ddec_spin_density
 _atom_site_hse06_10hf_ddec_sum_bond_order
 _atom_site_hse06_10hf_magmom
 _atom_site_hse06_ddec_charge
 _atom_site_hse06_ddec_spin_density
 _atom_site_hse06_ddec_sum_bond_order
 _atom_site_hse06_magmom
 _atom_site_pbe_cm5_charge
 _atom_site_pbe_ddec_charge
 _atom_site_pbe_ddec_spin_density
 _atom_site_pbe_ddec_sum_bond_order
 _atom_site_pbe_magmom
Ni  Ni0  1  0.99999959  0.74450600  0.74450565  1  0.777732  1.75016  2.054884  1.486  1.189635  1.633527  0.775955  1.812532  2.466838  1.611  0.881645  1.869395  2.378206  1.704  0.629557  0.698883  1.762167  2.530902  1.532
Ni  Ni1  1  0.50000009  0.25549402  0.25549477  1  0.777718  1.750156  2.054902  1.486  1.189631  1.63353  0.77593  1.812533  2.466856  1.611  0.881622  1.869397  2.378225  1.704  0.629556  0.698851  1.762164  2.530931  1.532
Ni  Ni2  1  0.74999813  0.75549426  0.24450551  1  0.777764  1.750155  2.054877  1.486  1.189648  1.633525  0.775975  1.812528  2.466823  1.611  0.881664  1.8694  2.378198  1.704  0.629558  0.698905  1.762167  2.530886  1.532
Ni  Ni3  1  0.25000337  0.24450627  0.75549406  1  0.777721  1.750159  2.054905  1.486  1.189534  1.633523  0.775951  1.812531  2.466849  1.611  0.881632  1.869404  2.378239  1.704  0.62956  0.698887  1.762174  2.530886  1.532
H  H4  1  0.80296688  0.71999614  0.92115013  1  0.09346  0.00011  0.937086  0.001  0.177646  0.000702  0.103254  0.000109  0.99934  0.0  0.105753  5.2e-05  0.995119  0.0  0.141601  0.101211  0.000166  1.002629  0.001
H  H5  1  0.30297003  0.28000236  0.07884940  1  0.093473  0.000109  0.937087  0.001  0.177647  0.000702  0.103264  0.000109  0.999348  0.0  0.105764  5.2e-05  0.995126  0.0  0.141612  0.10122  0.000166  1.002634  0.001
H  H6  1  0.55296810  0.57884965  0.21999612  1  0.093438  0.000109  0.937098  0.001  0.17765  0.000702  0.103229  0.000109  0.999366  0.0  0.105731  5.2e-05  0.995139  0.0  0.141584  0.101185  0.000166  1.002653  0.001
H  H7  1  0.05297174  0.42115101  0.78000559  1  0.093492  0.00011  0.937094  0.001  0.177661  0.000702  0.103268  0.000109  0.999376  0.0  0.105772  5.2e-05  0.995146  0.0  0.141595  0.101225  0.000166  1.002666  0.001
H  H8  1  0.94702814  0.78000232  0.42114953  1  0.093458  0.000109  0.937079  0.001  0.177664  0.000702  0.103239  0.000109  0.999359  0.0  0.105741  5.2e-05  0.99513  0.0  0.141603  0.101199  0.000166  1.002649  0.001
H  H9  1  0.44703264  0.21999742  0.57884923  1  0.093472  0.000109  0.937092  0.001  0.177646  0.000702  0.103264  0.000109  0.999346  0.0  0.105764  5.2e-05  0.995123  0.0  0.141616  0.101224  0.000166  1.002635  0.001
H  H10  1  0.19703206  0.92115064  0.71999662  1  0.093425  0.00011  0.937121  0.001  0.177648  0.000702  0.103222  0.000109  0.999374  0.0  0.105721  5.2e-05  0.995153  0.0  0.141605  0.10118  0.000166  1.002663  0.001
H  H11  1  0.69703166  0.07884859  0.28000232  1  0.093441  0.000109  0.937109  0.001  0.177657  0.000702  0.103239  0.000109  0.99936  0.0  0.105738  5.2e-05  0.995139  0.0  0.141617  0.101199  0.000166  1.002649  0.001
H  H12  1  0.91138361  0.72965301  0.07544036  1  0.333064  -0.000398  0.884627  0.0  0.556739  6.5e-05  0.312318  -0.000201  0.94832  0.0  0.320079  -0.000247  0.94197  0.0  0.327249  0.306515  -0.000127  0.953369  0.0
H  H13  1  0.41138603  0.27034676  0.92455909  1  0.333115  -0.000397  0.884564  0.0  0.556604  6.6e-05  0.312366  -0.000201  0.948266  0.0  0.320128  -0.000247  0.941915  0.0  0.327256  0.306564  -0.000127  0.953301  0.0
H  H14  1  0.66138402  0.42455968  0.22965268  1  0.333082  -0.000397  0.884595  0.0  0.556599  6.5e-05  0.312336  -0.000201  0.948293  0.0  0.320098  -0.000248  0.941943  0.0  0.327248  0.306532  -0.000127  0.953339  0.0
H  H15  1  0.16138618  0.57544091  0.77034696  1  0.333102  -0.000398  0.884561  0.0  0.5566  6.5e-05  0.312363  -0.000201  0.948258  0.0  0.320124  -0.000247  0.941908  0.0  0.327261  0.306558  -0.000127  0.953304  0.0
H  H16  1  0.83861220  0.77034710  0.57543956  1  0.333124  -0.000397  0.884581  0.0  0.556638  6.5e-05  0.312369  -0.000202  0.948287  0.0  0.320131  -0.000248  0.941937  0.0  0.327263  0.306567  -0.000127  0.953331  0.0
H  H17  1  0.33861585  0.22965271  0.42455994  1  0.333105  -0.000398  0.884576  0.0  0.556607  6.5e-05  0.312357  -0.000201  0.948274  0.0  0.320119  -0.000247  0.941923  0.0  0.327253  0.306553  -0.000127  0.953323  0.0
H  H18  1  0.08861593  0.07544063  0.72965356  1  0.333092  -0.000398  0.884615  0.0  0.556593  6.5e-05  0.31234  -0.000201  0.948313  0.0  0.320102  -0.000247  0.941962  0.0  0.327242  0.306534  -0.000127  0.953358  0.0
H  H19  1  0.58861624  0.92455867  0.27034679  1  0.333072  -0.000397  0.884608  0.0  0.556583  6.5e-05  0.312329  -0.000201  0.948303  0.0  0.320091  -0.000247  0.941952  0.0  0.327244  0.306527  -0.000127  0.953349  0.0
H  H20  1  0.23444276  0.73826428  0.15253300  1  0.118164  0.000672  0.971126  0.0  0.106998  0.000928  0.123586  0.000566  1.043  0.0  0.127564  0.000376  1.039488  0.0  0.10699  0.1207  0.000763  1.045464  0.0
H  H21  1  0.73444664  0.26173759  0.84746658  1  0.118182  0.00067  0.971086  0.0  0.106846  0.000928  0.12361  0.000566  1.042953  0.0  0.127588  0.000376  1.03944  0.0  0.107001  0.120721  0.000763  1.045414  0.0
H  H22  1  0.98444341  0.34746588  0.23826503  1  0.11816  0.000672  0.971092  0.0  0.106497  0.000929  0.12359  0.000566  1.042961  0.0  0.127566  0.000376  1.039451  0.0  0.106985  0.120712  0.000763  1.045405  0.0
H  H23  1  0.48444425  0.65253450  0.76173437  1  0.118176  0.000673  0.971062  0.0  0.106489  0.000929  0.123613  0.000566  1.042925  0.0  0.12759  0.000376  1.039415  0.0  0.106995  0.120733  0.000763  1.045373  0.0
H  H24  1  0.51555280  0.76173740  0.65253274  1  0.118191  0.000671  0.971105  0.0  0.106865  0.000928  0.123618  0.000566  1.042966  0.0  0.127596  0.000376  1.039454  0.0  0.106994  0.120737  0.000763  1.045421  0.0
H  H25  1  0.01555660  0.23826328  0.34746766  1  0.118181  0.000671  0.971113  0.0  0.106858  0.000928  0.123602  0.000566  1.04298  0.0  0.12758  0.000376  1.039469  0.0  0.107007  0.120703  0.000763  1.045459  0.0
H  H26  1  0.76555778  0.15253344  0.73826438  1  0.118161  0.000673  0.971121  0.0  0.106503  0.000929  0.123598  0.000566  1.042972  0.0  0.127576  0.000376  1.039461  0.0  0.106991  0.120701  0.000763  1.045448  0.0
H  H27  1  0.26555701  0.84746575  0.26173651  1  0.118168  0.000671  0.971123  0.0  0.106491  0.000928  0.123612  0.000566  1.042957  0.0  0.127589  0.000376  1.039447  0.0  0.107006  0.120727  0.000763  1.045421  0.0
H  H28  1  0.57884272  0.78243598  0.94424208  1  0.092626  0.000217  0.968248  0.0  0.073356  0.000292  0.102176  0.000203  1.033158  0.0  0.105288  0.000128  1.030928  0.0  0.099427  0.099787  0.000285  1.034983  0.0
H  H29  1  0.07884604  0.21756600  0.05575828  1  0.092654  0.000216  0.968209  0.0  0.073316  0.000292  0.102227  0.000203  1.0331  0.0  0.105359  0.000128  1.030844  0.0  0.099449  0.099837  0.000285  1.034923  0.0
H  H30  1  0.32884398  0.55575714  0.28243668  1  0.092681  0.000217  0.968219  0.0  0.073344  0.000292  0.102241  0.000203  1.033118  0.0  0.105334  0.000129  1.030909  0.0  0.099439  0.099853  0.000285  1.034942  0.0
H  H31  1  0.82884898  0.44424334  0.71756350  1  0.09265  0.000218  0.968204  0.0  0.073291  0.000292  0.102255  0.000203  1.03307  0.0  0.105369  0.000128  1.030839  0.0  0.099464  0.099868  0.000285  1.0349  0.0
H  H32  1  0.17115218  0.71756477  0.44424106  1  0.092641  0.000216  0.968246  0.0  0.073287  0.000292  0.102258  0.000203  1.0331  0.0  0.105356  0.000128  1.030884  0.0  0.099465  0.099869  0.000285  1.034929  0.0
H  H33  1  0.67115549  0.28243314  0.55575923  1  0.092655  0.000217  0.968235  0.0  0.073329  0.000292  0.102236  0.000203  1.033112  0.0  0.105338  0.000128  1.030894  0.0  0.099459  0.099849  0.000285  1.034938  0.0
H  H34  1  0.42115485  0.94424309  0.78243633  1  0.092586  0.000217  0.968243  0.0  0.073335  0.000292  0.102164  0.000203  1.033137  0.0  0.105278  0.000128  1.030905  0.0  0.099421  0.099777  0.000285  1.034962  0.0
H  H35  1  0.92115464  0.05575800  0.21756511  1  0.092648  0.000216  0.968221  0.0  0.073329  0.000292  0.102215  0.000203  1.033117  0.0  0.105327  0.000128  1.030886  0.0  0.099447  0.099827  0.000285  1.034942  0.0
H  H36  1  0.36727154  0.77285016  0.82702678  1  0.119592  0.000164  0.976058  0.0  0.131495  0.00036  0.129425  0.000136  1.038416  0.0  0.133103  5e-05  1.036126  0.0  0.105963  0.126704  0.000235  1.040171  0.0
H  H37  1  0.86727346  0.22714964  0.17297204  1  0.119619  0.000166  0.976006  0.0  0.131396  0.00036  0.129431  0.000136  1.038387  0.0  0.133108  5e-05  1.036096  0.0  0.10598  0.126708  0.000235  1.040141  0.0
H  H38  1  0.11727255  0.67297188  0.27285076  1  0.119645  0.000164  0.975988  0.0  0.13151  0.00036  0.129461  0.000136  1.038356  0.0  0.133139  5e-05  1.036066  0.0  0.105966  0.126739  0.000235  1.040115  0.0
H  H39  1  0.61727538  0.32702807  0.72714757  1  0.119593  0.000163  0.975976  0.0  0.131325  0.00036  0.129426  0.000136  1.038335  0.0  0.133103  5e-05  1.036044  0.0  0.10594  0.126704  0.000235  1.04009  0.0
H  H40  1  0.38272600  0.72715003  0.32702693  1  0.119625  0.000165  0.976027  0.0  0.131311  0.00036  0.129448  0.000136  1.038392  0.0  0.133125  5e-05  1.036102  0.0  0.105962  0.126727  0.000235  1.040144  0.0
H  H41  1  0.88272788  0.27284908  0.67297387  1  0.119597  0.000165  0.976054  0.0  0.131467  0.00036  0.129417  0.000136  1.038431  0.0  0.133094  5e-05  1.036141  0.0  0.105958  0.126698  0.000235  1.040178  0.0
H  H42  1  0.63272749  0.82702770  0.77285369  1  0.119623  0.000164  0.975915  0.0  0.131371  0.00036  0.12943  0.000136  1.038307  0.0  0.133107  5e-05  1.036015  0.0  0.105941  0.12671  0.000235  1.04006  0.0
H  H43  1  0.13272694  0.17297158  0.22714796  1  0.119626  0.000164  0.975911  0.0  0.131441  0.00036  0.129448  0.000136  1.038282  0.0  0.133125  5e-05  1.035991  0.0  0.105951  0.126725  0.000235  1.040034  0.0
C  C44  1  0.54960463  0.75834366  0.12129732  1  0.624535  -0.011779  3.886809  -0.01  1.563632  -0.002118  0.585117  -0.003643  4.179465  -0.004  0.622278  -0.003108  4.176166  -0.003  0.197367  0.558735  -0.004147  4.180834  -0.005
C  C45  1  0.04960959  0.24165833  0.87870173  1  0.624392  -0.011771  3.886824  -0.01  1.563427  -0.002117  0.584933  -0.003641  4.179538  -0.004  0.622091  -0.003108  4.176247  -0.003  0.197271  0.558548  -0.004147  4.18091  -0.005
C  C46  1  0.29960632  0.37870029  0.25834407  1  0.624566  -0.011784  3.886871  -0.01  1.563717  -0.002118  0.585147  -0.003644  4.179521  -0.004  0.622308  -0.003108  4.176223  -0.003  0.197364  0.558772  -0.004147  4.180872  -0.005
C  C47  1  0.79960734  0.62129888  0.74165680  1  0.624527  -0.011788  3.886913  -0.01  1.563611  -0.002119  0.585084  -0.003643  4.179586  -0.004  0.622244  -0.003107  4.176291  -0.003  0.19732  0.558702  -0.004147  4.180956  -0.005
C  C48  1  0.20039100  0.74165805  0.62129732  1  0.6244  -0.011784  3.886717  -0.01  1.563413  -0.002118  0.584967  -0.003642  4.179392  -0.004  0.622125  -0.003107  4.1761  -0.003  0.197277  0.558588  -0.004147  4.180762  -0.005
C  C49  1  0.70039358  0.25834185  0.37870362  1  0.624354  -0.011785  3.886623  -0.01  1.563628  -0.002118  0.584915  -0.003642  4.179316  -0.004  0.622074  -0.003106  4.176023  -0.003  0.197243  0.558536  -0.004147  4.180688  -0.005
C  C50  1  0.45039594  0.12129800  0.75834332  1  0.624569  -0.01178  3.886778  -0.01  1.563624  -0.002119  0.585163  -0.003643  4.179408  -0.004  0.622324  -0.003108  4.176108  -0.003  0.197402  0.558778  -0.004148  4.180787  -0.005
C  C51  1  0.95039284  0.87870108  0.24165743  1  0.624505  -0.011778  3.886937  -0.01  1.563622  -0.002117  0.585067  -0.00364  4.179612  -0.004  0.622227  -0.003107  4.176318  -0.003  0.197323  0.558688  -0.004147  4.180974  -0.005
C  C52  1  0.42009693  0.75816727  0.05410388  1  -0.070346  0.00365  3.799481  0.004  -0.059165  0.002681  -0.045904  0.001678  4.028389  0.002  -0.054836  0.001297  4.051715  0.001  -0.026083  -0.040379  0.002127  4.013409  0.002
C  C53  1  0.92010181  0.24183448  0.94589623  1  -0.070433  0.003617  3.799539  0.004  -0.059123  0.002676  -0.045986  0.001675  4.028481  0.002  -0.054917  0.001296  4.051811  0.001  -0.026172  -0.040462  0.002127  4.013509  0.002
C  C54  1  0.17009848  0.44589646  0.25816829  1  -0.070409  0.003642  3.799434  0.004  -0.059526  0.002697  -0.045959  0.001687  4.028353  0.002  -0.054889  0.001302  4.051673  0.001  -0.026126  -0.040436  0.002127  4.013371  0.002
C  C55  1  0.67010082  0.55410479  0.74183133  1  -0.070478  0.003658  3.799563  0.004  -0.059385  0.00269  -0.046008  0.001683  4.028472  0.002  -0.054939  0.001299  4.051798  0.001  -0.026139  -0.040481  0.002128  4.013483  0.002
C  C56  1  0.32989648  0.74183316  0.55410245  1  -0.07039  0.003625  3.799612  0.004  -0.059503  0.002682  -0.045961  0.001678  4.02856  0.002  -0.05489  0.001299  4.051883  0.001  -0.026151  -0.040443  0.002127  4.013593  0.002
C  C57  1  0.82990009  0.25816532  0.44589773  1  -0.070248  0.003641  3.799348  0.004  -0.059612  0.00269  -0.045828  0.001683  4.028298  0.002  -0.054759  0.001298  4.051623  0.001  -0.026089  -0.04031  0.002127  4.013333  0.002
C  C58  1  0.57990140  0.05410383  0.75816751  1  -0.070357  0.003652  3.799475  0.004  -0.059176  0.00269  -0.045917  0.001683  4.028388  0.002  -0.054849  0.001299  4.051715  0.001  -0.026097  -0.040393  0.002127  4.013416  0.002
C  C59  1  0.07990048  0.94589548  0.24183285  1  -0.070405  0.003631  3.799485  0.004  -0.059161  0.002678  -0.045968  0.001676  4.028429  0.002  -0.054899  0.001298  4.051753  0.001  -0.026146  -0.040442  0.002127  4.013448  0.002
C  C60  1  0.45601421  0.76913582  0.96267622  1  -0.074622  -0.003222  3.758935  -0.002  0.003972  -0.000295  -0.103125  -0.000558  4.012524  0.0  -0.102565  -0.000809  4.033934  0.0  -0.092295  -0.103402  -0.000503  3.998301  0.0
C  C61  1  0.95601881  0.23086592  0.03732320  1  -0.074712  -0.003158  3.758917  -0.002  0.003762  -0.000296  -0.10324  -0.00056  4.012498  0.0  -0.102697  -0.00081  4.033902  0.0  -0.092319  -0.10351  -0.000503  3.998277  0.0
C  C62  1  0.20601551  0.53732243  0.26913654  1  -0.074723  -0.003203  3.758995  -0.002  0.00433  -0.000296  -0.10324  -0.000559  4.012585  0.0  -0.102668  -0.000808  4.034003  0.0  -0.092311  -0.103516  -0.000503  3.998362  0.0
C  C63  1  0.70601925  0.46267746  0.73086240  1  -0.074694  -0.003234  3.758952  -0.002  0.004375  -0.000296  -0.103262  -0.000559  4.012552  0.0  -0.102706  -0.000809  4.033964  0.0  -0.092366  -0.103539  -0.000503  3.998331  0.0
C  C64  1  0.29397946  0.73086492  0.46267644  1  -0.074623  -0.003161  3.75896  -0.002  0.00411  -0.000296  -0.103188  -0.000559  4.012544  0.0  -0.102619  -0.00081  4.03396  0.0  -0.092308  -0.103457  -0.000503  3.998324  0.0
C  C65  1  0.79398284  0.26913359  0.53732509  1  -0.074714  -0.003203  3.75894  -0.002  0.004106  -0.000295  -0.103243  -0.000558  4.01253  0.0  -0.102676  -0.000808  4.033943  0.0  -0.092316  -0.103517  -0.000503  3.998315  0.0
C  C66  1  0.54398454  0.96267648  0.76913742  1  -0.074583  -0.003226  3.758912  -0.002  0.003971  -0.000296  -0.103114  -0.000559  4.012497  0.0  -0.102556  -0.00081  4.033909  0.0  -0.092286  -0.10339  -0.000503  3.998282  0.0
C  C67  1  0.04398307  0.03732285  0.23086364  1  -0.074688  -0.003184  3.758956  -0.002  0.003967  -0.000295  -0.103209  -0.000558  4.012552  0.0  -0.10265  -0.00081  4.033962  0.0  -0.092328  -0.103483  -0.000503  3.998329  0.0
C  C68  1  0.33979018  0.76463523  0.89726266  1  -0.144039  0.001711  3.736534  0.002  -0.014764  0.0014  -0.166444  0.000545  3.99169  0.001  -0.171545  0.000512  4.012274  0.001  -0.094087  -0.163006  0.000692  3.977907  0.001
C  C69  1  0.83979225  0.23536524  0.10273684  1  -0.144  0.001672  3.736507  0.002  -0.014551  0.001405  -0.166382  0.000547  3.991669  0.001  -0.171482  0.000513  4.012258  0.001  -0.094079  -0.162933  0.000692  3.977882  0.001
C  C70  1  0.08979016  0.60273671  0.26463657  1  -0.144065  0.0017  3.736486  0.002  -0.014774  0.001396  -0.166458  0.000542  3.991649  0.001  -0.171558  0.000509  4.012225  0.001  -0.09408  -0.163013  0.000692  3.977871  0.001
C  C71  1  0.58979283  0.39726392  0.73536312  1  -0.143965  0.001717  3.736456  0.002  -0.014791  0.001398  -0.166354  0.000543  3.991612  0.001  -0.171454  0.00051  4.012195  0.001  -0.094004  -0.162914  0.000692  3.977828  0.001
C  C72  1  0.41020601  0.73536556  0.39726213  1  -0.144044  0.001676  3.736613  0.002  -0.014573  0.001402  -0.166467  0.000546  3.991789  0.001  -0.171567  0.000511  4.012369  0.001  -0.094089  -0.163019  0.000692  3.978003  0.001
C  C73  1  0.91020806  0.26463287  0.60273799  1  -0.143993  0.001697  3.736637  0.002  -0.014577  0.001399  -0.166403  0.000544  3.991793  0.001  -0.171503  0.000511  4.012373  0.001  -0.09408  -0.16296  0.000692  3.978005  0.001
C  C74  1  0.66020990  0.89726354  0.76463742  1  -0.144096  0.001712  3.736467  0.002  -0.014808  0.001399  -0.166465  0.000544  3.99165  0.001  -0.171565  0.000511  4.012233  0.001  -0.094069  -0.163023  0.000692  3.977869  0.001
C  C75  1  0.16020948  0.10273572  0.23536355  1  -0.144051  0.001691  3.736447  0.002  -0.014736  0.001402  -0.16644  0.000546  3.991614  0.001  -0.171541  0.000511  4.012196  0.001  -0.094055  -0.162996  0.000692  3.977827  0.001
C  C76  1  0.18285102  0.74889931  0.92459358  1  0.1579  -0.001521  3.773749  0.0  0.355411  0.001249  0.16126  0.000723  4.017711  0.001  0.167587  8.8e-05  4.041703  0.001  0.093492  0.156929  0.001146  4.001574  0.002
C  C77  1  0.68285312  0.25110060  0.07540670  1  0.157902  -0.001476  3.773864  0.0  0.3554  0.001248  0.161204  0.000721  4.017832  0.001  0.16753  8.7e-05  4.041823  0.001  0.093455  0.156865  0.001145  4.001719  0.002
C  C78  1  0.93285232  0.57540627  0.24890097  1  0.157948  -0.001501  3.77375  0.0  0.355399  0.001252  0.16129  0.000725  4.017675  0.001  0.167618  9.1e-05  4.041666  0.001  0.093499  0.15695  0.001146  4.001561  0.002
C  C79  1  0.43285483  0.42459481  0.75109780  1  0.157948  -0.001521  3.773718  0.0  0.355392  0.001253  0.161295  0.000725  4.017699  0.001  0.167622  9.2e-05  4.041691  0.001  0.093503  0.156957  0.001145  4.001574  0.002
C  C80  1  0.56714392  0.75110079  0.42459225  1  0.157972  -0.001482  3.773918  0.0  0.355457  0.001249  0.161315  0.000722  4.017762  0.001  0.167637  8.9e-05  4.041754  0.001  0.093548  0.156979  0.001145  4.001644  0.002
C  C81  1  0.06714718  0.24889785  0.57540811  1  0.15785  -0.0015  3.773976  0.0  0.355407  0.00125  0.161198  0.000724  4.017863  0.001  0.167522  9e-05  4.041853  0.001  0.09347  0.156864  0.001145  4.00174  0.002
C  C82  1  0.81714904  0.92459367  0.74890271  1  0.157953  -0.001516  3.773752  0.0  0.355412  0.001251  0.161264  0.000724  4.017766  0.001  0.16759  9e-05  4.041759  0.001  0.09351  0.156926  0.001145  4.001643  0.002
C  C83  1  0.31714863  0.07540549  0.25109814  1  0.157942  -0.001498  3.773686  0.0  0.355414  0.001249  0.161282  0.000723  4.017645  0.001  0.16761  9.1e-05  4.041636  0.001  0.093495  0.156946  0.001145  4.001519  0.002
C  C84  1  0.14690760  0.74148188  0.01674172  1  0.154835  0.003698  3.790431  0.005  0.377925  0.003672  0.148911  0.001952  4.028474  0.003  0.150844  0.001568  4.050578  0.002  0.097299  0.147478  0.002357  4.013716  0.003
C  C85  1  0.64691116  0.25851939  0.98325792  1  0.154699  0.003674  3.790602  0.005  0.378131  0.003673  0.148864  0.001952  4.028549  0.003  0.150797  0.001568  4.050653  0.002  0.097285  0.147428  0.002357  4.013803  0.003
C  C86  1  0.89690795  0.48325783  0.24148251  1  0.154778  0.003692  3.790463  0.005  0.378069  0.003672  0.148889  0.001951  4.028469  0.003  0.150821  0.001567  4.050573  0.002  0.097301  0.147454  0.002357  4.013722  0.003
C  C87  1  0.39691026  0.51674261  0.75851629  1  0.154802  0.0037  3.790471  0.005  0.378222  0.003672  0.148858  0.001951  4.028591  0.003  0.150789  0.001567  4.050697  0.002  0.097303  0.147428  0.002357  4.013829  0.003
C  C88  1  0.60308709  0.75851859  0.51674140  1  0.154659  0.003678  3.790682  0.005  0.37817  0.003674  0.148896  0.001953  4.02848  0.003  0.150843  0.001568  4.050565  0.002  0.097252  0.147456  0.002358  4.013739  0.003
C  C89  1  0.10308939  0.24148004  0.48325894  1  0.154714  0.003687  3.79064  0.005  0.378097  0.003674  0.148915  0.001953  4.028497  0.003  0.150861  0.001568  4.050581  0.002  0.097269  0.147476  0.002357  4.013748  0.003
C  C90  1  0.85309205  0.01674216  0.74148259  1  0.154879  0.003698  3.790357  0.005  0.378069  0.003672  0.148927  0.001951  4.028461  0.003  0.150859  0.001568  4.050564  0.002  0.097303  0.147498  0.002357  4.013699  0.003
C  C91  1  0.35309101  0.98325697  0.25851690  1  0.15484  0.003686  3.790383  0.005  0.378044  0.003672  0.148904  0.001952  4.028465  0.003  0.150837  0.001567  4.050569  0.002  0.097296  0.147475  0.002357  4.013709  0.003
C  C92  1  0.26331465  0.74537119  0.08236436  1  -0.139732  -0.001719  3.715066  -0.001  0.051881  0.000695  -0.171048  0.000298  3.962838  0.001  -0.170271  -4.9e-05  3.980909  0.0  -0.083485  -0.171431  0.000447  3.950943  0.001
C  C93  1  0.76332075  0.25463067  0.91763586  1  -0.139657  -0.001649  3.715148  -0.001  0.051997  0.000699  -0.171002  0.000301  3.962895  0.001  -0.170225  -4.9e-05  3.980965  0.0  -0.083467  -0.171377  0.000447  3.950988  0.001
C  C94  1  0.01331625  0.41763544  0.24537224  1  -0.139696  -0.001709  3.714984  -0.001  0.051893  0.000682  -0.171032  0.000286  3.962752  0.001  -0.170255  -5.5e-05  3.980823  0.0  -0.083491  -0.171412  0.000447  3.950843  0.001
C  C95  1  0.51331733  0.58236524  0.75462617  1  -0.139691  -0.001736  3.71509  -0.001  0.051742  0.000688  -0.171021  0.000291  3.962881  0.001  -0.170243  -5.2e-05  3.980951  0.0  -0.083498  -0.1714  0.000448  3.950965  0.001
C  C96  1  0.48667870  0.75462989  0.58236347  1  -0.139709  -0.001672  3.715251  -0.001  0.052016  0.000693  -0.171077  0.000296  3.962961  0.001  -0.170305  -5.1e-05  3.981028  0.0  -0.083474  -0.171453  0.000447  3.951064  0.001
C  C97  1  0.98668359  0.24536983  0.41763659  1  -0.139662  -0.001696  3.715128  -0.001  0.052154  0.000686  -0.171003  0.000289  3.962846  0.001  -0.170231  -5.2e-05  3.980914  0.0  -0.083448  -0.171372  0.000447  3.950952  0.001
C  C98  1  0.73668366  0.08236419  0.74537198  1  -0.139734  -0.001726  3.715067  -0.001  0.051893  0.000688  -0.171049  0.000292  3.96284  0.001  -0.170272  -5.1e-05  3.980911  0.0  -0.083494  -0.171421  0.000448  3.950935  0.001
C  C99  1  0.23668276  0.91763502  0.25462826  1  -0.139759  -0.001683  3.715078  -0.001  0.051897  0.000697  -0.171081  0.0003  3.962847  0.001  -0.170304  -5.1e-05  3.980917  0.0  -0.083518  -0.171465  0.000448  3.950949  0.001
C  C100  1  0.92776467  0.72855592  0.93674022  1  0.278576  -0.015339  3.642156  -0.009  1.069271  -0.004589  0.217649  -0.005889  3.921438  -0.003  0.238963  -0.006072  3.929085  -0.003  0.169179  0.20312  -0.005977  3.916412  -0.003
C  C101  1  0.42776787  0.27144251  0.06325855  1  0.27857  -0.015303  3.642149  -0.009  1.069345  -0.004588  0.217627  -0.005888  3.921431  -0.003  0.238941  -0.006071  3.92908  -0.003  0.169179  0.203101  -0.005977  3.9164  -0.003
C  C102  1  0.67776593  0.56325880  0.22855658  1  0.278656  -0.015312  3.642119  -0.009  1.06929  -0.004591  0.217707  -0.005892  3.921395  -0.003  0.239022  -0.006074  3.929043  -0.003  0.169208  0.203185  -0.005977  3.916363  -0.003
C  C103  1  0.17776955  0.43674177  0.77144304  1  0.278646  -0.015322  3.642142  -0.009  1.069364  -0.004589  0.217743  -0.00589  3.921402  -0.003  0.239058  -0.006072  3.929049  -0.003  0.169234  0.203214  -0.005977  3.916379  -0.003
C  C104  1  0.82223031  0.77144253  0.43674038  1  0.278659  -0.015307  3.6421  -0.009  1.069365  -0.004588  0.217716  -0.005889  3.921384  -0.003  0.239031  -0.006072  3.929032  -0.003  0.169223  0.203184  -0.005977  3.916364  -0.003
C  C105  1  0.32223483  0.22855663  0.56325980  1  0.278598  -0.015319  3.642115  -0.009  1.069282  -0.004589  0.217661  -0.005889  3.921405  -0.003  0.238977  -0.006072  3.929051  -0.003  0.169173  0.203129  -0.005977  3.916387  -0.003
C  C106  1  0.07223540  0.93674148  0.72855848  1  0.278716  -0.015324  3.642108  -0.009  1.069282  -0.00459  0.217768  -0.00589  3.921372  -0.003  0.239082  -0.006073  3.929017  -0.003  0.1692  0.203238  -0.005977  3.916349  -0.003
C  C107  1  0.57223386  0.06325784  0.27144255  1  0.278634  -0.015307  3.642101  -0.009  1.069294  -0.004588  0.217687  -0.005889  3.921381  -0.003  0.239002  -0.006072  3.929029  -0.003  0.16919  0.203156  -0.005977  3.916362  -0.003
N  N108  1  0.04207174  0.73944461  0.87647948  1  -0.402191  0.051328  3.253704  0.081  -1.281322  0.060628  -0.375141  0.034083  3.570342  0.054  -0.409714  0.026553  3.584814  0.045  -0.35335  -0.351399  0.03997  3.560993  0.061
N  N109  1  0.54207490  0.26055339  0.12351958  1  -0.402167  0.051314  3.253677  0.081  -1.281303  0.060626  -0.375058  0.034082  3.570272  0.054  -0.409633  0.026553  3.584751  0.045  -0.3533  -0.351314  0.039969  3.560931  0.061
N  N110  1  0.79207294  0.62351980  0.23944623  1  -0.402257  0.051317  3.253693  0.081  -1.281287  0.06063  -0.375138  0.034085  3.570268  0.054  -0.409714  0.026553  3.584745  0.045  -0.35333  -0.351395  0.039969  3.560924  0.061
N  N111  1  0.29207671  0.37648071  0.76055397  1  -0.402343  0.051321  3.253661  0.081  -1.281276  0.060628  -0.375263  0.034084  3.570279  0.054  -0.409837  0.026553  3.584752  0.045  -0.353404  -0.351523  0.03997  3.560935  0.061
N  N112  1  0.70792212  0.76055487  0.37648004  1  -0.402317  0.051315  3.253764  0.081  -1.28142  0.060628  -0.375233  0.034084  3.570371  0.054  -0.409807  0.026554  3.584845  0.045  -0.353382  -0.351488  0.03997  3.56103  0.061
N  N113  1  0.20792767  0.23944503  0.62352090  1  -0.402204  0.051319  3.253735  0.081  -1.28135  0.060628  -0.37514  0.034083  3.570348  0.054  -0.409714  0.026553  3.584822  0.045  -0.353362  -0.351397  0.039968  3.561004  0.061
N  N114  1  0.95792844  0.87648016  0.73944792  1  -0.402253  0.051323  3.2537  0.081  -1.281292  0.060629  -0.375139  0.034084  3.57031  0.054  -0.409714  0.026553  3.584786  0.045  -0.353321  -0.351393  0.03997  3.560963  0.061
N  N115  1  0.45792792  0.12351958  0.26055283  1  -0.40221  0.051316  3.253607  0.081  -1.281271  0.060627  -0.375097  0.034083  3.570188  0.054  -0.409673  0.026553  3.584666  0.045  -0.353326  -0.351351  0.039969  3.560845  0.061
N  N116  1  0.98429709  0.72901710  0.02103765  1  -0.326694  -0.000807  3.378637  0.0  -1.322263  0.000421  -0.262104  -0.000329  3.605819  0.0  -0.277824  -0.000512  3.614733  0.0  -0.372103  -0.251702  -0.000167  3.60019  0.001
N  N117  1  0.48430057  0.27098396  0.97896308  1  -0.326673  -0.00081  3.378673  0.0  -1.322317  0.000419  -0.262119  -0.00033  3.605852  0.0  -0.27784  -0.000514  3.614768  0.0  -0.372092  -0.251712  -0.000167  3.600215  0.001
N  N118  1  0.73429857  0.47896299  0.22901605  1  -0.326677  -0.000812  3.3786  0.0  -1.32227  0.000422  -0.262113  -0.000328  3.605787  0.0  -0.277833  -0.000511  3.614702  0.0  -0.372093  -0.251709  -0.000167  3.600158  0.001
N  N119  1  0.23430084  0.52103755  0.77098153  1  -0.32666  -0.000807  3.378569  0.0  -1.322434  0.00042  -0.262111  -0.000329  3.605804  0.0  -0.277832  -0.000514  3.61472  0.0  -0.372081  -0.25171  -0.000167  3.600173  0.001
N  N120  1  0.76569885  0.77098306  0.52103690  1  -0.326647  -0.000807  3.378637  0.0  -1.322392  0.00042  -0.262114  -0.000329  3.605781  0.0  -0.27784  -0.000514  3.614694  0.0  -0.372079  -0.251705  -0.000167  3.600153  0.001
N  N121  1  0.26570237  0.22901614  0.47896332  1  -0.326665  -0.000806  3.378599  0.0  -1.322237  0.000421  -0.262123  -0.000329  3.605755  0.0  -0.277848  -0.000513  3.614665  0.0  -0.372059  -0.251716  -0.000167  3.600129  0.001
N  N122  1  0.01570256  0.02103733  0.72901770  1  -0.326802  -0.00081  3.378693  0.0  -1.322268  0.000421  -0.262191  -0.000329  3.605879  0.0  -0.27791  -0.000513  3.614789  0.0  -0.372111  -0.251786  -0.000167  3.600246  0.001
N  N123  1  0.51570158  0.97896202  0.27098270  1  -0.326691  -0.000811  3.378596  0.0  -1.322276  0.00042  -0.262116  -0.00033  3.605805  0.0  -0.277836  -0.000514  3.614717  0.0  -0.37209  -0.251713  -0.000167  3.600176  0.001
O  O124  1  0.69545169  0.76146059  0.09819472  1  -0.606839  0.042553  1.976893  0.069  -1.19969  0.052944  -0.579383  0.028829  2.222581  0.048  -0.61621  0.020083  2.215435  0.036  -0.314992  -0.551333  0.037611  2.226114  0.06
O  O125  1  0.19545660  0.23854131  0.90180289  1  -0.606731  0.042549  1.976809  0.069  -1.199539  0.052944  -0.579224  0.028829  2.222488  0.048  -0.616051  0.020084  2.215351  0.036  -0.314856  -0.551176  0.037611  2.226017  0.06
O  O126  1  0.44545333  0.40180278  0.26146097  1  -0.60683  0.042554  1.976992  0.069  -1.199722  0.052944  -0.579367  0.028829  2.222674  0.048  -0.616194  0.020084  2.215526  0.036  -0.314951  -0.551323  0.037612  2.226207  0.06
O  O127  1  0.94545441  0.59819629  0.73854112  1  -0.606831  0.042555  1.976907  0.069  -1.19969  0.052945  -0.57934  0.028829  2.222584  0.048  -0.616168  0.020085  2.215441  0.036  -0.314927  -0.551294  0.037611  2.226124  0.06
O  O128  1  0.05454281  0.73854114  0.59819615  1  -0.606766  0.042554  1.976752  0.069  -1.199555  0.052946  -0.579275  0.028829  2.222431  0.048  -0.616102  0.020084  2.215289  0.036  -0.314876  -0.551229  0.037611  2.225965  0.06
O  O129  1  0.55454533  0.26145885  0.40180489  1  -0.606771  0.042555  1.976699  0.069  -1.199736  0.052945  -0.579288  0.028829  2.222388  0.048  -0.616115  0.020084  2.215244  0.036  -0.314896  -0.551241  0.037611  2.225926  0.06
O  O130  1  0.30454892  0.09819550  0.76146035  1  -0.606867  0.042555  1.976874  0.069  -1.199669  0.052945  -0.579409  0.028829  2.222551  0.048  -0.616236  0.020083  2.215406  0.036  -0.315015  -0.55136  0.037611  2.226089  0.06
O  O131  1  0.80454579  0.90180300  0.23853985  1  -0.606791  0.042552  1.976962  0.069  -1.199677  0.052944  -0.579305  0.028829  2.222636  0.048  -0.616132  0.020084  2.215492  0.036  -0.314896  -0.551261  0.037612  2.226173  0.06
O  O132  1  0.51429353  0.75385231  0.20460768  1  -0.597181  0.055565  2.007512  0.091  -1.185553  0.064201  -0.568566  0.035235  2.273549  0.059  -0.609356  0.025391  2.26521  0.045  -0.316979  -0.538018  0.044038  2.277919  0.07
O  O133  1  0.01429748  0.24614771  0.79539206  1  -0.597071  0.05556  2.007567  0.091  -1.185595  0.064198  -0.568459  0.035233  2.273619  0.059  -0.609247  0.02539  2.265285  0.045  -0.31697  -0.537907  0.044038  2.277979  0.07
O  O134  1  0.26429302  0.29539067  0.25385345  1  -0.597155  0.055563  2.007563  0.091  -1.185695  0.064197  -0.568553  0.035233  2.273612  0.059  -0.609342  0.02539  2.265273  0.045  -0.316988  -0.538008  0.044038  2.277981  0.07
O  O135  1  0.76429506  0.70460919  0.74614677  1  -0.597135  0.055566  2.007543  0.091  -1.185663  0.064199  -0.568522  0.035234  2.273585  0.059  -0.609311  0.025391  2.265248  0.045  -0.316972  -0.537981  0.044039  2.277972  0.07
O  O136  1  0.23570429  0.74614666  0.70460697  1  -0.597113  0.055562  2.0075  0.091  -1.185589  0.064197  -0.568503  0.035233  2.273539  0.059  -0.60929  0.025391  2.265201  0.045  -0.316994  -0.537952  0.044037  2.27791  0.07
O  O137  1  0.73570469  0.25385188  0.29539327  1  -0.59714  0.055566  2.007516  0.091  -1.185558  0.064199  -0.568507  0.035234  2.273543  0.059  -0.609296  0.025391  2.265205  0.045  -0.316977  -0.537958  0.044038  2.277916  0.07
O  O138  1  0.48570687  0.20460829  0.75385261  1  -0.597186  0.055565  2.007538  0.091  -1.185542  0.064202  -0.568581  0.035235  2.273575  0.059  -0.60937  0.025392  2.265235  0.045  -0.316999  -0.53803  0.044039  2.277948  0.07
O  O139  1  0.98570512  0.79539076  0.24614812  1  -0.597144  0.055564  2.007529  0.091  -1.185652  0.064199  -0.568522  0.035234  2.273557  0.059  -0.609311  0.02539  2.265221  0.045  -0.31699  -0.53798  0.044038  2.27794  0.07
