# generated using pymatgen
data_AgH8C11N2O
_symmetry_space_group_name_H-M   'P 1'
_cell_length_a   8.37924458
_cell_length_b   18.66698214
_cell_length_c   18.68090979
_cell_angle_alpha   117.72749280
_cell_angle_beta   98.57676057
_cell_angle_gamma   98.64827111
_symmetry_Int_Tables_number   1
_chemical_formula_structural   AgH8C11N2O
_chemical_formula_sum   'Ag6 H48 C66 N12 O6'
_cell_volume   2475.60354147
_cell_formula_units_Z   6
loop_
 _symmetry_equiv_pos_site_id
 _symmetry_equiv_pos_as_xyz
  1  'x, y, z'
loop_
 _atom_site_type_symbol
 _atom_site_label
 _atom_site_symmetry_multiplicity
 _atom_site_fract_x
 _atom_site_fract_y
 _atom_site_fract_z
 _atom_site_occupancy
 _atom_site_pbe_bader_charge
 _atom_site_pbe_bader_spin_density
 _atom_site_pbe_cm5_charge
 _atom_site_pbe_ddec_charge
 _atom_site_pbe_ddec_spin_density
 _atom_site_pbe_ddec_sum_bond_order
 _atom_site_pbe_magmom
Ag  Ag0  1  0.64388925  0.46177669  0.95068482  1  0.468802  0.010002  0.45219  0.23751  0.011001  1.864411  0.004
Ag  Ag1  1  0.69476324  0.04906430  0.51171978  1  0.465218  0.010072  0.451785  0.237512  0.010973  1.862411  0.004
Ag  Ag2  1  0.18259800  0.48869853  0.53745877  1  0.465191  0.01017  0.451079  0.236572  0.011144  1.861773  0.004
Ag  Ag3  1  0.35611270  0.53822970  0.04931585  1  0.468832  0.010001  0.45218  0.237562  0.011  1.864272  0.004
Ag  Ag4  1  0.30521585  0.95090768  0.48827833  1  0.465133  0.010069  0.451753  0.237529  0.010972  1.862353  0.004
Ag  Ag5  1  0.81738709  0.51130350  0.46253078  1  0.465185  0.010168  0.451021  0.23656  0.011144  1.861526  0.004
H  H6  1  0.80591886  0.51064018  0.12084145  1  0.087579  0.001952  0.107716  0.07296  0.002354  1.025669  0.0
H  H7  1  0.20658445  0.73207365  0.22593594  1  0.115081  0.001915  0.105582  0.110627  0.001703  0.996686  -0.001
H  H8  1  0.15169166  0.72206441  0.08427980  1  0.07102  0.000734  0.100121  0.104305  -0.00044  0.995067  0.0
H  H9  1  0.91855391  0.60705236  0.96844634  1  0.055189  0.004167  0.102869  0.076047  0.003848  1.025528  -0.001
H  H10  1  0.93753214  0.62247157  0.39489602  1  0.154922  0.00132  0.115286  0.096866  0.001564  1.04737  0.0
H  H11  1  0.04896150  0.46719675  0.16179150  1  0.064695  0.003709  0.095563  0.088266  0.003431  1.042894  -0.001
H  H12  1  0.98449845  0.34672885  0.18747146  1  0.078998  0.000629  0.099482  0.103896  -0.000429  0.995295  0.0
H  H13  1  0.89588150  0.37003503  0.31714343  1  0.062676  0.003866  0.102163  0.069469  0.004025  1.019014  -0.001
H  H14  1  0.68688508  0.87914741  0.39026190  1  0.07693  0.002012  0.107906  0.073289  0.002394  1.025898  0.0
H  H15  1  0.98003174  0.77273829  0.50585098  1  0.091039  0.002126  0.105371  0.110549  0.001718  0.997082  -0.001
H  H16  1  0.06712510  0.91419911  0.63762339  1  0.04225  0.000711  0.100075  0.104102  -0.000444  0.995683  0.0
H  H17  1  0.95139034  0.03067474  0.63883692  1  0.078767  0.003951  0.102481  0.075959  0.003905  1.026517  -0.001
H  H18  1  0.54258885  0.60507306  0.22755712  1  0.176972  0.00116  0.114726  0.09562  0.001572  1.049278  0.0
H  H19  1  0.88972657  0.83801900  0.30586558  1  0.070917  0.003575  0.095248  0.087405  0.003409  1.042894  -0.001
H  H20  1  0.80128449  0.81272952  0.16000809  1  0.054995  0.000608  0.099082  0.103103  -0.000432  0.994119  0.0
H  H21  1  0.58308412  0.68314721  0.05343367  1  0.050816  0.003951  0.101534  0.068193  0.004078  1.020015  -0.001
H  H22  1  0.29573799  0.60995217  0.48836710  1  0.084379  0.001978  0.107384  0.072401  0.002384  1.026779  0.0
H  H23  1  0.47236739  0.49363211  0.26641161  1  0.093513  0.002201  0.105229  0.11024  0.001767  0.997459  -0.001
H  H24  1  0.42832526  0.36212941  0.27689277  1  0.045372  0.000704  0.100928  0.105673  -0.00046  0.993971  0.0
H  H25  1  0.31229933  0.36134329  0.39247139  1  0.059307  0.00416  0.102572  0.075839  0.00388  1.025537  -0.001
H  H26  1  0.31438979  0.77259572  0.37680296  1  0.154337  0.001263  0.115126  0.096182  0.001545  1.047623  0.0
H  H27  1  0.58253396  0.69409888  0.53131205  1  0.079646  0.003531  0.095639  0.087926  0.003394  1.041594  -0.001
H  H28  1  0.63835704  0.83983663  0.65185442  1  0.066269  0.000632  0.099556  0.103474  -0.000413  0.994561  0.0
H  H29  1  0.52615664  0.94643575  0.62896246  1  0.08879  0.003567  0.101239  0.067852  0.004028  1.019993  -0.001
H  H30  1  0.19410124  0.48933997  0.87914429  1  0.087105  0.001953  0.107678  0.072865  0.002355  1.025737  0.0
H  H31  1  0.79339681  0.26792710  0.77406990  1  0.114993  0.001915  0.105557  0.110568  0.001704  0.996771  -0.001
H  H32  1  0.84831340  0.27793822  0.91572571  1  0.071004  0.000734  0.100145  0.104375  -0.00044  0.995119  0.0
H  H33  1  0.08145993  0.39294654  0.03154941  1  0.055216  0.004168  0.102821  0.076021  0.003851  1.025589  -0.001
H  H34  1  0.06249619  0.37753919  0.60510993  1  0.154813  0.00132  0.115261  0.096901  0.001564  1.047429  0.0
H  H35  1  0.95100795  0.53279276  0.83820245  1  0.064519  0.003713  0.095582  0.088361  0.003431  1.04279  -0.001
H  H36  1  0.01549146  0.65326753  0.81253179  1  0.079  0.000629  0.099454  0.103881  -0.000428  0.99523  0.0
H  H37  1  0.10414819  0.62997072  0.68287043  1  0.062615  0.00386  0.102168  0.069447  0.004022  1.018852  -0.001
H  H38  1  0.31309382  0.12084898  0.60973479  1  0.077091  0.002012  0.107906  0.073268  0.002394  1.025935  0.0
H  H39  1  0.01996762  0.22726812  0.49414204  1  0.091241  0.002124  0.105412  0.110609  0.001715  0.996815  -0.001
H  H40  1  0.93285247  0.08579979  0.36236744  1  0.041955  0.000711  0.100054  0.104131  -0.000444  0.995718  0.0
H  H41  1  0.04859182  0.96932103  0.36115753  1  0.078643  0.003952  0.10242  0.075932  0.003902  1.026506  -0.001
H  H42  1  0.45741847  0.39493209  0.77244169  1  0.176838  0.00116  0.114726  0.095632  0.001572  1.049199  0.0
H  H43  1  0.11025823  0.16198676  0.69413587  1  0.07087  0.003574  0.095281  0.087436  0.003409  1.04303  -0.001
H  H44  1  0.19870240  0.18727562  0.83999266  1  0.054965  0.000608  0.099166  0.103134  -0.000432  0.99413  0.0
H  H45  1  0.41690575  0.31685918  0.94656571  1  0.050903  0.00395  0.101514  0.068176  0.00408  1.020066  -0.001
H  H46  1  0.70430534  0.39005921  0.51164864  1  0.084205  0.001979  0.107305  0.07236  0.002385  1.026773  0.0
H  H47  1  0.52761029  0.50636177  0.73358490  1  0.093075  0.002203  0.105238  0.110204  0.001768  0.997442  -0.001
H  H48  1  0.57167365  0.63787509  0.72311913  1  0.045348  0.000705  0.100928  0.105608  -0.00046  0.99409  0.0
H  H49  1  0.68770809  0.63866370  0.60754275  1  0.060048  0.004151  0.102579  0.075823  0.003877  1.025541  -0.001
H  H50  1  0.68557770  0.22738939  0.62319791  1  0.154692  0.001262  0.115104  0.096124  0.001544  1.047613  0.0
H  H51  1  0.41752369  0.30591316  0.46868561  1  0.079689  0.003527  0.095679  0.087952  0.003393  1.041723  -0.001
H  H52  1  0.36165676  0.16017228  0.34813745  1  0.065668  0.000631  0.099467  0.103371  -0.000413  0.994538  0.0
H  H53  1  0.47380399  0.05356000  0.37103868  1  0.088391  0.00357  0.101199  0.067884  0.004029  1.020076  -0.001
C  C54  1  0.88752164  0.55765869  0.11472832  1  0.405129  0.002615  0.034803  0.036051  0.005156  3.947332  -0.002
C  C55  1  0.01239286  0.62035385  0.18388880  1  0.037495  0.04206  -0.017737  -0.027113  0.040486  3.984374  0.014
C  C56  1  0.10935558  0.68205957  0.17300764  1  -0.069122  0.141061  -0.082194  -0.080855  0.141096  3.931585  0.082
C  C57  1  0.07766124  0.67644144  0.09510178  1  -0.077186  -0.016976  -0.103056  -0.143642  -0.015585  4.101346  -0.021
C  C58  1  0.94876869  0.61264719  0.02979896  1  0.426057  0.138699  -0.000818  0.005111  0.141736  4.002996  0.081
C  C59  1  0.02508253  0.62937659  0.26712345  1  0.866651  0.148196  0.104799  0.274862  0.153526  4.086752  0.077
C  C60  1  0.94878554  0.56210626  0.34817039  1  0.464606  0.032844  0.046515  0.070376  0.035576  3.864056  0.019
C  C61  1  0.98969616  0.55430412  0.27499468  1  0.064522  0.035877  -0.019443  -0.033493  0.035844  3.979476  0.01
C  C62  1  0.00490447  0.47484979  0.21628157  1  -0.091557  0.10651  -0.08642  -0.095679  0.107326  3.971696  0.061
C  C63  1  0.97067098  0.40815615  0.23087863  1  -0.037363  -0.007671  -0.104782  -0.136064  -0.006658  4.08026  -0.013
C  C64  1  0.92341415  0.42032357  0.30316361  1  0.379161  0.122835  -0.001549  0.010794  0.126848  4.006793  0.073
C  C65  1  0.77437068  0.88498523  0.44323415  1  0.438004  0.002547  0.035345  0.035575  0.005175  3.946759  -0.002
C  C66  1  0.82955744  0.81556098  0.43653385  1  0.005392  0.042118  -0.018785  -0.028164  0.04062  3.983856  0.014
C  C67  1  0.93657881  0.82597000  0.50898441  1  0.007926  0.140928  -0.082274  -0.08147  0.14171  3.931139  0.082
C  C68  1  0.98285950  0.90374967  0.58132157  1  -0.101615  -0.016329  -0.103337  -0.142811  -0.01563  4.100845  -0.021
C  C69  1  0.92003800  0.96937927  0.58304666  1  0.413936  0.139656  -0.001352  0.00319  0.142645  4.005072  0.081
C  C70  1  0.75872718  0.73244736  0.36230739  1  0.89737  0.148127  0.104959  0.275994  0.154205  4.082645  0.078
C  C71  1  0.60173487  0.65184723  0.21414328  1  0.441994  0.033197  0.046733  0.071202  0.035695  3.864583  0.019
C  C72  1  0.71626021  0.72482645  0.27954359  1  0.002996  0.036701  -0.020159  -0.035076  0.035994  3.979936  0.01
C  C73  1  0.79115107  0.78360890  0.25898812  1  -0.031234  0.10558  -0.085727  -0.093995  0.106674  3.972838  0.06
C  C74  1  0.74327258  0.76920859  0.17783859  1  -0.088415  -0.006972  -0.104549  -0.135592  -0.006513  4.080212  -0.013
C  C75  1  0.62360658  0.69707561  0.11765018  1  0.431914  0.12228  -0.000681  0.013177  0.126503  4.006647  0.073
C  C76  1  0.32992601  0.55684391  0.44131979  1  0.430336  0.002468  0.03609  0.037317  0.005047  3.947857  -0.002
C  C77  1  0.39158006  0.56332644  0.37846025  1  0.004123  0.042001  -0.018401  -0.027227  0.04045  3.986767  0.014
C  C78  1  0.42602298  0.49073012  0.31665325  1  -0.02283  0.141768  -0.082202  -0.080551  0.142071  3.930809  0.083
C  C79  1  0.40029192  0.41851730  0.32253511  1  -0.009153  -0.017421  -0.104327  -0.145793  -0.015878  4.101144  -0.021
C  C80  1  0.33608495  0.41701788  0.38658657  1  0.360944  0.140026  -0.001127  0.004363  0.142718  4.005109  0.081
C  C81  1  0.39533117  0.63764233  0.36951339  1  0.871423  0.148116  0.104182  0.273875  0.153836  4.086176  0.078
C  C82  1  0.38635879  0.78591516  0.43697150  1  0.493254  0.032728  0.046535  0.071907  0.0353  3.864039  0.019
C  C83  1  0.43538429  0.72044442  0.44457766  1  -0.023653  0.036421  -0.019207  -0.034081  0.0359  3.978171  0.01
C  C84  1  0.53060532  0.74097747  0.52382509  1  -0.055902  0.106234  -0.086567  -0.094436  0.107039  3.971453  0.061
C  C85  1  0.56295789  0.82206603  0.59055293  1  -0.060277  -0.007452  -0.105606  -0.136741  -0.006591  4.080264  -0.013
C  C86  1  0.50314559  0.88226939  0.57864308  1  0.382746  0.122278  0.000289  0.014938  0.126234  4.004438  0.073
C  C87  1  0.11249322  0.44233020  0.88526280  1  0.405759  0.002617  0.034921  0.03625  0.005163  3.947318  -0.001
C  C88  1  0.98759640  0.37963942  0.81610118  1  0.037212  0.04209  -0.017756  -0.02725  0.040524  3.9843  0.014
C  C89  1  0.89062591  0.31793680  0.82699617  1  -0.06891  0.141048  -0.082191  -0.080885  0.141083  3.9317  0.082
C  C90  1  0.92233613  0.32355807  0.90489805  1  -0.077188  -0.01697  -0.103075  -0.143661  -0.015584  4.101572  -0.021
C  C91  1  0.05124218  0.38735295  0.97019825  1  0.426028  0.13876  -0.000794  0.005035  0.141797  4.003157  0.081
C  C92  1  0.97491329  0.37061980  0.73287536  1  0.866716  0.148144  0.104892  0.275201  0.153464  4.087128  0.077
C  C93  1  0.05124586  0.43790140  0.65182680  1  0.4639  0.032872  0.046638  0.070438  0.035596  3.863397  0.019
C  C94  1  0.01030646  0.44568414  0.72500073  1  0.064452  0.035883  -0.019568  -0.033675  0.035852  3.979034  0.01
C  C95  1  0.99508933  0.52514221  0.78372201  1  -0.091331  0.106493  -0.086454  -0.095783  0.107318  3.971474  0.061
C  C96  1  0.02933282  0.59183647  0.76912693  1  -0.038133  -0.007665  -0.104802  -0.136168  -0.006658  4.080157  -0.013
C  C97  1  0.07657767  0.57967906  0.69684269  1  0.379132  0.122816  -0.00158  0.010862  0.126821  4.006472  0.073
C  C98  1  0.22560668  0.11500802  0.55676205  1  0.438074  0.002546  0.035354  0.035669  0.005171  3.946901  -0.002
C  C99  1  0.17044410  0.18443729  0.56346405  1  0.005367  0.042104  -0.018729  -0.028174  0.040598  3.98392  0.014
C  C100  1  0.06343065  0.17403452  0.49101530  1  0.008223  0.140938  -0.082281  -0.08133  0.141724  3.930848  0.082
C  C101  1  0.01713203  0.09625548  0.41867198  1  -0.102154  -0.01633  -0.103291  -0.142896  -0.015639  4.101021  -0.021
C  C102  1  0.07994938  0.03062463  0.41695032  1  0.413654  0.139664  -0.001431  0.002921  0.142656  4.005313  0.081
C  C103  1  0.24128700  0.26755466  0.63768931  1  0.897294  0.148124  0.105  0.275932  0.154209  4.082855  0.078
C  C104  1  0.39826774  0.34815791  0.78585952  1  0.441295  0.033211  0.046746  0.071187  0.035706  3.864387  0.019
C  C105  1  0.28374101  0.27517620  0.72045259  1  0.004014  0.036704  -0.020227  -0.035182  0.036004  3.980031  0.01
C  C106  1  0.20883570  0.21639374  0.74100878  1  -0.031429  0.105593  -0.085741  -0.093924  0.106687  3.97287  0.06
C  C107  1  0.25671520  0.23079592  0.82216192  1  -0.088227  -0.006978  -0.104621  -0.135675  -0.006518  4.079971  -0.013
C  C108  1  0.37639116  0.30293204  0.88235027  1  0.43198  0.122292  -0.000717  0.013174  0.126513  4.006667  0.073
C  C109  1  0.67009396  0.44316435  0.55868982  1  0.431081  0.002462  0.036088  0.037358  0.005043  3.947776  -0.002
C  C110  1  0.60843641  0.43667244  0.62154475  1  0.003589  0.041978  -0.018337  -0.027177  0.040425  3.986576  0.014
C  C111  1  0.57395651  0.50926251  0.68334386  1  -0.022582  0.141714  -0.082194  -0.080485  0.142014  3.930514  0.083
C  C112  1  0.59970542  0.58148407  0.67747522  1  -0.008968  -0.017417  -0.104339  -0.145757  -0.015872  4.101265  -0.021
C  C113  1  0.66393620  0.58299223  0.61343415  1  0.360139  0.139957  -0.001172  0.0044  0.142642  4.005295  0.081
C  C114  1  0.60468163  0.36235155  0.63049064  1  0.870861  0.148122  0.104153  0.273988  0.153829  4.086071  0.078
C  C115  1  0.61362581  0.21407058  0.56302698  1  0.492871  0.032764  0.046346  0.07168  0.035342  3.863908  0.019
C  C116  1  0.56464126  0.27955571  0.55542849  1  -0.023278  0.036426  -0.019074  -0.033945  0.035913  3.977927  0.01
C  C117  1  0.46943028  0.25902893  0.47617178  1  -0.056188  0.10624  -0.086653  -0.094561  0.107046  3.97156  0.061
C  C118  1  0.43705422  0.17794413  0.40944316  1  -0.059909  -0.007454  -0.105508  -0.136534  -0.006602  4.080074  -0.013
C  C119  1  0.49683858  0.11773011  0.42135915  1  0.383698  0.122368  0.000335  0.014693  0.126337  4.004424  0.073
N  N120  1  0.85303739  0.55366076  0.04007624  1  -1.199725  0.039375  -0.379531  -0.187737  0.033716  3.702985  0.022
N  N121  1  0.91356353  0.49737760  0.36147269  1  -1.211998  0.028678  -0.375689  -0.186644  0.021416  3.703923  0.011
N  N122  1  0.81447576  0.95949036  0.51397516  1  -1.207367  0.040038  -0.37893  -0.186573  0.034306  3.703039  0.023
N  N123  1  0.55411431  0.63877540  0.13627317  1  -1.224128  0.028748  -0.376018  -0.186922  0.021378  3.705551  0.011
N  N124  1  0.29955426  0.48621618  0.44549783  1  -1.189335  0.039728  -0.378706  -0.186461  0.034167  3.704226  0.022
N  N125  1  0.41596336  0.86376296  0.50172190  1  -1.221001  0.028485  -0.375661  -0.188474  0.021178  3.706608  0.011
N  N126  1  0.14697300  0.44633377  0.95991510  1  -1.199603  0.039369  -0.379598  -0.187738  0.033708  3.703344  0.022
N  N127  1  0.08646624  0.50263630  0.63853000  1  -1.210474  0.028655  -0.375684  -0.186669  0.021404  3.703872  0.011
N  N128  1  0.18551456  0.04050227  0.48602154  1  -1.206945  0.04002  -0.378845  -0.186463  0.034294  3.702503  0.023
N  N129  1  0.44588866  0.36123286  0.86373111  1  -1.224248  0.028733  -0.376004  -0.186877  0.021364  3.705665  0.011
N  N130  1  0.70045121  0.51379458  0.55450991  1  -1.189184  0.039714  -0.378605  -0.186547  0.03416  3.704016  0.022
N  N131  1  0.58399864  0.13621841  0.49827740  1  -1.221423  0.028474  -0.375559  -0.188224  0.021161  3.705909  0.011
O  O132  1  0.06499118  0.70187648  0.33037279  1  -1.11157  0.15636  -0.29401  -0.464586  0.15124  2.206548  0.126
O  O133  1  0.73431964  0.66896485  0.37133495  1  -1.098569  0.156502  -0.294893  -0.465766  0.151182  2.203542  0.126
O  O134  1  0.36255233  0.62874848  0.29714021  1  -1.097479  0.156363  -0.294356  -0.464501  0.151351  2.203885  0.126
O  O135  1  0.93499882  0.29812554  0.66962080  1  -1.111686  0.156409  -0.29406  -0.464708  0.151294  2.206571  0.126
O  O136  1  0.26570029  0.33103905  0.62866245  1  -1.098536  0.156499  -0.294937  -0.465797  0.151176  2.203771  0.126
O  O137  1  0.63744916  0.37125165  0.70286765  1  -1.09715  0.156363  -0.29433  -0.464532  0.15135  2.203863  0.126
