# generated using pymatgen
data_MgH4C7O5
_symmetry_space_group_name_H-M   'P 1'
_cell_length_a   10.23011900
_cell_length_b   15.13563795
_cell_length_c   15.13492739
_cell_angle_alpha   119.99383807
_cell_angle_beta   89.99787049
_cell_angle_gamma   89.99906553
_symmetry_Int_Tables_number   1
_chemical_formula_structural   MgH4C7O5
_chemical_formula_sum   'Mg9 H36 C63 O45'
_cell_volume   2029.64158080
_cell_formula_units_Z   9
loop_
 _symmetry_equiv_pos_site_id
 _symmetry_equiv_pos_as_xyz
  1  'x, y, z'
loop_
 _atom_site_type_symbol
 _atom_site_label
 _atom_site_symmetry_multiplicity
 _atom_site_fract_x
 _atom_site_fract_y
 _atom_site_fract_z
 _atom_site_occupancy
 _atom_site_pbe_bader_charge
 _atom_site_pbe_bader_spin_density
 _atom_site_pbe_cm5_charge
 _atom_site_pbe_ddec_charge
 _atom_site_pbe_ddec_spin_density
 _atom_site_pbe_ddec_sum_bond_order
 _atom_site_pbe_magmom
Mg  Mg0  1  0.02107587  0.01772495  0.03247485  1  1.691696  0  0.835943  1.37156  0  1.398099  0
Mg  Mg1  1  0.35439414  0.96760619  0.98526288  1  1.691032  0  0.835794  1.370906  0  1.39956  0
Mg  Mg2  1  0.68766286  0.01483308  0.98233395  1  1.692428  0  0.835734  1.370884  0  1.400143  0
Mg  Mg3  1  0.09218818  0.68753669  0.31728564  1  1.687426  0  0.844207  1.363147  0  1.436897  0
Mg  Mg4  1  0.42548497  0.68275360  0.37023898  1  1.68761  0  0.844546  1.363314  0  1.43665  0
Mg  Mg5  1  0.75883912  0.62977633  0.31254570  1  1.685941  0  0.84439  1.362278  0  1.438063  0
Mg  Mg6  1  0.52211164  0.32599763  0.66213983  1  1.685763  0  0.838511  1.363091  0  1.431347  0
Mg  Mg7  1  0.85536270  0.33779489  0.66376492  1  1.685908  0  0.838671  1.363856  0  1.430444  0
Mg  Mg8  1  0.18881203  0.33626394  0.67394463  1  1.684209  0  0.838295  1.362333  0  1.432596  0
H  H9  1  0.61683205  0.80077776  0.12738958  1  0.104559  0  0.106861  0.133436  0  0.993289  0
H  H10  1  0.95022779  0.87267099  0.67351210  1  0.085758  0  0.106822  0.133521  0  0.992979  0
H  H11  1  0.28342132  0.32664256  0.19913109  1  0.080973  0  0.106885  0.133214  0  0.993464  0
H  H12  1  0.01214995  0.91813246  0.18225791  1  0.078231  0  0.104369  0.121378  0  1.050238  0
H  H13  1  0.34560621  0.81787995  0.73592665  1  0.104418  0  0.104624  0.12203  0  1.04963  0
H  H14  1  0.67883515  0.26415426  0.08195032  1  0.114747  0  0.104364  0.121133  0  1.050362  0
H  H15  1  0.57170881  0.68001785  0.20270258  1  0.655362  0  0.315152  0.37478  0  0.947472  0
H  H16  1  0.90500391  0.79728865  0.47738459  1  0.671334  0  0.315222  0.374184  0  0.947727  0
H  H17  1  0.23832427  0.52278224  0.32006804  1  0.646779  0  0.315181  0.374747  0  0.947773  0
H  H18  1  0.15104610  0.85282870  0.26737649  1  0.641933  0  0.362116  0.401046  0  0.829072  0
H  H19  1  0.48442500  0.73267685  0.58543872  1  0.627027  0  0.362024  0.401234  0  0.829741  0
H  H20  1  0.81777323  0.41470689  0.14731694  1  0.62216  0  0.3623  0.401608  0  0.828394  0
H  H21  1  0.13456138  0.59103438  0.02856113  1  0.108113  0  0.1111  0.13902  0  0.993001  0
H  H22  1  0.46788041  0.97139204  0.56250669  1  0.093275  0  0.110808  0.13809  0  0.994302  0
H  H23  1  0.80121368  0.43760277  0.40893623  1  0.096466  0  0.110876  0.138114  0  0.993587  0
H  H24  1  0.54373258  0.53477224  0.05299155  1  0.069573  0  0.106738  0.128167  0  1.022843  0
H  H25  1  0.87704824  0.94703236  0.48178632  1  0.086688  0  0.106871  0.128541  0  1.022477  0
H  H26  1  0.21048197  0.51804188  0.46515225  1  0.076943  0  0.106734  0.128331  0  1.02283  0
H  H27  1  0.05221590  0.47750551  0.84255771  1  0.65749  0  0.340759  0.387698  0  0.872136  0
H  H28  1  0.38548355  0.15746084  0.63500608  1  0.635152  0  0.340586  0.387199  0  0.87297  0
H  H29  1  0.71877741  0.36510961  0.52246725  1  0.646772  0  0.340779  0.388264  0  0.871553  0
H  H30  1  0.65144980  0.42698783  0.88597068  1  0.629802  0  0.357777  0.396795  0  0.835926  0
H  H31  1  0.98470842  0.11412787  0.54108421  1  0.632262  0  0.357999  0.396887  0  0.835225  0
H  H32  1  0.31800047  0.45883353  0.57306080  1  0.635387  0  0.358381  0.398219  0  0.833623  0
H  H33  1  0.16966302  0.24163700  0.91804486  1  0.093874  0  0.110138  0.139631  0  0.983584  0
H  H34  1  0.50328537  0.08197695  0.32342045  1  0.078875  0  0.10998  0.139104  0  0.983669  0
H  H35  1  0.83648722  0.67649136  0.75848659  1  0.109975  0  0.110075  0.139224  0  0.983671  0
H  H36  1  0.77581190  0.21664664  0.80374616  1  0.057937  0  0.101859  0.121756  0  1.041872  0
H  H37  1  0.10933402  0.19602711  0.41289286  1  0.077101  0  0.101722  0.121513  0  1.041711  0
H  H38  1  0.44257822  0.58716039  0.78334622  1  0.092898  0  0.101891  0.121726  0  1.042775  0
H  H39  1  0.20137327  0.15623365  0.02913838  1  0.674113  0  0.317676  0.383813  0  0.935666  0
H  H40  1  0.53491209  0.97091099  0.12698589  1  0.656287  0  0.317368  0.383975  0  0.934874  0
H  H41  1  0.86820257  0.87293823  0.84392718  1  0.646488  0  0.318101  0.384218  0  0.934847  0
H  H42  1  0.63932627  0.10097374  0.83411367  1  0.635102  0  0.356487  0.394248  0  0.838495  0
H  H43  1  0.97284643  0.16577558  0.26691199  1  0.621291  0  0.356687  0.395229  0  0.837888  0
H  H44  1  0.30605484  0.73318293  0.89903430  1  0.6287  0  0.356626  0.39541  0  0.837291  0
C  C45  1  0.81266810  0.86451006  0.14903147  1  0.005284  0  -0.037995  -0.038853  0  4.064329  0
C  C46  1  0.14606128  0.85107966  0.71555744  1  0.033456  0  -0.037884  -0.039395  0  4.064429  0
C  C47  1  0.47928639  0.28455425  0.13549468  1  -0.018906  0  -0.037534  -0.038138  0  4.064115  0
C  C48  1  0.71502461  0.80302505  0.15653523  1  0.015842  0  -0.111204  -0.23766  0  3.989873  0
C  C49  1  0.04840262  0.84349850  0.64656241  1  -0.018319  0  -0.111299  -0.237867  0  3.989441  0
C  C50  1  0.38163105  0.35356189  0.19692955  1  -0.007734  0  -0.111649  -0.237912  0  3.990142  0
C  C51  1  0.74907081  0.74040447  0.19592576  1  0.435704  0  0.062656  0.210584  0  4.074632  0
C  C52  1  0.08238301  0.80406726  0.54454379  1  0.457821  0  0.062969  0.21144  0  4.07435  0
C  C53  1  0.41567463  0.45555365  0.25954135  1  0.450293  0  0.063512  0.212496  0  4.073831  0
C  C54  1  0.87794232  0.73915031  0.22895130  1  0.632202  0  0.061533  0.143601  0  4.169044  0
C  C55  1  0.21125284  0.77100264  0.51024154  1  0.658294  0  0.062636  0.144268  0  4.1691  0
C  C56  1  0.54454658  0.48983358  0.26077815  1  0.655654  0  0.062667  0.143223  0  4.167939  0
C  C57  1  0.96810165  0.80994284  0.23099647  1  0.355035  0  0.056429  0.190132  0  4.120274  0
C  C58  1  0.30143273  0.76898889  0.57898987  1  0.285292  0  0.056503  0.191181  0  4.120553  0
C  C59  1  0.63470373  0.42107665  0.18999529  1  0.467845  0  0.055259  0.189673  0  4.120712  0
C  C60  1  0.93880138  0.86921237  0.18813498  1  0.048638  0  -0.117587  -0.251669  0  4.055643  0
C  C61  1  0.27220981  0.81196545  0.68115189  1  0.087298  0  -0.117335  -0.25187  0  4.054661  0
C  C62  1  0.60544007  0.31893655  0.13079278  1  -0.075661  0  -0.117068  -0.251014  0  4.054381  0
C  C63  1  0.79670929  0.91889760  0.09119463  1  1.538032  0  0.228756  0.636136  0  4.161094  0
C  C64  1  0.13001566  0.90890910  0.82773789  1  1.513124  0  0.228552  0.635959  0  4.161593  0
C  C65  1  0.46321122  0.17237040  0.08118442  1  1.541777  0  0.228803  0.636243  0  4.163667  0
C  C66  1  0.33806598  0.56962973  0.05125138  1  0.027965  0  -0.037515  -0.03903  0  4.067447  0
C  C67  1  0.67137219  0.94874752  0.51842680  1  0.010559  0  -0.037207  -0.038094  0  4.065786  0
C  C68  1  0.00478390  0.48150504  0.43026093  1  -0.031681  0  -0.037458  -0.036732  0  4.064531  0
C  C69  1  0.22731928  0.55794631  0.99124045  1  -0.071276  0  -0.112608  -0.240092  0  4.025547  0
C  C70  1  0.56061715  0.00874683  0.56676921  1  -0.000806  0  -0.112341  -0.239423  0  4.02601  0
C  C71  1  0.89398692  0.43321506  0.44192436  1  0.044489  0  -0.11182  -0.238951  0  4.024474  0
C  C72  1  0.23786817  0.50200569  0.88605995  1  0.424443  0  0.055651  0.183521  0  4.10672  0
C  C73  1  0.57114129  0.11392958  0.61600159  1  0.350938  0  0.05571  0.184062  0  4.106449  0
C  C74  1  0.90445312  0.38390765  0.49781240  1  0.373672  0  0.054985  0.181244  0  4.109476  0
C  C75  1  0.35595958  0.45386926  0.83882785  1  0.66535  0  0.065367  0.150144  0  4.167988  0
C  C76  1  0.68920682  0.16115384  0.61503851  1  0.673715  0  0.065471  0.150364  0  4.167371  0
C  C77  1  0.02253732  0.38475536  0.54594085  1  0.656594  0  0.066025  0.15288  0  4.167298  0
C  C78  1  0.46621743  0.46856335  0.90022389  1  0.490593  0  0.064434  0.20247  0  4.088864  0
C  C79  1  0.79947051  0.09977066  0.56831154  1  0.450376  0  0.064686  0.201258  0  4.089529  0
C  C80  1  0.13284477  0.43141341  0.53125517  1  0.446027  0  0.063491  0.200414  0  4.091301  0
C  C81  1  0.45895099  0.52663693  0.00579765  1  -0.027553  0  -0.111986  -0.246017  0  4.014187  0
C  C82  1  0.79224212  0.99419395  0.52085102  1  -0.004116  0  -0.112487  -0.246507  0  4.014256  0
C  C83  1  0.12567285  0.47894992  0.47320705  1  -0.007064  0  -0.111266  -0.245717  0  4.014005  0
C  C84  1  0.31942224  0.62074730  0.16320335  1  1.527371  0  0.226726  0.6286  0  4.172665  0
C  C85  1  0.65272342  0.83680252  0.45756434  1  1.569584  0  0.226268  0.626671  0  4.172861  0
C  C86  1  0.98618859  0.54248940  0.37928420  1  1.553654  0  0.226126  0.625886  0  4.175713  0
C  C87  1  0.97596426  0.23656614  0.85734829  1  -4.4e-05  0  -0.039027  -0.029675  0  4.04989  0
C  C88  1  0.30950922  0.14249524  0.37913646  1  -0.00167  0  -0.039525  -0.032126  0  4.0513  0
C  C89  1  0.64272071  0.62085728  0.76344179  1  6e-06  0  -0.038911  -0.030108  0  4.051118  0
C  C90  1  0.06819240  0.21863091  0.91577795  1  0.010306  0  -0.112067  -0.23945  0  3.98662  0
C  C91  1  0.40173968  0.08413990  0.30273954  1  0.076387  0  -0.110636  -0.236305  0  3.986977  0
C  C92  1  0.73498215  0.69722113  0.78144914  1  0.002331  0  -0.110977  -0.236657  0  3.986852  0
C  C93  1  0.02717237  0.17261393  0.97086656  1  0.435555  0  0.060975  0.20813  0  4.079412  0
C  C94  1  0.36069374  0.02903259  0.20165882  1  0.420638  0  0.060602  0.206287  0  4.081432  0
C  C95  1  0.69399285  0.79832957  0.82750914  1  0.420314  0  0.061017  0.206476  0  4.081483  0
C  C96  1  0.89676695  0.13838219  0.96452557  1  0.646796  0  0.057392  0.131735  0  4.185386  0
C  C97  1  0.23023847  0.03532736  0.17381293  1  0.673325  0  0.05702  0.132204  0  4.187912  0
C  C98  1  0.56355810  0.82619277  0.86167508  1  0.670808  0  0.056419  0.131431  0  4.187293  0
C  C99  1  0.80963370  0.15116495  0.90001109  1  0.36297  0  0.054212  0.185946  0  4.113125  0
C  C100  1  0.14311146  0.09978176  0.25113699  1  0.339624  0  0.053566  0.184176  0  4.116786  0
C  C101  1  0.47642061  0.74889990  0.84886594  1  0.31326  0  0.053602  0.185228  0  4.11563  0
C  C102  1  0.84561054  0.20389921  0.85066645  1  0.027639  0  -0.123192  -0.268039  0  4.050022  0
C  C103  1  0.17909886  0.14909103  0.35318692  1  -0.027818  0  -0.122662  -0.265713  0  4.049584  0
C  C104  1  0.51235836  0.64683149  0.79609176  1  0.034314  0  -0.122803  -0.267253  0  4.051873  0
C  C105  1  0.01345249  0.28763438  0.79885238  1  1.524524  0  0.218846  0.620727  0  4.185988  0
C  C106  1  0.34705444  0.20108557  0.48866182  1  1.533602  0  0.219561  0.622717  0  4.182249  0
C  C107  1  0.68019318  0.51131437  0.71237504  1  1.541957  0  0.219152  0.621146  0  4.186464  0
O  O108  1  0.89895747  0.92670964  0.04827372  1  -1.261187  0  -0.375784  -0.677385  0  2.330924  0
O  O109  1  0.23215919  0.95193431  0.87855679  1  -1.263816  0  -0.375373  -0.677046  0  2.33033  0
O  O110  1  0.56537411  0.12152684  0.07334505  1  -1.259875  0  -0.375874  -0.67777  0  2.331218  0
O  O111  1  0.68644056  0.95519673  0.08288237  1  -1.240722  0  -0.337742  -0.638497  0  2.2559  0
O  O112  1  0.01971259  0.91715665  0.87227771  1  -1.239911  0  -0.338481  -0.639326  0  2.256051  0
O  O113  1  0.35289732  0.12783995  0.04497770  1  -1.238255  0  -0.338007  -0.639272  0  2.25729  0
O  O114  1  0.66945256  0.67219017  0.20530150  1  -1.224601  0  -0.36502  -0.528478  0  2.472798  0
O  O115  1  0.00274785  0.79467624  0.46695380  1  -1.239346  0  -0.365178  -0.528651  0  2.473365  0
O  O116  1  0.33610481  0.53314583  0.32779853  1  -1.216026  0  -0.365643  -0.529814  0  2.472583  0
O  O117  1  0.91170041  0.67438772  0.26035323  1  -1.28109  0  -0.443309  -0.71592  0  2.385862  0
O  O118  1  0.24499348  0.73963386  0.41408679  1  -1.275559  0  -0.444143  -0.716961  0  2.386331  0
O  O119  1  0.57832820  0.58596499  0.32558013  1  -1.281955  0  -0.443991  -0.716312  0  2.38604  0
O  O120  1  0.08551723  0.81284371  0.27855282  1  -1.18596  0  -0.350669  -0.487087  0  2.375416  0
O  O121  1  0.41881537  0.72134962  0.53428517  1  -1.171682  0  -0.350919  -0.487924  0  2.375644  0
O  O122  1  0.75209975  0.46580359  0.18714288  1  -1.164022  0  -0.35085  -0.487632  0  2.374788  0
O  O123  1  0.20525069  0.61891875  0.19439142  1  -1.248865  0  -0.362997  -0.65159  0  2.284928  0
O  O124  1  0.53855008  0.80563928  0.42454058  1  -1.24987  0  -0.362946  -0.650952  0  2.284676  0
O  O125  1  0.87208585  0.57559065  0.38116156  1  -1.243861  0  -0.362672  -0.650188  0  2.287215  0
O  O126  1  0.41741209  0.66280011  0.22381362  1  -1.247575  0  -0.346901  -0.650875  0  2.272818  0
O  O127  1  0.75068834  0.77617321  0.43898982  1  -1.250096  0  -0.34622  -0.648835  0  2.273041  0
O  O128  1  0.08422640  0.56110751  0.33730639  1  -1.241597  0  -0.346433  -0.649818  0  2.27376  0
O  O129  1  0.13747357  0.48534005  0.81736071  1  -1.206485  0  -0.359207  -0.499197  0  2.369449  0
O  O130  1  0.47075017  0.18262789  0.66802737  1  -1.187396  0  -0.359614  -0.499648  0  2.370521  0
O  O131  1  0.80399405  0.33200039  0.51456693  1  -1.198667  0  -0.359442  -0.499719  0  2.371301  0
O  O132  1  0.36116047  0.39296664  0.73808940  1  -1.300327  0  -0.455975  -0.730174  0  2.429872  0
O  O133  1  0.69440288  0.26188864  0.65482012  1  -1.306584  0  -0.456095  -0.729814  0  2.428436  0
O  O134  1  0.02770029  0.34503089  0.60695192  1  -1.297003  0  -0.455631  -0.730575  0  2.429983  0
O  O135  1  0.57446078  0.41580111  0.84382476  1  -1.163075  0  -0.334701  -0.47157  0  2.372734  0
O  O136  1  0.90762878  0.15621015  0.57186423  1  -1.168528  0  -0.334737  -0.470964  0  2.371886  0
O  O137  1  0.24100438  0.42777744  0.58409482  1  -1.172572  0  -0.335472  -0.473394  0  2.373031  0
O  O138  1  0.12588360  0.27173662  0.75742588  1  -1.234198  0  -0.360137  -0.642394  0  2.182336  0
O  O139  1  0.45950159  0.24248269  0.51410936  1  -1.238029  0  -0.360071  -0.642784  0  2.179901  0
O  O140  1  0.79263358  0.48579137  0.72827689  1  -1.24194  0  -0.360152  -0.642535  0  2.181265  0
O  O141  1  0.92757917  0.34656235  0.79184937  1  -1.265524  0  -0.385592  -0.708719  0  2.224121  0
O  O142  1  0.26121874  0.20821974  0.55467236  1  -1.270443  0  -0.386138  -0.709459  0  2.222507  0
O  O143  1  0.59436081  0.44536227  0.65344199  1  -1.271455  0  -0.38611  -0.709337  0  2.224205  0
O  O144  1  0.10333528  0.15076926  0.03272522  1  -1.235334  0  -0.368364  -0.530518  0  2.447101  0
O  O145  1  0.43686856  0.96729108  0.11793790  1  -1.219483  0  -0.368737  -0.530924  0  2.447465  0
O  O146  1  0.77017412  0.88202092  0.84942701  1  -1.208088  0  -0.369321  -0.531277  0  2.448514  0
O  O147  1  0.86132284  0.08947856  0.01348540  1  -1.276843  0  -0.432354  -0.712857  0  2.360481  0
O  O148  1  0.19473935  0.98646621  0.07598298  1  -1.274458  0  -0.431906  -0.711988  0  2.360283  0
O  O149  1  0.52807896  0.92403473  0.91054844  1  -1.288546  0  -0.431437  -0.711838  0  2.360744  0
O  O150  1  0.68894970  0.10497636  0.89086081  1  -1.172409  0  -0.341005  -0.474851  0  2.352493  0
O  O151  1  0.02240507  0.10898242  0.21415835  1  -1.161732  0  -0.341076  -0.476087  0  2.352312  0
O  O152  1  0.35571942  0.78592881  0.89505816  1  -1.169498  0  -0.341139  -0.476285  0  2.351948  0
