# generated using pymatgen
data_CuH38C26(NO2)4
_symmetry_space_group_name_H-M   'P 1'
_cell_length_a   6.67747657
_cell_length_b   10.13143044
_cell_length_c   10.54068723
_cell_angle_alpha   86.81893400
_cell_angle_beta   82.74148665
_cell_angle_gamma   85.89684330
_symmetry_Int_Tables_number   1
_chemical_formula_structural   CuH38C26(NO2)4
_chemical_formula_sum   'Cu1 H38 C26 N4 O8'
_cell_volume   704.79688655
_cell_formula_units_Z   1
loop_
 _symmetry_equiv_pos_site_id
 _symmetry_equiv_pos_as_xyz
  1  'x, y, z'
loop_
 _atom_site_type_symbol
 _atom_site_label
 _atom_site_symmetry_multiplicity
 _atom_site_fract_x
 _atom_site_fract_y
 _atom_site_fract_z
 _atom_site_occupancy
 _atom_site_hle17_ddec_charge
 _atom_site_hle17_ddec_spin_density
 _atom_site_hle17_ddec_sum_bond_order
 _atom_site_hle17_magmom
 _atom_site_hse06_10hf_ddec_charge
 _atom_site_hse06_10hf_ddec_spin_density
 _atom_site_hse06_10hf_ddec_sum_bond_order
 _atom_site_hse06_10hf_magmom
 _atom_site_hse06_ddec_charge
 _atom_site_hse06_ddec_spin_density
 _atom_site_hse06_ddec_sum_bond_order
 _atom_site_hse06_magmom
 _atom_site_pbe_cm5_charge
 _atom_site_pbe_ddec_charge
 _atom_site_pbe_ddec_spin_density
 _atom_site_pbe_ddec_sum_bond_order
 _atom_site_pbe_magmom
Cu  Cu0  1  0.00825989  0.33278456  0.50023872  1  0.944338  0.67564  1.696821  0.499  0.950909  0.775422  2.076885  0.623  1.056642  0.83991  1.986058  0.71  0.70223  0.88639  0.729453  2.135854  0.568
H  H1  1  0.70735163  0.29880235  0.02749661  1  0.121051  -2e-06  0.94214  0.0  0.12607  4.8e-05  1.010412  0.0  0.129856  2.2e-05  1.004735  0.0  0.15297  0.123266  9e-05  1.014469  0.0
H  H2  1  0.31551115  0.37839789  0.05178417  1  0.131798  -1.4e-05  0.942443  0.0  0.142762  1.6e-05  1.001355  0.0  0.145579  1e-05  0.999751  0.0  0.136035  0.140682  2.5e-05  1.002653  0.0
H  H3  1  0.28291523  0.29774314  0.80636495  1  0.148769  5.2e-05  0.938242  0.0  0.155014  8.4e-05  1.00099  0.0  0.158944  5.3e-05  0.998028  0.0  0.138344  0.152224  0.000116  1.003106  0.0
H  H4  1  0.08360056  0.38360163  0.25193905  1  0.097288  -0.000665  0.93969  0.0  0.100234  -0.000557  1.013167  0.0  0.103157  -0.000599  1.009924  0.0  0.123841  0.098032  -0.000486  1.01576  0.0
H  H5  1  0.80294106  0.52086158  0.33729564  1  0.052652  -0.000374  0.926459  0.0  0.062263  -0.000361  0.995454  0.0  0.062209  -0.000391  0.995741  0.0  0.098939  0.0621  -0.000311  0.995634  0.0
H  H6  1  0.94534265  0.61633289  0.06082825  1  0.091638  1e-06  0.963203  0.0  0.111487  -9e-06  1.027442  0.0  0.112922  -1e-05  1.027613  0.0  0.082034  0.110381  -1.1e-05  1.027348  0.0
H  H7  1  0.07657725  0.62725331  0.19727731  1  0.108636  3.2e-05  0.950457  0.0  0.131402  2.5e-05  1.008659  0.0  0.132858  2.6e-05  1.008667  0.0  0.089022  0.130297  3e-05  1.008724  0.0
H  H8  1  0.84212489  0.71902501  0.18666464  1  0.094541  1.2e-05  0.972171  0.0  0.116414  9e-06  1.036034  0.0  0.117171  6e-06  1.037556  0.0  0.085576  0.115853  1.7e-05  1.034898  0.0
H  H9  1  0.50915638  0.59915340  0.23084077  1  0.104726  1.5e-05  0.954684  0.0  0.127071  2e-06  1.014924  0.0  0.12876  5e-06  1.014998  0.0  0.087585  0.1258  4e-06  1.01496  0.0
H  H10  1  0.51808064  0.42426770  0.24401350  1  0.114739  -2e-06  0.946257  0.0  0.135207  2.4e-05  1.006487  0.0  0.137528  1.1e-05  1.005672  0.0  0.089608  0.133586  4e-05  1.006977  0.0
H  H11  1  0.59679140  0.50880969  0.09345430  1  0.093651  8e-06  0.960961  0.0  0.114592  1e-06  1.025435  0.0  0.116153  -6e-06  1.025153  0.0  0.083525  0.113366  1e-05  1.025752  0.0
H  H12  1  0.00007394  0.21912664  0.70339194  1  0.087989  -0.000995  0.962979  0.0  0.087382  -0.000901  1.040719  0.0  0.0899  -0.000969  1.036789  0.0  0.115604  0.085249  -0.000797  1.043903  0.0
H  H13  1  0.62072996  0.15990975  0.88577281  1  0.033716  8e-06  0.924085  0.0  0.050008  -3e-06  0.981301  0.0  0.05022  -9e-06  0.982457  0.0  0.092363  0.049844  1e-05  0.980471  0.0
H  H14  1  0.77737478  0.92475743  0.88040936  1  0.099318  2e-05  0.956964  0.0  0.124542  1.1e-05  1.013122  0.0  0.125514  5e-06  1.014009  0.0  0.089077  0.123822  1.7e-05  1.012482  0.0
H  H15  1  0.92623708  0.03093337  0.95171889  1  0.092665  1.1e-05  0.964602  0.0  0.109573  1.6e-05  1.034141  0.0  0.111373  8e-06  1.03366  0.0  0.082734  0.108255  2.4e-05  1.03449  0.0
H  H16  1  0.99904795  0.98471441  0.79077850  1  0.108529  3.1e-05  0.953396  0.0  0.132569  2.3e-05  1.010361  0.0  0.133905  2.2e-05  1.010599  0.0  0.08947  0.131563  2.9e-05  1.010219  0.0
H  H17  1  0.76779754  0.06849476  0.61469273  1  0.109972  -5.4e-05  0.956237  0.0  0.127669  -7.7e-05  1.024842  0.0  0.129164  -8.1e-05  1.025075  0.0  0.086479  0.12656  -6.2e-05  1.024747  0.0
H  H18  1  0.55608944  0.18003927  0.65549138  1  0.116424  -3.8e-05  0.941334  0.0  0.137937  -3.2e-05  0.998367  0.0  0.14009  -3.9e-05  0.997741  0.0  0.090177  0.136418  -2.1e-05  0.998787  0.0
H  H19  1  0.55245597  0.01300173  0.71564007  1  0.096183  2.6e-05  0.961873  0.0  0.116578  -1e-06  1.026518  0.0  0.118235  -7e-06  1.026511  0.0  0.082789  0.115418  9e-06  1.026413  0.0
H  H20  1  0.17080815  0.84056848  0.51274551  1  0.12192  -0.000263  0.93573  0.0  0.131106  -6.4e-05  0.996075  0.0  0.134196  -5e-05  0.991544  0.0  0.153025  0.128829  -3.4e-05  0.999219  0.0
H  H21  1  0.78394900  0.90058121  0.38113919  1  0.1278  -2.4e-05  0.966635  0.0  0.13845  -2.9e-05  1.02522  0.0  0.141308  -2.2e-05  1.023785  0.0  0.133901  0.136281  -4e-06  1.026479  0.0
H  H22  1  0.76150094  0.66016622  0.52601937  1  0.142335  -9e-06  0.951123  0.0  0.14701  -1.3e-05  1.017115  0.0  0.150313  -1.7e-05  1.015256  0.0  0.134984  0.144557  2.5e-05  1.018628  0.0
H  H23  1  0.49809567  0.54104444  0.63603684  1  0.112967  -6.2e-05  0.955618  0.0  0.117273  0.000274  1.020804  0.0  0.122556  0.000165  1.016149  0.0  0.125279  0.11348  0.000357  1.024113  0.0
H  H24  1  0.25256764  0.54500621  0.80571263  1  0.051963  0.000123  0.944552  0.0  0.065858  0.000101  1.005493  0.0  0.066088  6.9e-05  1.006816  0.0  0.096308  0.065692  0.000153  1.004604  0.0
H  H25  1  0.37137999  0.83301195  0.77154707  1  0.08846  0.0  0.971767  0.0  0.105908  1.3e-05  1.041944  0.0  0.1071  8e-06  1.042145  0.0  0.080818  0.105088  1.9e-05  1.041622  0.0
H  H26  1  0.52381875  0.69339641  0.82463772  1  0.107964  -4.4e-05  0.951186  0.0  0.12826  -3e-05  1.01404  0.0  0.130338  -2.2e-05  1.013346  0.0  0.0879  0.126667  -3.5e-05  1.014649  0.0
H  H27  1  0.29441198  0.74621392  0.91828130  1  0.096725  3e-05  0.948423  0.0  0.1215  1.5e-05  1.004888  0.0  0.122453  6e-06  1.005629  0.0  0.086528  0.120789  2.3e-05  1.004368  0.0
H  H28  1  0.95556393  0.70469419  0.84622958  1  0.096832  -8e-06  0.958152  0.0  0.120409  1e-06  1.017851  0.0  0.121712  -2e-06  1.017895  0.0  0.086418  0.119378  -1e-06  1.017942  0.0
H  H29  1  0.94511740  0.61901144  0.70546408  1  0.104772  -0.000122  0.977468  0.0  0.123144  -7.2e-05  1.043682  0.0  0.124808  -6.4e-05  1.043863  0.0  0.085702  0.121893  -7.4e-05  1.043662  0.0
H  H30  1  0.01351345  0.78648709  0.69556488  1  0.090219  -4e-06  0.973355  0.0  0.11197  -1.3e-05  1.037258  0.0  0.112482  -1e-05  1.038419  0.0  0.083562  0.111494  -3e-06  1.03661  0.0
H  H31  1  0.30673170  0.11011047  0.18918031  1  0.054538  0.000153  0.912402  0.0  0.069771  0.000147  0.968032  0.0  0.070252  9.8e-05  0.968844  0.0  0.098295  0.06946  0.00021  0.967438  0.0
H  H32  1  0.07286087  0.93869714  0.15268360  1  0.102438  -8e-06  0.945979  0.0  0.127996  8e-06  1.00269  0.0  0.129403  1e-06  1.002761  0.0  0.088673  0.126902  9e-06  1.002803  0.0
H  H33  1  0.01336546  0.00187038  0.30686718  1  0.101289  -9.3e-05  0.980121  0.0  0.120156  -6.2e-05  1.046369  0.0  0.121828  -4.8e-05  1.046087  0.0  0.086285  0.118868  -6.9e-05  1.046722  0.0
H  H34  1  0.14351293  0.84162850  0.28684589  1  0.093568  2.7e-05  0.969271  0.0  0.11357  1.3e-05  1.037226  0.0  0.11447  7e-06  1.037712  0.0  0.084718  0.112853  3.7e-05  1.036904  0.0
H  H35  1  0.51573158  0.82989454  0.17484800  1  0.087597  1.3e-05  0.973177  0.0  0.106619  1.7e-05  1.041826  0.0  0.107559  9e-06  1.042521  0.0  0.080816  0.10592  2.5e-05  1.041256  0.0
H  H36  1  0.63429559  0.98060357  0.12875551  1  0.112393  1e-06  0.963779  0.0  0.132424  1.2e-05  1.02772  0.0  0.134143  5e-06  1.027574  0.0  0.090214  0.131071  1.9e-05  1.027961  0.0
H  H37  1  0.43908620  0.93049641  0.04480376  1  0.098341  4e-05  0.949319  0.0  0.122964  2e-05  1.005961  0.0  0.123831  1e-05  1.006764  0.0  0.087908  0.122319  2.9e-05  1.00532  0.0
H  H38  1  0.54832414  0.08103294  0.33717068  1  0.116563  -0.000431  0.95854  0.0  0.120718  -4.9e-05  1.02134  0.0  0.125727  -6.4e-05  1.017323  0.0  0.126045  0.117145  -3.7e-05  1.02412  0.0
C  C39  1  0.86619486  0.31014315  0.00140726  1  0.175284  0.001041  3.541682  0.001  0.097022  0.000351  3.810563  0.0  0.116235  0.000148  3.815367  0.0  0.17836  0.084359  0.000559  3.807302  0.0
C  C40  1  0.18732072  0.34779531  0.01006859  1  -0.036946  0.000626  3.63163  0.001  -0.083958  0.000271  3.901673  0.0  -0.081747  0.000128  3.917705  0.0  0.019311  -0.085584  0.000442  3.891008  0.0
C  C41  1  0.17210249  0.30702739  0.89021844  1  -0.016386  0.000134  3.608713  0.0  -0.064914  -1.8e-05  3.879349  0.0  -0.060792  -0.000112  3.893456  0.0  0.025392  -0.067628  0.000127  3.86984  0.0
C  C42  1  0.94017193  0.37662135  0.21285836  1  -0.073305  -0.000857  3.566683  0.0  -0.106081  -0.000632  3.814545  0.0  -0.107821  -0.000811  3.826219  0.0  0.016235  -0.104936  -0.000523  3.806724  0.0
C  C43  1  0.81294120  0.50945814  0.23333183  1  0.085527  -4.2e-05  3.639646  0.0  0.088892  -6.1e-05  3.885754  0.0  0.088839  -0.000151  3.905287  0.0  -0.086119  0.089021  4.7e-05  3.872257  0.0
C  C44  1  0.92666012  0.62425636  0.16543026  1  -0.322289  -1.3e-05  3.688725  0.0  -0.401236  9e-06  3.92896  0.0  -0.404213  1.7e-05  3.940127  0.0  -0.247607  -0.398881  1e-05  3.921108  0.0
C  C45  1  0.59751675  0.50910444  0.19788383  1  -0.330972  -2.4e-05  3.672397  0.0  -0.40878  4.6e-05  3.909728  0.0  -0.412229  3.4e-05  3.919951  0.0  -0.24982  -0.406153  5.8e-05  3.902684  0.0
C  C46  1  0.87594915  0.24825412  0.77730675  1  -0.066165  -0.000573  3.55756  0.0  -0.094043  -0.000549  3.794894  0.0  -0.095457  -0.000798  3.807071  0.0  0.01645  -0.092997  -0.000337  3.786899  0.0
C  C47  1  0.74807907  0.37239491  0.73335397  1  0.635554  -0.006492  3.871573  -0.006  0.592325  -0.001543  4.180696  -0.002  0.627564  -0.001588  4.176  -0.001  0.208412  0.568336  -0.001496  4.18325  -0.002
C  C48  1  0.74358294  0.12964005  0.81080884  1  0.089682  0.00011  3.649399  0.0  0.095899  7.6e-05  3.887768  0.0  0.095425  2.1e-05  3.907022  0.0  -0.085359  0.0962  0.00012  3.874551  0.0
C  C49  1  0.86924482  0.01095066  0.86177168  1  -0.324612  8.2e-05  3.687297  0.0  -0.406164  7.1e-05  3.928208  0.0  -0.409128  5.2e-05  3.939188  0.0  -0.247736  -0.403839  8.6e-05  3.92061  0.0
C  C50  1  0.64924136  0.09633141  0.69245604  1  -0.325782  -0.000203  3.657895  0.0  -0.404797  -0.000106  3.899015  0.0  -0.408426  -0.000141  3.909608  0.0  -0.248805  -0.40201  -7.6e-05  3.891611  0.0
C  C51  1  0.33267229  0.82347280  0.49590862  1  0.17159  0.004627  3.525632  0.004  0.09479  0.002402  3.793557  0.002  0.113033  0.001639  3.7986  0.002  0.178728  0.083177  0.001473  3.789586  0.001
C  C52  1  0.65641446  0.85075344  0.43008609  1  -0.032246  -0.000283  3.638696  0.0  -0.076435  -0.000151  3.9017  0.0  -0.074907  -0.00015  3.920162  0.0  0.022274  -0.077421  0.000485  3.889231  0.001
C  C53  1  0.64549377  0.73413470  0.50146630  1  -0.028017  -0.000547  3.615005  0.0  -0.070906  -0.000156  3.878559  0.0  -0.069063  -0.000139  3.896558  0.0  0.024557  -0.072026  0.000465  3.866335  0.0
C  C54  1  0.36415544  0.60552175  0.61899952  1  -0.060085  0.007241  3.535081  0.008  -0.083642  0.004563  3.761115  0.005  -0.086042  0.003231  3.770617  0.004  0.017838  -0.081906  0.005742  3.754402  0.006
C  C55  1  0.25060901  0.64084936  0.75167868  1  0.08298  -0.000553  3.633637  0.0  0.088304  -0.000221  3.872476  0.0  0.08855  -0.000238  3.890422  0.0  -0.08817  0.088163  -5.8e-05  3.860107  0.0
C  C56  1  0.36773422  0.73389335  0.81981785  1  -0.318582  2.4e-05  3.693312  0.0  -0.399588  -7.7e-05  3.938167  0.0  -0.40222  -6.9e-05  3.948443  0.0  -0.24635  -0.397494  -4.7e-05  3.93103  0.0
C  C57  1  0.02953117  0.69049929  0.74830465  1  -0.330293  -2.4e-05  3.688766  0.0  -0.412052  -1.7e-05  3.930572  0.0  -0.41521  -3.5e-05  3.942094  0.0  -0.251887  -0.409617  4e-06  3.922822  0.0
C  C58  1  0.23130907  0.52846696  0.54424572  1  0.64213  -0.007607  3.88063  -0.007  0.600757  -0.002561  4.188078  -0.003  0.636252  -0.003143  4.183859  -0.003  0.202903  0.576715  -0.001851  4.190878  -0.003
C  C59  1  0.33008711  0.00859876  0.23004530  1  0.092145  -0.000484  3.63346  0.0  0.098629  -0.000156  3.872336  0.0  0.098951  -0.000187  3.890079  0.0  -0.085677  0.098361  2.1e-05  3.860219  0.0
C  C60  1  0.12860847  0.94366232  0.24590847  1  -0.333265  1.2e-05  3.687417  0.0  -0.417547  2e-05  3.932604  0.0  -0.420736  8e-06  3.943924  0.0  -0.251459  -0.415087  3.7e-05  3.925062  0.0
C  C61  1  0.48999038  0.93328573  0.13977301  1  -0.325648  2.5e-05  3.688372  0.0  -0.407135  -1.6e-05  3.931177  0.0  -0.409812  -2.7e-05  3.941802  0.0  -0.249188  -0.404952  7e-06  3.923759  0.0
C  C62  1  0.40718002  0.02991769  0.35967883  1  -0.068289  0.00705  3.535091  0.007  -0.091726  0.004458  3.764427  0.005  -0.094458  0.003178  3.774513  0.004  0.016741  -0.089721  0.005605  3.757325  0.006
C  C63  1  0.25737695  0.11980974  0.44438429  1  0.642922  -0.007551  3.874421  -0.007  0.59849  -0.002436  4.186562  -0.003  0.634283  -0.003032  4.182208  -0.003  0.203169  0.574211  -0.001756  4.189544  -0.003
C  C64  1  0.83106741  0.25864022  0.28359265  1  0.639439  -0.006198  3.875217  -0.005  0.596234  -0.000539  4.184063  -0.001  0.631987  -0.000891  4.178866  -0.001  0.208551  0.571938  -6.9e-05  4.18686  -0.001
N  N65  1  0.99495474  0.34914161  0.07770371  1  -0.047321  0.000175  3.564453  0.0  0.042432  0.000153  3.781407  0.0  0.028715  5e-06  3.806202  0.0  -0.226295  0.051409  0.000349  3.764547  0.0
N  N66  1  0.97059726  0.28409527  0.88756292  1  -0.04282  -0.000236  3.55685  0.0  0.047317  -5.3e-05  3.772039  0.0  0.033265  -9.2e-05  3.796099  0.0  -0.222886  0.056374  -7e-06  3.755805  0.0
N  N67  1  0.44218545  0.71948671  0.54186216  1  -0.040322  -1.6e-05  3.562177  0.0  0.047025  0.000547  3.780038  0.001  0.033453  0.000245  3.805045  0.0  -0.221498  0.056088  0.001167  3.762602  0.001
N  N68  1  0.46053939  0.90506761  0.42795727  1  -0.037431  -3.9e-05  3.553344  0.0  0.05011  0.000633  3.770113  0.001  0.03665  0.00033  3.795382  0.0  -0.221336  0.059111  0.00121  3.752534  0.001
O  O69  1  0.78262224  0.41474781  0.61544251  1  -0.61073  0.070675  2.065875  0.097  -0.581777  0.048785  2.348975  0.073  -0.624389  0.037469  2.337199  0.061  -0.329886  -0.554146  0.055856  2.356334  0.079
O  O70  1  0.61713802  0.42335988  0.81442477  1  -0.59596  0.012029  1.893407  0.016  -0.554961  0.006854  2.116912  0.01  -0.5808  0.003584  2.111049  0.006  -0.316306  -0.536295  0.010202  2.119868  0.014
O  O71  1  0.20281587  0.41129890  0.59463903  1  -0.599924  0.086408  2.035209  0.118  -0.573981  0.056905  2.312021  0.085  -0.618274  0.043782  2.304734  0.071  -0.330813  -0.546018  0.064549  2.316566  0.091
O  O72  1  0.15589143  0.57956943  0.44898520  1  -0.6307  -0.001231  1.89474  0.001  -0.597563  -0.00153  2.125595  0.0  -0.623678  -0.002524  2.117457  -0.001  -0.332483  -0.580255  -0.000594  2.131107  0.001
O  O73  1  0.23177333  0.23722002  0.39248077  1  -0.605398  0.086701  2.033542  0.118  -0.579609  0.05782  2.309655  0.086  -0.623445  0.044427  2.301377  0.072  -0.331289  -0.551839  0.065614  2.314856  0.092
O  O74  1  0.17100166  0.07888068  0.54988297  1  -0.62102  -0.001043  1.921072  0.001  -0.586808  -0.001293  2.154036  0.0  -0.612885  -0.00225  2.145993  -0.001  -0.323974  -0.569508  -0.000353  2.159384  0.001
O  O75  1  0.81556445  0.25473290  0.40637937  1  -0.604125  0.068633  2.064449  0.094  -0.578075  0.045351  2.346923  0.068  -0.620919  0.034796  2.335559  0.056  -0.335025  -0.550333  0.051785  2.353908  0.073
O  O76  1  0.75859651  0.17720024  0.22037309  1  -0.585926  0.015388  1.950097  0.021  -0.541238  0.008768  2.173646  0.013  -0.567301  0.005235  2.167463  0.008  -0.30473  -0.522611  0.012313  2.176884  0.017
