# generated using pymatgen
data_H8PbC10(NCl)2
_symmetry_space_group_name_H-M   'P 1'
_cell_length_a   3.93222378
_cell_length_b   11.91529874
_cell_length_c   12.18399252
_cell_angle_alpha   94.09719009
_cell_angle_beta   93.43076309
_cell_angle_gamma   93.08630800
_symmetry_Int_Tables_number   1
_chemical_formula_structural   H8PbC10(NCl)2
_chemical_formula_sum   'H16 Pb2 C20 N4 Cl4'
_cell_volume   567.41567480
_cell_formula_units_Z   2
loop_
 _symmetry_equiv_pos_site_id
 _symmetry_equiv_pos_as_xyz
  1  'x, y, z'
loop_
 _atom_site_type_symbol
 _atom_site_label
 _atom_site_symmetry_multiplicity
 _atom_site_fract_x
 _atom_site_fract_y
 _atom_site_fract_z
 _atom_site_occupancy
 _atom_site_pbe_bader_charge
 _atom_site_pbe_bader_spin_density
 _atom_site_pbe_cm5_charge
 _atom_site_pbe_ddec_charge
 _atom_site_pbe_ddec_spin_density
 _atom_site_pbe_ddec_sum_bond_order
 _atom_site_pbe_magmom
H  H0  1  0.99360666  0.47146071  0.09258771  1  0.087042  0  0.107618  0.07493  0  1.012069  0
H  H1  1  0.00674111  0.52851075  0.90744172  1  0.086662  0  0.107562  0.075028  0  1.012069  0
H  H2  1  0.79148404  0.27107538  0.08230443  1  0.128906  0  0.093234  0.112126  0  1.051625  0
H  H3  1  0.20864411  0.72890779  0.91769943  1  0.128729  0  0.093197  0.112071  0  1.051779  0
H  H4  1  0.52193108  0.32321967  0.42130904  1  0.127739  0  0.093906  0.110961  0  1.05477  0
H  H5  1  0.47782429  0.67680297  0.57866249  1  0.128099  0  0.093881  0.110936  0  1.054945  0
H  H6  1  0.74765014  0.52329780  0.41725548  1  0.082318  0  0.104047  0.076057  0  1.021742  0
H  H7  1  0.25225490  0.47670636  0.58272584  1  0.081895  0  0.104021  0.075989  0  1.021794  0
H  H8  1  0.50883130  0.93916011  0.41540895  1  0.081759  0  0.104435  0.080245  0  1.042913  0
H  H9  1  0.49103990  0.06086931  0.58460385  1  0.081421  0  0.104387  0.080241  0  1.042863  0
H  H10  1  0.68177664  0.14421577  0.42341344  1  0.128524  0  0.094618  0.114  0  1.056973  0
H  H11  1  0.31804703  0.85581870  0.57658731  1  0.130211  0  0.094617  0.114091  0  1.056972  0
H  H12  1  0.34287750  0.13770538  0.07826574  1  0.13378  0  0.095646  0.114354  0  1.04893  0
H  H13  1  0.65724473  0.86225841  0.92170135  1  0.134384  0  0.095706  0.114475  0  1.048728  0
H  H14  1  0.18665593  0.93184335  0.08573819  1  0.098254  0  0.105702  0.08066  0  1.02213  0
H  H15  1  0.81349114  0.06813140  0.91425477  1  0.098162  0  0.105625  0.080708  0  1.021896  0
Pb  Pb16  1  0.28170123  0.71073856  0.25358884  1  1.258637  0  0.465262  0.834188  0  2.206544  0
Pb  Pb17  1  0.71825114  0.28927404  0.74644405  1  1.258703  0  0.465274  0.834179  0  2.206555  0
C  C18  1  0.88717442  0.43579125  0.16412271  1  0.454816  0  0.043067  0.097117  0  3.984216  0
C  C19  1  0.11301502  0.56419279  0.83589224  1  0.455135  0  0.043027  0.096927  0  3.985019  0
C  C20  1  0.77113464  0.32310134  0.15850729  1  0.027214  0  -0.083796  -0.160255  0  3.9254  0
C  C21  1  0.22896258  0.67689447  0.84150014  1  0.027731  0  -0.083587  -0.159933  0  3.925415  0
C  C22  1  0.63944806  0.27897150  0.25182928  1  -0.042513  0  0.01159  0.105425  0  3.950858  0
C  C23  1  0.36051215  0.72102762  0.74816178  1  -0.041844  0  0.011559  0.105259  0  3.950965  0
C  C24  1  0.62796949  0.35226475  0.34691825  1  -0.066106  0  -0.081935  -0.153249  0  3.909656  0
C  C25  1  0.37190614  0.64774614  0.65306544  1  -0.067317  0  -0.082004  -0.153301  0  3.909705  0
C  C26  1  0.75041487  0.46373958  0.34483499  1  0.498191  0  0.036111  0.083651  0  3.992081  0
C  C27  1  0.24956842  0.53626040  0.65515657  1  0.498232  0  0.036319  0.08409  0  3.991822  0
C  C28  1  0.47175953  0.98702667  0.34317605  1  0.482941  0  0.044858  0.094849  0  3.954698  0
C  C29  1  0.52816313  0.01299098  0.65683200  1  0.483305  0  0.044836  0.094922  0  3.954812  0
C  C30  1  0.56619321  0.10130777  0.34715330  1  -0.010912  0  -0.08177  -0.158665  0  3.907935  0
C  C31  1  0.43368236  0.89871744  0.65284124  1  -0.012446  0  -0.081573  -0.158674  0  3.908192  0
C  C32  1  0.52642481  0.15870848  0.25112587  1  -0.049981  0  0.014481  0.114465  0  3.952985  0
C  C33  1  0.47352506  0.84128980  0.74885673  1  -0.05049  0  0.014229  0.114308  0  3.953224  0
C  C34  1  0.38515384  0.09703815  0.15504186  1  -0.032698  0  -0.08566  -0.174269  0  3.921349  0
C  C35  1  0.61490776  0.90294332  0.84493269  1  -0.033033  0  -0.085657  -0.174397  0  3.921235  0
C  C36  1  0.29695609  0.98276683  0.15848687  1  0.467712  0  0.042993  0.092248  0  3.967242  0
C  C37  1  0.70310654  0.01722053  0.84150370  1  0.468127  0  0.043012  0.092232  0  3.966433  0
N  N38  1  0.87883167  0.50573576  0.25534710  1  -1.265021  0  -0.313577  -0.296674  0  3.490914  0
N  N39  1  0.12133347  0.49425502  0.74467277  1  -1.264541  0  -0.31363  -0.296948  0  3.491541  0
N  N40  1  0.34203780  0.92806104  0.25061356  1  -1.24022  0  -0.300585  -0.236177  0  3.481096  0
N  N41  1  0.65796282  0.07195074  0.74938738  1  -1.240674  0  -0.300493  -0.2362  0  3.480706  0
Cl  Cl42  1  0.78799029  0.73255894  0.08409838  1  -0.673827  0  -0.256235  -0.501486  0  1.181996  0
Cl  Cl43  1  0.21195413  0.26742248  0.91591986  1  -0.673998  0  -0.256208  -0.501402  0  1.182053  0
Cl  Cl44  1  0.86429479  0.75673668  0.42704461  1  -0.676556  0  -0.254026  -0.504534  0  1.180422  0
Cl  Cl45  1  0.13560756  0.24326663  0.57297600  1  -0.676449  0  -0.254082  -0.504566  0  1.180377  0
