# generated using pymatgen
data_CdH19C17N2O7
_symmetry_space_group_name_H-M   'P 1'
_cell_length_a   10.26630561
_cell_length_b   10.34120096
_cell_length_c   9.94669097
_cell_angle_alpha   82.35044189
_cell_angle_beta   77.19035353
_cell_angle_gamma   59.25386720
_symmetry_Int_Tables_number   1
_chemical_formula_structural   CdH19C17N2O7
_chemical_formula_sum   'Cd2 H38 C34 N4 O14'
_cell_volume   884.73560198
_cell_formula_units_Z   2
loop_
 _symmetry_equiv_pos_site_id
 _symmetry_equiv_pos_as_xyz
  1  'x, y, z'
loop_
 _atom_site_type_symbol
 _atom_site_label
 _atom_site_symmetry_multiplicity
 _atom_site_fract_x
 _atom_site_fract_y
 _atom_site_fract_z
 _atom_site_occupancy
 _atom_site_hle17_bader_spin_density
 _atom_site_hle17_ddec_charge
 _atom_site_hle17_ddec_spin_density
 _atom_site_hle17_ddec_sum_bond_order
 _atom_site_hle17_magmom
 _atom_site_hse06_10hf_bader_spin_density
 _atom_site_hse06_10hf_ddec_charge
 _atom_site_hse06_10hf_ddec_spin_density
 _atom_site_hse06_10hf_ddec_sum_bond_order
 _atom_site_hse06_10hf_magmom
 _atom_site_hse06_bader_spin_density
 _atom_site_hse06_ddec_charge
 _atom_site_hse06_ddec_spin_density
 _atom_site_hse06_ddec_sum_bond_order
 _atom_site_hse06_magmom
 _atom_site_pbe_bader_spin_density
 _atom_site_pbe_cm5_charge
 _atom_site_pbe_ddec_charge
 _atom_site_pbe_ddec_spin_density
 _atom_site_pbe_ddec_sum_bond_order
 _atom_site_pbe_magmom
Cd  Cd0  1  0.63963846  0.20222155  0.99413171  1  0  1.192914  0  1.566918  0  0  1.009205  0  2.000073  0  0  1.06798  0  1.944274  0  0  0.765687  0.963164  0  2.041276  0
Cd  Cd1  1  0.36036653  0.79777138  0.00588039  1  0  1.192892  0  1.566904  0  0  1.009191  0  2.000059  0  0  1.06797  0  1.94426  0  0  0.765699  0.963152  0  2.041266  0
H  H2  1  0.48370105  0.49116152  0.84494544  1  0  0.425379  0  0.878129  0  0  0.394697  0  0.94219  0  0  0.40547  0  0.926628  0  0  0.2904  0.387  0  0.953317  0
H  H3  1  0.51629889  0.50882946  0.15506300  1  0  0.425372  0  0.878153  0  0  0.394667  0  0.942219  0  0  0.40547  0  0.926631  0  0  0.290368  0.386977  0  0.953334  0
H  H4  1  0.63594952  0.47185543  0.86679393  1  0  0.424722  0  0.865331  0  0  0.395313  0  0.933493  0  0  0.405753  0  0.9182  0  0  0.294659  0.387864  0  0.944396  0
H  H5  1  0.36405886  0.52813055  0.13319996  1  0  0.424792  0  0.865196  0  0  0.395413  0  0.933333  0  0  0.405848  0  0.91805  0  0  0.294729  0.387966  0  0.944234  0
H  H6  1  0.56892771  0.84913308  0.70661048  1  0  0.29091  0  0.912158  0  0  0.273877  0  0.976246  0  0  0.280463  0  0.972104  0  0  0.309022  0.269166  0  0.979399  0
H  H7  1  0.43106858  0.15087091  0.29338443  1  0  0.290973  0  0.912081  0  0  0.273994  0  0.976153  0  0  0.280579  0  0.972001  0  0  0.308988  0.269284  0  0.979303  0
H  H8  1  0.65042406  0.92238315  0.10733477  1  0  0.432522  0  0.873139  0  0  0.399293  0  0.941363  0  0  0.411027  0  0.924304  0  0  0.286356  0.39073  0  0.953895  0
H  H9  1  0.34957599  0.07760563  0.89267287  1  0  0.432561  0  0.873079  0  0  0.399301  0  0.941318  0  0  0.411029  0  0.924271  0  0  0.28637  0.390738  0  0.953848  0
H  H10  1  0.70625427  0.95255527  0.23159976  1  0  0.442464  0  0.838407  0  0  0.41541  0  0.894567  0  0  0.425613  0  0.87957  0  0  0.303224  0.407304  0  0.906627  0
H  H11  1  0.29374470  0.04743567  0.76840993  1  0  0.442434  0  0.838439  0  0  0.415413  0  0.894549  0  0  0.425615  0  0.879553  0  0  0.303213  0.407306  0  0.90661  0
H  H12  1  0.11372671  0.21536693  0.99086590  1  0  0.09754  0  0.970202  0  0  0.104444  0  1.04021  0  0  0.108194  0  1.036644  0  0  0.10511  0.101833  0  1.042812  0
H  H13  1  0.88627348  0.78463336  0.00913451  1  0  0.09754  0  0.970196  0  0  0.10446  0  1.040189  0  0  0.108211  0  1.036621  0  0  0.105112  0.10185  0  1.042793  0
H  H14  1  0.13672057  0.51472164  0.23595318  1  0  0.10024  0  0.9392  0  0  0.1131  0  0.99551  0  0  0.116563  0  0.992823  0  0  0.106642  0.110735  0  0.997057  0
H  H15  1  0.86329254  0.48527287  0.76404679  1  0  0.100173  0  0.939235  0  0  0.113013  0  0.995584  0  0  0.116492  0  0.992875  0  0  0.106607  0.110645  0  0.997141  0
H  H16  1  0.85716263  0.62576472  0.32898135  1  0  0.102582  0  0.987552  0  0  0.110624  0  1.048461  0  0  0.11439  0  1.04676  0  0  0.097787  0.108138  0  1.049337  0
H  H17  1  0.14284457  0.37423757  0.67102124  1  0  0.102531  0  0.987644  0  0  0.110557  0  1.048575  0  0  0.114321  0  1.04687  0  0  0.097742  0.108072  0  1.049444  0
H  H18  1  0.70914788  0.52139233  0.26045191  1  0  0.097285  0  0.958007  0  0  0.109268  0  1.018959  0  0  0.112028  0  1.01732  0  0  0.10625  0.107336  0  1.020156  0
H  H19  1  0.29085946  0.47860772  0.73955087  1  0  0.097293  0  0.957959  0  0  0.109299  0  1.018903  0  0  0.11206  0  1.017254  0  0  0.106256  0.107351  0  1.020117  0
H  H20  1  0.96844831  0.04552389  0.82377450  1  0  0.105854  0  0.949729  0  0  0.11353  0  1.01192  0  0  0.117049  0  1.008054  0  0  0.123235  0.110809  0  1.014945  0
H  H21  1  0.03155830  0.95446761  0.17622126  1  0  0.105865  0  0.949775  0  0  0.113568  0  1.01194  0  0  0.117087  0  1.008073  0  0  0.123272  0.110848  0  1.014962  0
H  H22  1  0.13366168  0.87486870  0.62488578  1  0  0.108614  0  0.942464  0  0  0.118463  0  1.001617  0  0  0.12172  0  1.000901  0  0  0.111492  0.116506  0  1.001711  0
H  H23  1  0.86633585  0.12512881  0.37510446  1  0  0.108666  0  0.942454  0  0  0.118473  0  1.001671  0  0  0.121726  0  1.000956  0  0  0.111522  0.116528  0  1.001751  0
H  H24  1  0.00955221  0.79098228  0.48970559  1  0  0.110599  0  0.917413  0  0  0.123311  0  0.970499  0  0  0.126473  0  0.968178  0  0  0.118089  0.121215  0  0.971708  0
H  H25  1  0.99043778  0.20902425  0.51028551  1  0  0.110563  0  0.91747  0  0  0.123335  0  0.970475  0  0  0.126496  0  0.968156  0  0  0.118111  0.121239  0  0.971684  0
H  H26  1  0.58329170  0.03855180  0.77274384  1  0  0.087593  0  0.964729  0  0  0.092805  0  1.037945  0  0  0.096375  0  1.033718  0  0  0.118601  0.090208  0  1.041136  0
H  H27  1  0.41671283  0.96144592  0.22726184  1  0  0.087583  0  0.964708  0  0  0.092795  0  1.037928  0  0  0.096365  0  1.033701  0  0  0.11859  0.090199  0  1.041122  0
H  H28  1  0.52742509  0.82843796  0.42803431  1  0  0.057848  0  0.943301  0  0  0.073564  0  1.009616  0  0  0.073925  0  1.009443  0  0  0.104341  0.07283  0  1.010382  0
H  H29  1  0.47257248  0.17156943  0.57195895  1  0  0.057818  0  0.943355  0  0  0.073559  0  1.009596  0  0  0.07392  0  1.009425  0  0  0.104357  0.072801  0  1.010387  0
H  H30  1  0.39658617  0.85219175  0.58630090  1  0  0.058325  0  0.932099  0  0  0.076673  0  0.994481  0  0  0.076497  0  0.995059  0  0  0.104737  0.076999  0  0.99348  0
H  H31  1  0.60340452  0.14782338  0.41369622  1  0  0.058373  0  0.932128  0  0  0.076672  0  0.994526  0  0  0.076491  0  0.995102  0  0  0.104746  0.077005  0  0.993511  0
H  H32  1  0.69464455  0.56218772  0.48892286  1  0  0.061601  0  0.957081  0  0  0.081186  0  1.018416  0  0  0.081223  0  1.019777  0  0  0.086775  0.081119  0  1.017332  0
H  H33  1  0.30534716  0.43781946  0.51107683  1  0  0.061574  0  0.956971  0  0  0.081176  0  1.018334  0  0  0.081212  0  1.019697  0  0  0.086804  0.081107  0  1.017249  0
H  H34  1  0.58391447  0.58552315  0.65614325  1  0  0.082713  0  0.965349  0  0  0.100034  0  1.027259  0  0  0.101557  0  1.026703  0  0  0.091748  0.098865  0  1.027948  0
H  H35  1  0.41607121  0.41448998  0.34385123  1  0  0.082666  0  0.965242  0  0  0.099993  0  1.027202  0  0  0.101519  0  1.026643  0  0  0.091789  0.098828  0  1.027888  0
H  H36  1  0.45329494  0.62978497  0.39297222  1  0  0.062207  0  0.941976  0  0  0.083926  0  0.999501  0  0  0.084481  0  1.000084  0  0  0.084283  0.083561  0  0.999064  0
H  H37  1  0.54669763  0.37022832  0.60701660  1  0  0.062248  0  0.942012  0  0  0.083943  0  0.999536  0  0  0.084504  0  1.00012  0  0  0.084316  0.08358  0  0.999093  0
H  H38  1  0.35597749  0.64055094  0.56501557  1  0  0.054808  0  0.95055  0  0  0.073249  0  1.016874  0  0  0.07387  0  1.01736  0  0  0.083284  0.072679  0  1.016668  0
H  H39  1  0.64401452  0.35946143  0.43496944  1  0  0.054817  0  0.950404  0  0  0.073203  0  1.016795  0  0  0.073818  0  1.017277  0  0  0.083282  0.072627  0  1.01659  0
C  C40  1  0.81721941  0.29547114  0.08468327  1  0  0.627844  0  3.945126  0  0  0.577169  0  4.234409  0  0  0.611021  0  4.230126  0  0  0.194072  0.5544  0  4.236342  0
C  C41  1  0.18278110  0.70452865  0.91532718  1  0  0.627614  0  3.945454  0  0  0.576897  0  4.234786  0  0  0.610747  0  4.230506  0  0  0.193948  0.554102  0  4.23671  0
C  C42  1  0.90397263  0.36023493  0.12392048  1  0  -0.083789  0  3.786334  0  0  -0.056336  0  4.019765  0  0  -0.06716  0  4.044877  0  0  -0.023531  -0.050058  0  4.004141  0
C  C43  1  0.09602769  0.63976719  0.87608776  1  0  -0.083688  0  3.78629  0  0  -0.056161  0  4.019674  0  0  -0.066986  0  4.044785  0  0  -0.023467  -0.04979  0  4.003923  0
C  C44  1  0.05991674  0.30339720  0.06645390  1  0  -0.054397  0  3.700989  0  0  -0.089135  0  3.944773  0  0  -0.086392  0  3.966153  0  0  -0.07413  -0.090905  0  3.93122  0
C  C45  1  0.94008682  0.69659844  0.93354921  1  0  -0.054512  0  3.701148  0  0  -0.089304  0  3.944862  0  0  -0.086575  0  3.966281  0  0  -0.074236  -0.091096  0  3.931274  0
C  C46  1  0.14488033  0.35750382  0.10695482  1  0  -0.091507  0  3.78162  0  0  -0.065391  0  4.019193  0  0  -0.076301  0  4.044941  0  0  -0.023812  -0.058414  0  4.002695  0
C  C47  1  0.85512858  0.64249306  0.89304388  1  0  -0.091503  0  3.781683  0  0  -0.065268  0  4.019133  0  0  -0.076178  0  4.04488  0  0  -0.023736  -0.058294  0  4.002645  0
C  C48  1  0.31282912  0.29384543  0.04942428  1  0  0.644721  0  3.914177  0  0  0.590706  0  4.209441  0  0  0.624999  0  4.204006  0  0  0.201672  0.567082  0  4.212719  0
C  C49  1  0.68718072  0.70614365  0.95057399  1  0  0.644654  0  3.914059  0  0  0.590607  0  4.209343  0  0  0.6249  0  4.203905  0  0  0.201564  0.566983  0  4.212621  0
C  C50  1  0.07099056  0.47211779  0.20414363  1  0  -0.040536  0  3.699845  0  0  -0.070631  0  3.952494  0  0  -0.067618  0  3.970951  0  0  -0.07801  -0.07184  0  3.938808  0
C  C51  1  0.92901875  0.52788026  0.79585386  1  0  -0.040413  0  3.699754  0  0  -0.07053  0  3.952389  0  0  -0.067527  0  3.970845  0  0  -0.077951  -0.071742  0  3.938704  0
C  C52  1  0.91455911  0.53251364  0.25822278  1  0  -0.086494  0  3.75365  0  0  -0.095088  0  4.007213  0  0  -0.100571  0  4.027938  0  0  -0.094812  -0.091187  0  3.991998  0
C  C53  1  0.08545351  0.46748189  0.74177922  1  0  -0.086387  0  3.753505  0  0  -0.094961  0  4.007087  0  0  -0.100442  0  4.027813  0  0  -0.094697  -0.091062  0  3.991868  0
C  C54  1  0.83135692  0.47599952  0.21883285  1  0  -0.050886  0  3.715439  0  0  -0.082047  0  3.96893  0  0  -0.078976  0  3.987653  0  0  -0.080473  -0.083446  0  3.956547  0
C  C55  1  0.16865219  0.52400495  0.78117008  1  0  -0.050987  0  3.715226  0  0  -0.082208  0  3.968741  0  0  -0.079133  0  3.987462  0  0  -0.08059  -0.083625  0  3.956332  0
C  C56  1  0.92146633  0.00363088  0.76388475  1  0  0.139151  0  3.657241  0  0  0.103742  0  3.90896  0  0  0.112551  0  3.92524  0  0  0.055037  0.098196  0  3.897283  0
C  C57  1  0.07853088  0.99636939  0.23611736  1  0  0.139192  0  3.657282  0  0  0.103753  0  3.90899  0  0  0.112562  0  3.925271  0  0  0.055026  0.098209  0  3.897318  0
C  C58  1  0.01174898  0.90953021  0.65279316  1  0  -0.111401  0  3.740415  0  0  -0.122061  0  3.996997  0  0  -0.130109  0  4.018593  0  0  -0.077157  -0.117361  0  3.982378  0
C  C59  1  0.98824370  0.09047702  0.34720530  1  0  -0.11144  0  3.740348  0  0  -0.122077  0  3.996977  0  0  -0.130118  0  4.018566  0  0  -0.077115  -0.117384  0  3.982357  0
C  C60  1  0.94407203  0.86210162  0.57912648  1  0  -0.00767  0  3.695626  0  0  -0.038254  0  3.944499  0  0  -0.032732  0  3.96174  0  0  -0.053785  -0.041131  0  3.932171  0
C  C61  1  0.05592637  0.13790806  0.42086536  1  0  -0.007667  0  3.695594  0  0  -0.03828  0  3.944482  0  0  -0.032759  0  3.961722  0  0  -0.053848  -0.041157  0  3.932158  0
C  C62  1  0.78753626  0.90797065  0.62016544  1  0  -0.105777  0  3.762821  0  0  -0.08106  0  4.004239  0  0  -0.092658  0  4.028791  0  0  -0.006588  -0.073786  0  3.98771  0
C  C63  1  0.21246447  0.09202857  0.37983395  1  0  -0.105806  0  3.762859  0  0  -0.081134  0  4.004301  0  0  -0.092731  0  4.028853  0  0  -0.006601  -0.073854  0  3.987767  0
C  C64  1  0.70539776  0.99958333  0.73508864  1  0  0.106484  0  3.677786  0  0  0.064325  0  3.931952  0  0  0.072976  0  3.949864  0  0  0.050777  0.058061  0  3.920298  0
C  C65  1  0.29460634  0.00041124  0.26491344  1  0  0.106472  0  3.677775  0  0  0.064312  0  3.931942  0  0  0.072962  0  3.949859  0  0  0.050782  0.058047  0  3.920291  0
C  C66  1  0.71464490  0.86271074  0.53461841  1  0  0.536687  0  3.876745  0  0  0.485304  0  4.16916  0  0  0.515035  0  4.169553  0  0  0.241029  0.465312  0  4.168198  0
C  C67  1  0.28535049  0.13729311  0.46537975  1  0  0.536722  0  3.876756  0  0  0.485456  0  4.169069  0  0  0.515181  0  4.169463  0  0  0.241068  0.465464  0  4.168107  0
C  C68  1  0.51844756  0.79123185  0.53655898  1  0  0.068909  0  3.653538  0  0  0.006413  0  3.920706  0  0  0.012184  0  3.932417  0  0  -0.06224  0.002527  0  3.91263  0
C  C69  1  0.48154326  0.20877901  0.46343452  1  0  0.068749  0  3.653603  0  0  0.006411  0  3.920697  0  0  0.012188  0  3.932403  0  0  -0.062278  0.00254  0  3.912621  0
C  C70  1  0.57685899  0.62265540  0.54825715  1  0  -0.144064  0  3.684005  0  0  -0.183698  0  3.941896  0  0  -0.185812  0  3.956009  0  0  -0.173516  -0.182129  0  3.932478  0
C  C71  1  0.42313022  0.37735664  0.45173559  1  0  -0.143806  0  3.68372  0  0  -0.183554  0  3.94171  0  0  -0.18567  0  3.955827  0  0  -0.173567  -0.181995  0  3.932311  0
C  C72  1  0.47045897  0.58443499  0.49838618  1  0  -0.100858  0  3.690161  0  0  -0.14082  0  3.952256  0  0  -0.141953  0  3.967457  0  0  -0.168461  -0.139961  0  3.942227  0
C  C73  1  0.52953380  0.41557392  0.50160101  1  0  -0.10095  0  3.690086  0  0  -0.140843  0  3.952254  0  0  -0.141978  0  3.967453  0  0  -0.168468  -0.13998  0  3.942215  0
N  N74  1  0.77092023  0.04704958  0.80474118  1  0  -0.332295  0  3.250808  0  0  -0.250451  0  3.519853  0  0  -0.272518  0  3.538843  0  0  -0.323723  -0.23406  0  3.5053  0
N  N75  1  0.22907564  0.95294943  0.19526440  1  0  -0.33231  0  3.250873  0  0  -0.250432  0  3.519898  0  0  -0.272504  0  3.538895  0  0  -0.323761  -0.234041  0  3.505346  0
N  N76  1  0.60177573  0.83623559  0.60247558  1  0  -0.408772  0  3.325146  0  0  -0.349149  0  3.57722  0  0  -0.371266  0  3.588061  0  0  -0.413896  -0.334025  0  3.569626  0
N  N77  1  0.39821359  0.16377629  0.39752017  1  0  -0.408777  0  3.324969  0  0  -0.349372  0  3.577056  0  0  -0.371481  0  3.587889  0  0  -0.413841  -0.334265  0  3.569506  0
O  O78  1  0.67997448  0.33563932  0.15128234  1  0  -0.673613  0  2.004783  0  0  -0.601198  0  2.23799  0  0  -0.630209  0  2.228841  0  0  -0.331798  -0.579749  0  2.244663  0
O  O79  1  0.32002723  0.66435812  0.84873007  1  0  -0.673518  0  2.004964  0  0  -0.601089  0  2.238152  0  0  -0.630095  0  2.229006  0  0  -0.331725  -0.57964  0  2.244831  0
O  O80  1  0.59379861  0.41254909  0.84300289  1  0  -0.838814  0  1.863908  0  0  -0.783565  0  2.059821  0  0  -0.805497  0  2.026706  0  0  -0.592773  -0.768045  0  2.082676  0
O  O81  1  0.40620171  0.58744107  0.15699952  1  0  -0.838868  0  1.863816  0  0  -0.783582  0  2.059854  0  0  -0.805547  0  2.02666  0  0  -0.592811  -0.768067  0  2.082708  0
O  O82  1  0.88063840  0.20168626  0.98829356  1  0  -0.627312  0  1.952385  0  0  -0.567413  0  2.185672  0  0  -0.595638  0  2.177357  0  0  -0.321923  -0.547007  0  2.190234  0
O  O83  1  0.11935795  0.79831966  0.01170719  1  0  -0.627219  0  1.952476  0  0  -0.567328  0  2.185782  0  0  -0.595552  0  2.177476  0  0  -0.3219  -0.546928  0  2.190356  0
O  O84  1  0.65070570  0.00264809  0.15441195  1  0  -0.860631  0  1.835081  0  0  -0.799051  0  2.027083  0  0  -0.820191  0  1.990864  0  0  -0.584676  -0.783649  0  2.054845  0
O  O85  1  0.34929785  0.99733965  0.84559296  1  0  -0.860601  0  1.835062  0  0  -0.799058  0  2.027193  0  0  -0.820195  0  1.990983  0  0  -0.58467  -0.783657  0  2.054958  0
O  O86  1  0.38372946  0.18910892  0.96260072  1  0  -0.64319  0  1.976712  0  0  -0.578778  0  2.205697  0  0  -0.606567  0  2.196916  0  0  -0.316861  -0.558319  0  2.211367  0
O  O87  1  0.61628034  0.81087435  0.03740216  1  0  -0.643143  0  1.976532  0  0  -0.578762  0  2.205544  0  0  -0.60655  0  2.196759  0  0  -0.316857  -0.558301  0  2.211217  0
O  O88  1  0.38421138  0.34664299  0.09449680  1  0  -0.670139  0  2.05021  0  0  -0.594705  0  2.297148  0  0  -0.624857  0  2.286581  0  0  -0.324915  -0.572776  0  2.304778  0
O  O89  1  0.61579415  0.65334479  0.90550663  1  0  -0.670057  0  2.050102  0  0  -0.594612  0  2.297049  0  0  -0.624767  0  2.28648  0  0  -0.324856  -0.57269  0  2.304701  0
O  O90  1  0.76093678  0.85140884  0.40662122  1  0  -0.588411  0  1.935886  0  0  -0.540827  0  2.155521  0  0  -0.562418  0  2.147296  0  0  -0.307224  -0.525811  0  2.16134  0
O  O91  1  0.23905801  0.14859618  0.59337596  1  0  -0.588445  0  1.935881  0  0  -0.540877  0  2.155454  0  0  -0.562464  0  2.147233  0  0  -0.30729  -0.525857  0  2.161269  0
