# generated using pymatgen
data_AlH7C11ClO5
_symmetry_space_group_name_H-M   'P 1'
_cell_length_a   6.65438106
_cell_length_b   11.13153922
_cell_length_c   11.09366477
_cell_angle_alpha   83.47073363
_cell_angle_beta   74.05777360
_cell_angle_gamma   72.30363207
_symmetry_Int_Tables_number   1
_chemical_formula_structural   AlH7C11ClO5
_chemical_formula_sum   'Al2 H14 C22 Cl2 O10'
_cell_volume   752.34292698
_cell_formula_units_Z   2
loop_
 _symmetry_equiv_pos_site_id
 _symmetry_equiv_pos_as_xyz
  1  'x, y, z'
loop_
 _atom_site_type_symbol
 _atom_site_label
 _atom_site_symmetry_multiplicity
 _atom_site_fract_x
 _atom_site_fract_y
 _atom_site_fract_z
 _atom_site_occupancy
 _atom_site_pbe_bader_charge
 _atom_site_pbe_bader_spin_density
 _atom_site_pbe_cm5_charge
 _atom_site_pbe_ddec_charge
 _atom_site_pbe_ddec_spin_density
 _atom_site_pbe_ddec_sum_bond_order
 _atom_site_pbe_magmom
Al  Al0  1  0.48916370  0.50055197  0.50630024  1  2.504186  0  0.394772  1.642227  0  2.585078  0
Al  Al1  1  0.98625268  0.50456858  0.50719001  1  2.504249  0  0.395491  1.64314  0  2.572328  0
H  H2  1  0.27830564  0.35233305  0.57478225  1  0.60476  0  0.353409  0.429434  0  0.855247  0
H  H3  1  0.68980984  0.65350077  0.44177894  1  0.655764  0  0.345951  0.420349  0  0.878193  0
H  H4  1  0.66149577  0.58710641  0.13540136  1  0.115002  0  0.108491  0.12235  0  1.024666  0
H  H5  1  0.30296655  0.43077251  0.87617738  1  0.135182  0  0.112011  0.130338  0  1.003914  0
H  H6  1  0.26846887  0.23033655  0.32685219  1  0.067373  0  0.097576  0.107331  0  1.065925  0
H  H7  1  0.46211874  0.76450214  0.32631649  1  0.056473  0  0.103202  0.109146  0  1.048685  0
H  H8  1  0.73844029  0.88894374  0.59631128  1  0.078849  0  0.110477  0.115533  0  0.990951  0
H  H9  1  0.63194061  0.12458663  0.58686636  1  0.061553  0  0.108199  0.110551  0  0.995071  0
H  H10  1  0.82493435  0.09994068  0.20381810  1  0.043494  0  0.093129  0.129979  0  0.999146  0
H  H11  1  0.60143197  0.23259502  0.18960756  1  0.062189  0  0.08835  0.128316  0  1.018182  0
H  H12  1  0.70354656  0.11144935  0.07838754  1  0.032508  0  0.093134  0.128729  0  0.988336  0
H  H13  1  0.79259864  0.87465388  0.07647396  1  0.019972  0  0.090723  0.124647  0  1.002813  0
H  H14  1  0.80375320  0.75056203  0.19256918  1  0.020797  0  0.092169  0.132926  0  1.004232  0
H  H15  1  0.91978326  0.87372120  0.19712278  1  0.035671  0  0.093531  0.132157  0  0.994028  0
C  C16  1  0.86852140  0.27551253  0.48574464  1  1.576528  0  0.274874  0.657673  0  4.06689  0
C  C17  1  0.62629490  0.50858937  0.73324210  1  1.569091  0  0.266867  0.649664  0  4.097535  0
C  C18  1  0.11918130  0.73015997  0.50367170  1  1.554965  0  0.271836  0.650701  0  4.079201  0
C  C19  1  0.34675717  0.50148233  0.27859790  1  1.549327  0  0.261591  0.638588  0  4.110816  0
C  C20  1  0.55558501  0.51390117  0.87346417  1  0.081579  0  -0.010617  -0.07113  0  3.925106  0
C  C21  1  0.41120046  0.50213741  0.13814211  1  0.055178  0  -0.011548  -0.076853  0  3.938352  0
C  C22  1  0.65436867  0.56075631  0.94762967  1  0.081009  0  0.020041  0.127452  0  4.031445  0
C  C23  1  0.30925476  0.45786636  0.06389204  1  0.083582  0  0.019801  0.122837  0  4.034928  0
C  C24  1  0.58282196  0.55316467  0.07781902  1  0.007935  0  -0.087546  -0.160091  0  3.981956  0
C  C25  1  0.38201663  0.46449498  0.93375239  1  -0.041794  0  -0.086046  -0.158352  0  3.980154  0
C  C26  1  0.94329484  0.13562777  0.47389815  1  0.008668  0  -0.007467  -0.084041  0  3.922951  0
C  C27  1  0.15698678  0.06796640  0.40460213  1  0.03352  0  -0.002747  0.061146  0  3.968041  0
C  C28  1  0.79443431  0.07093606  0.53710660  1  -0.112167  0  -0.082758  -0.090828  0  4.006796  0
C  C29  1  0.31128467  0.12800860  0.32927553  1  -0.025684  0  -0.100873  -0.209994  0  3.973082  0
C  C30  1  0.51188134  0.06173018  0.25749600  1  0.051966  0  -0.006775  0.123124  0  3.951895  0
C  C31  1  0.06210930  0.86968125  0.48223984  1  -0.088818  0  -0.008676  -0.082107  0  3.9325  0
C  C32  1  0.85353939  0.93894011  0.54224930  1  0.115267  0  -0.081809  -0.094082  0  4.004718  0
C  C33  1  0.21566835  0.93211598  0.40696746  1  -0.062865  0  -0.002802  0.06124  0  3.972657  0
C  C34  1  0.42051224  0.86660049  0.32997954  1  0.009074  0  -0.102733  -0.214464  0  3.971557  0
C  C35  1  0.56743176  0.92721576  0.25692803  1  -0.072425  0  -0.007105  0.125205  0  3.954197  0
C  C36  1  0.66773309  0.13040104  0.17853953  1  -0.073542  0  -0.237196  -0.400617  0  3.965708  0
C  C37  1  0.78138258  0.85241176  0.17701389  1  -0.013589  0  -0.237418  -0.408114  0  3.966094  0
Cl  Cl38  1  0.85815743  0.63264933  0.88434481  1  -0.178445  0  0.02066  -0.041367  0  1.542776  0
Cl  Cl39  1  0.10032402  0.38962813  0.12629974  1  -0.176073  0  0.029528  -0.031925  0  1.583143  0
O  O40  1  0.66468003  0.32922513  0.50122284  1  -1.263006  0  -0.235379  -0.599876  0  2.343454  0
O  O41  1  0.82622056  0.49633790  0.68030975  1  -1.247463  0  -0.234415  -0.592146  0  2.380086  0
O  O42  1  0.96705612  0.67767415  0.52167464  1  -1.268716  0  -0.235063  -0.595815  0  2.343273  0
O  O43  1  0.49911212  0.49190179  0.33105540  1  -1.255515  0  -0.236909  -0.585894  0  2.347865  0
O  O44  1  0.31541661  0.67190662  0.50492214  1  -1.267911  0  -0.230834  -0.591765  0  2.38517  0
O  O45  1  0.14732294  0.51465940  0.33314575  1  -1.242893  0  -0.235622  -0.59147  0  2.393492  0
O  O46  1  0.00860285  0.33233549  0.48502861  1  -1.260909  0  -0.230746  -0.590851  0  2.377074  0
O  O47  1  0.47833283  0.51174429  0.67962713  1  -1.249483  0  -0.234742  -0.58404  0  2.348315  0
O  O48  1  0.24378348  0.44270655  0.55794727  1  -1.41032  0  -0.447606  -0.982284  0  2.188282  0
O  O49  1  0.73078193  0.56240425  0.45460522  1  -1.464089  0  -0.450381  -0.986677  0  2.200802  0
