# generated using pymatgen
data_AgH6C8NO2
_symmetry_space_group_name_H-M   'P 1'
_cell_length_a   6.81707551
_cell_length_b   9.69908071
_cell_length_c   11.49938208
_cell_angle_alpha   90.00032171
_cell_angle_beta   89.99706209
_cell_angle_gamma   107.94850448
_symmetry_Int_Tables_number   1
_chemical_formula_structural   AgH6C8NO2
_chemical_formula_sum   'Ag4 H24 C32 N4 O8'
_cell_volume   723.32943504
_cell_formula_units_Z   4
loop_
 _symmetry_equiv_pos_site_id
 _symmetry_equiv_pos_as_xyz
  1  'x, y, z'
loop_
 _atom_site_type_symbol
 _atom_site_label
 _atom_site_symmetry_multiplicity
 _atom_site_fract_x
 _atom_site_fract_y
 _atom_site_fract_z
 _atom_site_occupancy
 _atom_site_hle17_bader_spin_density
 _atom_site_hle17_ddec_charge
 _atom_site_hle17_ddec_spin_density
 _atom_site_hle17_ddec_sum_bond_order
 _atom_site_hle17_magmom
 _atom_site_hse06_10hf_bader_spin_density
 _atom_site_hse06_10hf_ddec_charge
 _atom_site_hse06_10hf_ddec_spin_density
 _atom_site_hse06_10hf_ddec_sum_bond_order
 _atom_site_hse06_10hf_magmom
 _atom_site_hse06_bader_spin_density
 _atom_site_hse06_ddec_charge
 _atom_site_hse06_ddec_spin_density
 _atom_site_hse06_ddec_sum_bond_order
 _atom_site_hse06_magmom
 _atom_site_pbe_bader_spin_density
 _atom_site_pbe_cm5_charge
 _atom_site_pbe_ddec_charge
 _atom_site_pbe_ddec_spin_density
 _atom_site_pbe_ddec_sum_bond_order
 _atom_site_pbe_magmom
Ag  Ag0  1  0.51035134  0.20314241  0.82307178  1  0  0.545862  0  1.312894  0  0  0.402865  0  1.733965  0  0  0.439334  0  1.686314  0  0  0.439633  0.376701  0  1.767373  0
Ag  Ag1  1  0.98966923  0.79687267  0.32306518  1  0  0.5459  0  1.312821  0  0  0.402958  0  1.733815  0  0  0.439426  0  1.686166  0  0  0.43968  0.37679  0  1.767236  0
Ag  Ag2  1  0.48965807  0.79685275  0.17693272  1  0  0.545866  0  1.312961  0  0  0.402863  0  1.734052  0  0  0.439328  0  1.686404  0  0  0.439625  0.376698  0  1.767467  0
Ag  Ag3  1  0.01033002  0.20313238  0.67692714  1  0  0.545841  0  1.312857  0  0  0.402888  0  1.733905  0  0  0.439359  0  1.686246  0  0  0.439637  0.376722  0  1.76732  0
H  H4  1  0.66631220  0.45807850  0.99138082  1  0  0.079511  0  0.950024  0  0  0.089836  0  1.014809  0  0  0.091538  0  1.013341  0  0  0.11658  0.088737  0  1.015285  0
H  H5  1  0.83372791  0.54195029  0.49137858  1  0  0.079536  0  0.950096  0  0  0.089854  0  1.014888  0  0  0.091559  0  1.013428  0  0  0.116624  0.088758  0  1.015359  0
H  H6  1  0.33368503  0.54191569  0.00862368  1  0  0.079532  0  0.950084  0  0  0.089842  0  1.014868  0  0  0.091544  0  1.013396  0  0  0.116582  0.088743  0  1.015344  0
H  H7  1  0.16627427  0.45805474  0.50861462  1  0  0.079519  0  0.950114  0  0  0.089824  0  1.014933  0  0  0.091528  0  1.013472  0  0  0.116626  0.088728  0  1.015402  0
H  H8  1  0.66193714  0.50697428  0.20296472  1  0  0.116786  0  0.951906  0  0  0.125039  0  1.018298  0  0  0.128953  0  1.015533  0  0  0.108168  0.121995  0  1.021062  0
H  H9  1  0.83809016  0.49303594  0.70296107  1  0  0.116787  0  0.951743  0  0  0.12501  0  1.01824  0  0  0.128941  0  1.015411  0  0  0.108155  0.12195  0  1.021029  0
H  H10  1  0.33806250  0.49301553  0.79703890  1  0  0.116826  0  0.951741  0  0  0.125078  0  1.018124  0  0  0.128979  0  1.0154  0  0  0.10824  0.122038  0  1.020878  0
H  H11  1  0.16190471  0.50696915  0.29703300  1  0  0.116775  0  0.951721  0  0  0.125003  0  1.018194  0  0  0.128938  0  1.01537  0  0  0.108143  0.121945  0  1.020979  0
H  H12  1  0.34058747  0.05064178  0.25124760  1  0  0.106629  0  0.974838  0  0  0.114672  0  1.045475  0  0  0.118643  0  1.041997  0  0  0.101901  0.111954  0  1.04759  0
H  H13  1  0.15942166  0.94937146  0.75124372  1  0  0.106693  0  0.974803  0  0  0.114805  0  1.045341  0  0  0.118786  0  1.041855  0  0  0.101937  0.112044  0  1.047496  0
H  H14  1  0.65940248  0.94935574  0.74875603  1  0  0.10661  0  0.974918  0  0  0.114659  0  1.045535  0  0  0.11863  0  1.042059  0  0  0.101874  0.111917  0  1.04767  0
H  H15  1  0.84058539  0.05063461  0.24875381  1  0  0.106711  0  0.974882  0  0  0.114818  0  1.045413  0  0  0.118808  0  1.041918  0  0  0.101952  0.11206  0  1.047566  0
H  H16  1  0.33901311  0.02392647  0.03823264  1  0  0.069486  0  0.971468  0  0  0.077805  0  1.042648  0  0  0.079792  0  1.040404  0  0  0.109356  0.076307  0  1.04437  0
H  H17  1  0.16100857  0.97610280  0.53823058  1  0  0.069448  0  0.971446  0  0  0.077826  0  1.042575  0  0  0.07981  0  1.040334  0  0  0.109327  0.07633  0  1.044297  0
H  H18  1  0.66097635  0.97606997  0.96177273  1  0  0.069372  0  0.971503  0  0  0.07775  0  1.042634  0  0  0.079737  0  1.04039  0  0  0.109363  0.076252  0  1.044358  0
H  H19  1  0.83899749  0.02390110  0.46176696  1  0  0.069462  0  0.97141  0  0  0.077818  0  1.042582  0  0  0.0798  0  1.040339  0  0  0.109338  0.07632  0  1.044308  0
H  H20  1  0.53263959  0.41987761  0.40000923  1  0  0.11569  0  0.969431  0  0  0.124688  0  1.034024  0  0  0.128458  0  1.030723  0  0  0.106971  0.123048  0  1.034618  0
H  H21  1  0.96736790  0.58012016  0.89999599  1  0  0.115761  0  0.969325  0  0  0.124756  0  1.033919  0  0  0.128523  0  1.030621  0  0  0.107032  0.123118  0  1.034511  0
H  H22  1  0.46737079  0.58011646  0.59999439  1  0  0.115807  0  0.969342  0  0  0.124812  0  1.033899  0  0  0.128582  0  1.030597  0  0  0.107035  0.123171  0  1.034493  0
H  H23  1  0.03262842  0.41988165  0.09999807  1  0  0.115733  0  0.969241  0  0  0.124712  0  1.033863  0  0  0.128481  0  1.030564  0  0  0.106995  0.123075  0  1.034455  0
H  H24  1  0.47396311  0.09253683  0.42914481  1  0  0.119337  0  0.973681  0  0  0.126387  0  1.039408  0  0  0.130647  0  1.037291  0  0  0.100864  0.124606  0  1.039037  0
H  H25  1  0.02604113  0.90746409  0.92913607  1  0  0.119356  0  0.973476  0  0  0.126324  0  1.0393  0  0  0.130583  0  1.037191  0  0  0.100862  0.124545  0  1.038921  0
H  H26  1  0.52604192  0.90745837  0.57086056  1  0  0.11936  0  0.973707  0  0  0.126365  0  1.039455  0  0  0.130623  0  1.037345  0  0  0.100855  0.124584  0  1.039082  0
H  H27  1  0.97396296  0.09253548  0.07085973  1  0  0.119389  0  0.973488  0  0  0.126374  0  1.039302  0  0  0.130633  0  1.03719  0  0  0.100877  0.124595  0  1.038922  0
C  C28  1  0.59098995  0.37139981  0.05153733  1  0  0.128719  0  3.706631  0  0  0.09595  0  3.953911  0  0  0.104004  0  3.974152  0  0  0.045795  0.091478  0  3.939196  0
C  C29  1  0.90904174  0.62862345  0.55152870  1  0  0.128702  0  3.706627  0  0  0.095947  0  3.953842  0  0  0.103979  0  3.974106  0  0  0.045782  0.091479  0  3.939116  0
C  C30  1  0.40899803  0.62859338  0.94846542  1  0  0.128748  0  3.706716  0  0  0.095991  0  3.953972  0  0  0.104049  0  3.974205  0  0  0.045813  0.091515  0  3.939256  0
C  C31  1  0.09096484  0.37138480  0.44846449  1  0  0.128707  0  3.706705  0  0  0.095959  0  3.953971  0  0  0.103994  0  3.974234  0  0  0.045761  0.091492  0  3.939245  0
C  C32  1  0.59015225  0.39754213  0.17040814  1  0  -0.142872  0  3.648352  0  0  -0.157334  0  3.887606  0  0  -0.165602  0  3.9084  0  0  -0.074608  -0.152731  0  3.874953  0
C  C33  1  0.90987519  0.60247510  0.67039762  1  0  -0.142898  0  3.6482  0  0  -0.157379  0  3.887473  0  0  -0.165626  0  3.908261  0  0  -0.074533  -0.152787  0  3.874841  0
C  C34  1  0.40983914  0.60245212  0.82959809  1  0  -0.142905  0  3.648356  0  0  -0.157321  0  3.887578  0  0  -0.165609  0  3.908398  0  0  -0.074639  -0.15272  0  3.874938  0
C  C35  1  0.09012649  0.39752884  0.32959818  1  0  -0.142829  0  3.648359  0  0  -0.157288  0  3.887598  0  0  -0.165548  0  3.908402  0  0  -0.074496  -0.152694  0  3.874965  0
C  C36  1  0.50481370  0.28226089  0.24739677  1  0  0.140607  0  3.771194  0  0  0.159287  0  3.990548  0  0  0.164123  0  4.013536  0  0  0.013127  0.155587  0  3.975868  0
C  C37  1  0.99520952  0.71775526  0.74738944  1  0  0.140762  0  3.77107  0  0  0.15946  0  3.990453  0  0  0.16429  0  4.013452  0  0  0.013132  0.155765  0  3.975747  0
C  C38  1  0.49519086  0.71773649  0.75260772  1  0  0.140831  0  3.771133  0  0  0.159447  0  3.990571  0  0  0.164287  0  4.013547  0  0  0.013057  0.155744  0  3.975884  0
C  C39  1  0.00478926  0.28225197  0.25260896  1  0  0.140571  0  3.771121  0  0  0.159273  0  3.99049  0  0  0.164109  0  4.013479  0  0  0.013059  0.155578  0  3.975791  0
C  C40  1  0.41480289  0.14485196  0.19770035  1  0  -0.149573  0  3.685673  0  0  -0.163416  0  3.922308  0  0  -0.171542  0  3.944651  0  0  -0.080253  -0.158497  0  3.908085  0
C  C41  1  0.08521611  0.85516632  0.69769913  1  0  -0.149553  0  3.685705  0  0  -0.163449  0  3.922327  0  0  -0.171583  0  3.94466  0  0  -0.08026  -0.158494  0  3.908124  0
C  C42  1  0.58518803  0.85514447  0.80230415  1  0  -0.149674  0  3.685689  0  0  -0.163505  0  3.92234  0  0  -0.171635  0  3.944686  0  0  -0.080155  -0.15856  0  3.90813  0
C  C43  1  0.91478800  0.14483651  0.30229580  1  0  -0.149604  0  3.68585  0  0  -0.163505  0  3.92247  0  0  -0.171647  0  3.944797  0  0  -0.080328  -0.15855  0  3.908272  0
C  C44  1  0.41418659  0.12860652  0.07805041  1  0  0.10718  0  3.743546  0  0  0.077676  0  3.991014  0  0  0.084377  0  4.012172  0  0  0.035928  0.073352  0  3.976981  0
C  C45  1  0.08583572  0.87141237  0.57804491  1  0  0.106961  0  3.74387  0  0  0.077413  0  3.991361  0  0  0.084116  0  4.012519  0  0  0.035874  0.073092  0  3.977313  0
C  C46  1  0.58580285  0.87138665  0.92195321  1  0  0.107396  0  3.743305  0  0  0.077847  0  3.990775  0  0  0.084549  0  4.011932  0  0  0.035884  0.073521  0  3.97674  0
C  C47  1  0.91417133  0.12859370  0.42194915  1  0  0.107062  0  3.743954  0  0  0.077547  0  3.991456  0  0  0.084254  0  4.012618  0  0  0.035926  0.073223  0  3.977412  0
C  C48  1  0.50985444  0.30806914  0.37263044  1  0  -0.065136  0  3.694866  0  0  -0.086551  0  3.938306  0  0  -0.086614  0  3.958454  0  0  -0.077233  -0.08637  0  3.92436  0
C  C49  1  0.99016592  0.69194523  0.87263184  1  0  -0.065274  0  3.695522  0  0  -0.086734  0  3.938971  0  0  -0.086791  0  3.959121  0  0  -0.077333  -0.086557  0  3.925022  0
C  C50  1  0.49014915  0.69192934  0.62737405  1  0  -0.065415  0  3.694868  0  0  -0.086821  0  3.938263  0  0  -0.086882  0  3.958409  0  0  -0.077278  -0.086639  0  3.924315  0
C  C51  1  0.00983817  0.30805434  0.12736483  1  0  -0.065118  0  3.695431  0  0  -0.086539  0  3.938822  0  0  -0.0866  0  3.958972  0  0  -0.077244  -0.086364  0  3.924879  0
C  C52  1  0.48952154  0.20432855  0.45365746  1  0  -0.206629  0  3.642932  0  0  -0.21729  0  3.891746  0  0  -0.228238  0  3.910246  0  0  -0.096337  -0.21093  0  3.879413  0
C  C53  1  0.01048084  0.79566006  0.95364605  1  0  -0.206684  0  3.643548  0  0  -0.217231  0  3.892406  0  0  -0.228169  0  3.910878  0  0  -0.096368  -0.210871  0  3.880067  0
C  C54  1  0.51048302  0.79566883  0.54634790  1  0  -0.206625  0  3.642925  0  0  -0.217222  0  3.891696  0  0  -0.228162  0  3.91017  0  0  -0.096354  -0.210864  0  3.879364  0
C  C55  1  0.98951743  0.20434282  0.04634888  1  0  -0.206753  0  3.643733  0  0  -0.217325  0  3.892532  0  0  -0.228276  0  3.911037  0  0  -0.096387  -0.210963  0  3.880195  0
C  C56  1  0.49482989  0.23660986  0.58022426  1  0  0.642978  0  3.963873  0  0  0.598111  0  4.244039  0  0  0.633482  0  4.238452  0  0  0.178018  0.574069  0  4.247235  0
C  C57  1  0.00514883  0.76340070  0.08021303  1  0  0.643164  0  3.963553  0  0  0.598238  0  4.243779  0  0  0.633612  0  4.238193  0  0  0.178175  0.574194  0  4.246976  0
C  C58  1  0.50517615  0.76339077  0.41978545  1  0  0.64302  0  3.963765  0  0  0.598156  0  4.243903  0  0  0.633527  0  4.238322  0  0  0.178005  0.574114  0  4.247098  0
C  C59  1  0.99484555  0.23660331  0.91978016  1  0  0.643008  0  3.963802  0  0  0.598112  0  4.243984  0  0  0.633486  0  4.238392  0  0  0.178083  0.574068  0  4.247185  0
N  N60  1  0.50316240  0.23931726  0.00478627  1  0  -0.313321  0  3.388973  0  0  -0.219124  0  3.66322  0  0  -0.242042  0  3.684405  0  0  -0.357404  -0.203534  0  3.648245  0
N  N61  1  0.99686923  0.76070341  0.50478518  1  0  -0.313179  0  3.389244  0  0  -0.218998  0  3.663507  0  0  -0.241914  0  3.684707  0  0  -0.35741  -0.203412  0  3.648529  0
N  N62  1  0.49683385  0.76067476  0.99522084  1  0  -0.313531  0  3.388882  0  0  -0.219322  0  3.663153  0  0  -0.242241  0  3.684334  0  0  -0.357432  -0.203732  0  3.648183  0
N  N63  1  0.00313245  0.23930054  0.49521062  1  0  -0.313163  0  3.389156  0  0  -0.219042  0  3.663509  0  0  -0.241961  0  3.684699  0  0  -0.357373  -0.203454  0  3.648531  0
O  O64  1  0.47034067  0.35185571  0.61798433  1  0  -0.639348  0  1.964098  0  0  -0.582256  0  2.209111  0  0  -0.609008  0  2.198606  0  0  -0.324287  -0.563736  0  2.214834  0
O  O65  1  0.02963202  0.64813913  0.11798920  1  0  -0.639547  0  1.963695  0  0  -0.58244  0  2.208774  0  0  -0.609207  0  2.198278  0  0  -0.32436  -0.563912  0  2.214493  0
O  O66  1  0.52965464  0.64814067  0.38201930  1  0  -0.639382  0  1.963993  0  0  -0.582289  0  2.209013  0  0  -0.609047  0  2.19851  0  0  -0.324251  -0.563767  0  2.214737  0
O  O67  1  0.97035749  0.35186384  0.88201530  1  0  -0.639563  0  1.963904  0  0  -0.582443  0  2.208899  0  0  -0.609204  0  2.198398  0  0  -0.324382  -0.563917  0  2.214622  0
O  O68  1  0.52325651  0.13581733  0.64689934  1  0  -0.655907  0  2.087853  0  0  -0.56635  0  2.364082  0  0  -0.600312  0  2.351387  0  0  -0.346225  -0.542028  0  2.369866  0
O  O69  1  0.97673213  0.86418754  0.14688998  1  0  -0.655893  0  2.087824  0  0  -0.566318  0  2.364059  0  0  -0.60028  0  2.351376  0  0  -0.346297  -0.542001  0  2.369844  0
O  O70  1  0.47674901  0.86417896  0.35310428  1  0  -0.655872  0  2.087749  0  0  -0.566345  0  2.364023  0  0  -0.600298  0  2.351306  0  0  -0.346236  -0.542024  0  2.369812  0
O  O71  1  0.02325640  0.13581652  0.85310147  1  0  -0.655755  0  2.087947  0  0  -0.566208  0  2.364204  0  0  -0.600161  0  2.351495  0  0  -0.346192  -0.541891  0  2.369989  0
