# generated using pymatgen
data_KH5C8(NO3)2
_symmetry_space_group_name_H-M   'P 1'
_cell_length_a   7.11814417
_cell_length_b   8.06972844
_cell_length_c   17.09157919
_cell_angle_alpha   90.00009987
_cell_angle_beta   89.99997650
_cell_angle_gamma   90.55649151
_symmetry_Int_Tables_number   1
_chemical_formula_structural   KH5C8(NO3)2
_chemical_formula_sum   'K4 H20 C32 N8 O24'
_cell_volume   981.71947647
_cell_formula_units_Z   4
loop_
 _symmetry_equiv_pos_site_id
 _symmetry_equiv_pos_as_xyz
  1  'x, y, z'
loop_
 _atom_site_type_symbol
 _atom_site_label
 _atom_site_symmetry_multiplicity
 _atom_site_fract_x
 _atom_site_fract_y
 _atom_site_fract_z
 _atom_site_occupancy
 _atom_site_hle17_bader_spin_density
 _atom_site_hle17_ddec_charge
 _atom_site_hle17_ddec_spin_density
 _atom_site_hle17_ddec_sum_bond_order
 _atom_site_hle17_magmom
 _atom_site_hse06_10hf_bader_spin_density
 _atom_site_hse06_10hf_ddec_charge
 _atom_site_hse06_10hf_ddec_spin_density
 _atom_site_hse06_10hf_ddec_sum_bond_order
 _atom_site_hse06_10hf_magmom
 _atom_site_hse06_bader_spin_density
 _atom_site_hse06_ddec_charge
 _atom_site_hse06_ddec_spin_density
 _atom_site_hse06_ddec_sum_bond_order
 _atom_site_hse06_magmom
 _atom_site_pbe_bader_spin_density
 _atom_site_pbe_cm5_charge
 _atom_site_pbe_ddec_charge
 _atom_site_pbe_ddec_spin_density
 _atom_site_pbe_ddec_sum_bond_order
 _atom_site_pbe_magmom
K  K0  1  0.54175098  0.31074729  0.70511983  1  0  0.92709  0  0.478151  0  0  0.867264  0  0.68232  0  0  0.885553  0  0.656055  0  0  0.796868  0.853734  0  0.701033  0
K  K1  1  0.95825272  0.68924666  0.20511993  1  0  0.927087  0  0.478178  0  0  0.867272  0  0.682322  0  0  0.885562  0  0.656056  0  0  0.796851  0.853732  0  0.701031  0
K  K2  1  0.45825302  0.68925746  0.29488230  1  0  0.927076  0  0.478165  0  0  0.867255  0  0.682337  0  0  0.885542  0  0.656072  0  0  0.796861  0.853716  0  0.701048  0
K  K3  1  0.04174559  0.31075188  0.79488045  1  0  0.927081  0  0.478177  0  0  0.867259  0  0.682327  0  0  0.885549  0  0.656061  0  0  0.796851  0.853725  0  0.701041  0
H  H4  1  0.78486397  0.11320650  0.97962801  1  0  0.138187  0  0.941869  0  0  0.142287  0  1.009528  0  0  0.146868  0  1.004827  0  0  0.123288  0.138974  0  1.012792  0
H  H5  1  0.71513529  0.88679218  0.47962772  1  0  0.138163  0  0.941813  0  0  0.142288  0  1.009459  0  0  0.146868  0  1.004755  0  0  0.123265  0.138968  0  1.012719  0
H  H6  1  0.21513575  0.88679205  0.02037295  1  0  0.138245  0  0.941822  0  0  0.142325  0  1.009505  0  0  0.146907  0  1.004796  0  0  0.123268  0.139009  0  1.012765  0
H  H7  1  0.28486444  0.11320761  0.52037207  1  0  0.138191  0  0.941874  0  0  0.142295  0  1.009536  0  0  0.146876  0  1.004831  0  0  0.123277  0.13898  0  1.0128  0
H  H8  1  0.09807352  0.32930076  0.97394056  1  0  0.131156  0  0.936856  0  0  0.15249  0  0.998649  0  0  0.154192  0  0.997304  0  0  0.105987  0.151304  0  0.999569  0
H  H9  1  0.40192765  0.67070056  0.47394006  1  0  0.13118  0  0.936849  0  0  0.152519  0  0.998635  0  0  0.15422  0  0.997291  0  0  0.105997  0.151334  0  0.999557  0
H  H10  1  0.90192339  0.67069778  0.02605923  1  0  0.131153  0  0.936879  0  0  0.15249  0  0.998671  0  0  0.154191  0  0.997327  0  0  0.105999  0.151304  0  0.999591  0
H  H11  1  0.59807489  0.32929922  0.52605914  1  0  0.131193  0  0.936894  0  0  0.152529  0  0.998676  0  0  0.154232  0  0.99733  0  0  0.10601  0.151343  0  0.999598  0
H  H12  1  0.26883531  0.46237554  0.93045954  1  0  0.119819  0  0.970068  0  0  0.139656  0  1.02987  0  0  0.141181  0  1.030437  0  0  0.097972  0.138553  0  1.029453  0
H  H13  1  0.23116309  0.53762562  0.43045955  1  0  0.119831  0  0.970083  0  0  0.139673  0  1.029876  0  0  0.141198  0  1.030443  0  0  0.097981  0.138569  0  1.029453  0
H  H14  1  0.73116442  0.53762424  0.06953967  1  0  0.119804  0  0.970074  0  0  0.139645  0  1.029867  0  0  0.141172  0  1.030434  0  0  0.09797  0.138541  0  1.029445  0
H  H15  1  0.76883525  0.46237540  0.56953966  1  0  0.119843  0  0.970054  0  0  0.139686  0  1.029847  0  0  0.141211  0  1.030414  0  0  0.097987  0.138583  0  1.02943  0
H  H16  1  0.17464164  0.50835300  0.02479428  1  0  0.121909  0  0.979497  0  0  0.138125  0  1.047112  0  0  0.139634  0  1.04724  0  0  0.098523  0.136995  0  1.047076  0
H  H17  1  0.32535857  0.49164915  0.52479428  1  0  0.121935  0  0.979498  0  0  0.138153  0  1.04711  0  0  0.139662  0  1.047238  0  0  0.098527  0.137024  0  1.047074  0
H  H18  1  0.82535812  0.49164926  0.97520668  1  0  0.121911  0  0.979634  0  0  0.138141  0  1.047231  0  0  0.139649  0  1.047357  0  0  0.098523  0.137011  0  1.04719  0
H  H19  1  0.67464116  0.50835064  0.47520609  1  0  0.121944  0  0.979552  0  0  0.13816  0  1.047163  0  0  0.139669  0  1.047292  0  0  0.098534  0.137031  0  1.047127  0
H  H20  1  0.52577451  0.18401609  0.20513672  1  0  0.147584  0  0.951028  0  0  0.146646  0  1.023996  0  0  0.151767  0  1.018464  0  0  0.129501  0.143007  0  1.027801  0
H  H21  1  0.97422503  0.81598405  0.70513697  1  0  0.147574  0  0.951041  0  0  0.146633  0  1.02401  0  0  0.151754  0  1.018478  0  0  0.129497  0.142997  0  1.027816  0
H  H22  1  0.47422385  0.81598741  0.79486307  1  0  0.147599  0  0.950953  0  0  0.146666  0  1.023931  0  0  0.151787  0  1.018402  0  0  0.129523  0.143029  0  1.027738  0
H  H23  1  0.02577748  0.18401325  0.29486341  1  0  0.14758  0  0.950962  0  0  0.146683  0  1.023909  0  0  0.151803  0  1.018378  0  0  0.129515  0.143044  0  1.027713  0
C  C24  1  0.52438128  0.24641696  0.97860770  1  0  -0.089303  0  3.635046  0  0  -0.068153  0  3.865766  0  0  -0.079112  0  3.888634  0  0  -0.001836  -0.061521  0  3.8507  0
C  C25  1  0.97561799  0.75358171  0.47860784  1  0  -0.089214  0  3.634982  0  0  -0.068059  0  3.865684  0  0  -0.079018  0  3.888552  0  0  -0.00181  -0.061422  0  3.85061  0
C  C26  1  0.47561703  0.75358035  0.02139209  1  0  -0.089235  0  3.635008  0  0  -0.068084  0  3.865715  0  0  -0.079043  0  3.888584  0  0  -0.001832  -0.06145  0  3.850645  0
C  C27  1  0.02438455  0.24641807  0.52139194  1  0  -0.089295  0  3.635094  0  0  -0.06814  0  3.865821  0  0  -0.0791  0  3.88869  0  0  -0.001867  -0.06151  0  3.850755  0
C  C28  1  0.54091114  0.26954338  0.89021915  1  0  0.661543  0  3.959398  0  0  0.621547  0  4.249151  0  0  0.654836  0  4.242462  0  0  0.183244  0.59899  0  4.252641  0
C  C29  1  0.95908820  0.73045496  0.39021870  1  0  0.661489  0  3.959572  0  0  0.621505  0  4.249299  0  0  0.654794  0  4.242613  0  0  0.183237  0.598943  0  4.252788  0
C  C30  1  0.45908720  0.73045764  0.10978122  1  0  0.661414  0  3.959599  0  0  0.621445  0  4.249307  0  0  0.654734  0  4.242624  0  0  0.183203  0.598886  0  4.252797  0
C  C31  1  0.04091150  0.26954234  0.60978051  1  0  0.661517  0  3.959566  0  0  0.621508  0  4.24933  0  0  0.654798  0  4.242642  0  0  0.183234  0.598952  0  4.252817  0
C  C32  1  0.37325796  0.31021261  0.02291138  1  0  0.156622  0  3.613301  0  0  0.162453  0  3.856867  0  0  0.169243  0  3.877509  0  0  0.032648  0.158124  0  3.842813  0
C  C33  1  0.12674222  0.68978706  0.52291158  1  0  0.156587  0  3.613269  0  0  0.162429  0  3.856834  0  0  0.169217  0  3.877477  0  0  0.032653  0.158102  0  3.842779  0
C  C34  1  0.62674174  0.68978470  0.97708841  1  0  0.156592  0  3.613209  0  0  0.162412  0  3.856792  0  0  0.169201  0  3.877433  0  0  0.03267  0.158085  0  3.842738  0
C  C35  1  0.87326033  0.31021397  0.47708762  1  0  0.156549  0  3.61338  0  0  0.1624  0  3.856921  0  0  0.169189  0  3.877563  0  0  0.032645  0.158072  0  3.842865  0
C  C36  1  0.66965482  0.16023933  0.01482076  1  0  -0.069779  0  3.656458  0  0  -0.110935  0  3.916882  0  0  -0.106074  0  3.932818  0  0  -0.056427  -0.11389  0  3.90704  0
C  C37  1  0.83034351  0.83976011  0.51482222  1  0  -0.069827  0  3.65644  0  0  -0.111017  0  3.916863  0  0  -0.106153  0  3.932796  0  0  -0.056416  -0.113956  0  3.907005  0
C  C38  1  0.33034209  0.83975921  0.98517845  1  0  -0.069893  0  3.656496  0  0  -0.111068  0  3.916899  0  0  -0.106207  0  3.93284  0  0  -0.056441  -0.114013  0  3.907049  0
C  C39  1  0.16965764  0.16024092  0.48517816  1  0  -0.069812  0  3.656485  0  0  -0.110997  0  3.916911  0  0  -0.106135  0  3.932847  0  0  -0.056432  -0.113946  0  3.907069  0
C  C40  1  0.38139125  0.28407548  0.10473704  1  0  0.025189  0  3.613286  0  0  0.019127  0  3.864016  0  0  0.013121  0  3.884791  0  0  0.090601  0.022685  0  3.850135  0
C  C41  1  0.11860884  0.71592325  0.60473727  1  0  0.025236  0  3.613201  0  0  0.019152  0  3.863946  0  0  0.013141  0  3.884727  0  0  0.090594  0.022708  0  3.850068  0
C  C42  1  0.61860706  0.71592307  0.89526275  1  0  0.02518  0  3.613246  0  0  0.019143  0  3.863973  0  0  0.013135  0  3.884752  0  0  0.090575  0.022701  0  3.850091  0
C  C43  1  0.88139510  0.28407654  0.39526194  1  0  0.025205  0  3.613301  0  0  0.019161  0  3.864037  0  0  0.013153  0  3.884808  0  0  0.090595  0.022717  0  3.850156  0
C  C44  1  0.66798202  0.13744521  0.09555407  1  0  0.09269  0  3.70057  0  0  0.081775  0  3.961197  0  0  0.07666  0  3.983014  0  0  0.085801  0.079529  0  3.943713  0
C  C45  1  0.83201762  0.86255330  0.59555438  1  0  0.092749  0  3.700638  0  0  0.081848  0  3.961227  0  0  0.076731  0  3.983042  0  0  0.085806  0.079606  0  3.943741  0
C  C46  1  0.33201490  0.86255458  0.90444630  1  0  0.092689  0  3.700775  0  0  0.081849  0  3.961248  0  0  0.076734  0  3.983067  0  0  0.085861  0.079586  0  3.943763  0
C  C47  1  0.16798352  0.13744649  0.40444599  1  0  0.092766  0  3.700643  0  0  0.081893  0  3.961191  0  0  0.076775  0  3.983007  0  0  0.085861  0.079634  0  3.943717  0
C  C48  1  0.22066578  0.40935090  0.98579496  1  0  -0.360715  0  3.730796  0  0  -0.451146  0  3.978675  0  0  -0.453986  0  3.986508  0  0  -0.248119  -0.448882  0  3.973005  0
C  C49  1  0.27933396  0.59064923  0.48579500  1  0  -0.360797  0  3.730866  0  0  -0.451244  0  3.978741  0  0  -0.454083  0  3.986574  0  0  -0.24816  -0.448979  0  3.973063  0
C  C50  1  0.77933674  0.59064641  0.01420542  1  0  -0.360697  0  3.730866  0  0  -0.451133  0  3.978744  0  0  -0.453972  0  3.986577  0  0  -0.248157  -0.44887  0  3.97307  0
C  C51  1  0.72066579  0.40935179  0.51420479  1  0  -0.3608  0  3.730952  0  0  -0.451249  0  3.978816  0  0  -0.45409  0  3.98665  0  0  -0.248176  -0.448987  0  3.973149  0
C  C52  1  0.52616622  0.20091458  0.14212968  1  0  -0.09238  0  3.660809  0  0  -0.132467  0  3.923254  0  0  -0.12657  0  3.935949  0  0  -0.053063  -0.136214  0  3.915643  0
C  C53  1  0.97383337  0.79908409  0.64212991  1  0  -0.092391  0  3.6608  0  0  -0.132469  0  3.923242  0  0  -0.126569  0  3.935934  0  0  -0.053041  -0.13622  0  3.915641  0
C  C54  1  0.47383069  0.79908397  0.85787070  1  0  -0.092305  0  3.6607  0  0  -0.132458  0  3.923174  0  0  -0.126563  0  3.935871  0  0  -0.053075  -0.136209  0  3.915577  0
C  C55  1  0.02617057  0.20091569  0.35786929  1  0  -0.092354  0  3.660712  0  0  -0.13254  0  3.923216  0  0  -0.126636  0  3.935901  0  0  -0.053107  -0.136286  0  3.91561  0
N  N56  1  0.81972178  0.04577364  0.13271969  1  0  0.474598  0  3.965046  0  0  0.514983  0  4.249967  0  0  0.535827  0  4.25999  0  0  0.040357  0.51946  0  4.214526  0
N  N57  1  0.68027783  0.95422623  0.63272010  1  0  0.474597  0  3.965126  0  0  0.51499  0  4.250017  0  0  0.535832  0  4.260043  0  0  0.040354  0.519452  0  4.214598  0
N  N58  1  0.18027514  0.95422614  0.86728010  1  0  0.474539  0  3.965179  0  0  0.515035  0  4.249909  0  0  0.535879  0  4.259934  0  0  0.040406  0.51956  0  4.214421  0
N  N59  1  0.31972471  0.04577355  0.36727969  1  0  0.474423  0  3.9651  0  0  0.514929  0  4.249837  0  0  0.535771  0  4.259867  0  0  0.040372  0.519425  0  4.214401  0
N  N60  1  0.23386500  0.34690295  0.15674281  1  0  0.526507  0  3.873654  0  0  0.552009  0  4.172155  0  0  0.574325  0  4.179169  0  0  0.052082  0.536947  0  4.1676  0
N  N61  1  0.26613506  0.65309721  0.65674295  1  0  0.526538  0  3.873585  0  0  0.552042  0  4.172093  0  0  0.57436  0  4.179105  0  0  0.052114  0.536982  0  4.167537  0
N  N62  1  0.76613471  0.65309560  0.84325698  1  0  0.526431  0  3.873769  0  0  0.551921  0  4.172292  0  0  0.574238  0  4.179307  0  0  0.052062  0.536861  0  4.167733  0
N  N63  1  0.73386608  0.34690258  0.34325742  1  0  0.526419  0  3.873844  0  0  0.5519  0  4.172367  0  0  0.574216  0  4.179384  0  0  0.052042  0.536839  0  4.167809  0
O  O64  1  0.39168487  0.26048840  0.84986771  1  0  -0.73052  0  1.97932  0  0  -0.685733  0  2.218106  0  0  -0.712121  0  2.211299  0  0  -0.478432  -0.66687  0  2.222372  0
O  O65  1  0.10831500  0.73951247  0.34986791  1  0  -0.730517  0  1.979378  0  0  -0.685739  0  2.218169  0  0  -0.71213  0  2.211364  0  0  -0.478447  -0.666875  0  2.222431  0
O  O66  1  0.60831486  0.73951139  0.15013266  1  0  -0.730434  0  1.979296  0  0  -0.68567  0  2.218086  0  0  -0.712059  0  2.211284  0  0  -0.478408  -0.666804  0  2.22235  0
O  O67  1  0.89168614  0.26048855  0.65013188  1  0  -0.730465  0  1.979319  0  0  -0.685687  0  2.218136  0  0  -0.712074  0  2.21133  0  0  -0.478423  -0.666823  0  2.222401  0
O  O68  1  0.28048715  0.39127593  0.22354472  1  0  -0.38271  0  1.794119  0  0  -0.376765  0  2.030205  0  0  -0.388907  0  2.024654  0  0  -0.143666  -0.368671  0  2.03415  0
O  O69  1  0.21951285  0.60872447  0.72354484  1  0  -0.382754  0  1.79414  0  0  -0.3768  0  2.030207  0  0  -0.388942  0  2.024654  0  0  -0.14368  -0.368701  0  2.034153  0
O  O70  1  0.71951120  0.60872633  0.77645448  1  0  -0.382702  0  1.794101  0  0  -0.376745  0  2.030168  0  0  -0.388885  0  2.024614  0  0  -0.143675  -0.368652  0  2.034122  0
O  O71  1  0.78048544  0.39127160  0.27645436  1  0  -0.382698  0  1.794129  0  0  -0.376736  0  2.0302  0  0  -0.388881  0  2.024652  0  0  -0.143653  -0.368636  0  2.034134  0
O  O72  1  0.70546647  0.29343125  0.86403140  1  0  -0.720039  0  1.949476  0  0  -0.679137  0  2.187545  0  0  -0.704916  0  2.179265  0  0  -0.449417  -0.660299  0  2.192259  0
O  O73  1  0.79453429  0.70656576  0.36403154  1  0  -0.720005  0  1.949556  0  0  -0.67912  0  2.187656  0  0  -0.704883  0  2.179345  0  0  -0.449406  -0.660282  0  2.192367  0
O  O74  1  0.29453049  0.70657225  0.13596781  1  0  -0.720007  0  1.949565  0  0  -0.679109  0  2.187622  0  0  -0.704884  0  2.179338  0  0  -0.449396  -0.660268  0  2.192332  0
O  O75  1  0.20546820  0.29342906  0.63596708  1  0  -0.720015  0  1.94955  0  0  -0.67911  0  2.187637  0  0  -0.704881  0  2.179345  0  0  -0.449385  -0.660271  0  2.19235  0
O  O76  1  0.06998747  0.35128386  0.13179018  1  0  -0.364863  0  1.770711  0  0  -0.339396  0  1.980996  0  0  -0.353118  0  1.979078  0  0  -0.130344  -0.330298  0  1.982649  0
O  O77  1  0.43001263  0.64871745  0.63178971  1  0  -0.364884  0  1.770693  0  0  -0.339404  0  1.980961  0  0  -0.353127  0  1.979042  0  0  -0.130357  -0.330304  0  1.982614  0
O  O78  1  0.93000943  0.64871345  0.86821077  1  0  -0.364835  0  1.770901  0  0  -0.33935  0  1.981164  0  0  -0.353072  0  1.979246  0  0  -0.130313  -0.330249  0  1.982815  0
O  O79  1  0.56999134  0.35128482  0.36821124  1  0  -0.364841  0  1.770913  0  0  -0.339348  0  1.98119  0  0  -0.353069  0  1.979274  0  0  -0.130317  -0.330251  0  1.982842  0
O  O80  1  0.82347317  0.03869678  0.20534083  1  0  -0.354148  0  1.782674  0  0  -0.344958  0  1.995693  0  0  -0.356865  0  1.991253  0  0  -0.137603  -0.343431  0  1.990031  0
O  O81  1  0.67652778  0.96130336  0.70534066  1  0  -0.354147  0  1.782697  0  0  -0.344963  0  1.995709  0  0  -0.356868  0  1.991271  0  0  -0.13761  -0.34343  0  1.990056  0
O  O82  1  0.17652374  0.96130176  0.79465954  1  0  -0.354125  0  1.782694  0  0  -0.344988  0  1.995668  0  0  -0.356895  0  1.991228  0  0  -0.137643  -0.34348  0  1.989993  0
O  O83  1  0.32347756  0.03869518  0.29465913  1  0  -0.354078  0  1.782658  0  0  -0.344947  0  1.995646  0  0  -0.356854  0  1.991209  0  0  -0.137645  -0.343425  0  1.989981  0
O  O84  1  0.93715120  0.97853328  0.08972404  1  0  -0.358443  0  1.789284  0  0  -0.349689  0  2.00594  0  0  -0.361557  0  2.001669  0  0  -0.137952  -0.348247  0  2.000056  0
O  O85  1  0.56284986  0.02146644  0.58972370  1  0  -0.358447  0  1.789343  0  0  -0.349694  0  2.005992  0  0  -0.36157  0  2.001741  0  0  -0.137954  -0.348244  0  2.000112  0
O  O86  1  0.06284713  0.02146651  0.91027575  1  0  -0.358393  0  1.789326  0  0  -0.349707  0  2.005952  0  0  -0.361573  0  2.001677  0  0  -0.137965  -0.34828  0  2.000048  0
O  O87  1  0.43715409  0.97853458  0.41027667  1  0  -0.358341  0  1.789244  0  0  -0.349648  0  2.005879  0  0  -0.361518  0  2.001615  0  0  -0.137942  -0.34821  0  1.999992  0
