# generated using pymatgen
data_Cd2H27C28N3O10
_symmetry_space_group_name_H-M   'P 1'
_cell_length_a   9.93756416
_cell_length_b   13.79645815
_cell_length_c   13.99214345
_cell_angle_alpha   63.00014560
_cell_angle_beta   72.45205597
_cell_angle_gamma   78.99644492
_symmetry_Int_Tables_number   1
_chemical_formula_structural   Cd2H27C28N3O10
_chemical_formula_sum   'Cd4 H54 C56 N6 O20'
_cell_volume   1626.44425249
_cell_formula_units_Z   2
loop_
 _symmetry_equiv_pos_site_id
 _symmetry_equiv_pos_as_xyz
  1  'x, y, z'
loop_
 _atom_site_type_symbol
 _atom_site_label
 _atom_site_symmetry_multiplicity
 _atom_site_fract_x
 _atom_site_fract_y
 _atom_site_fract_z
 _atom_site_occupancy
 _atom_site_pbe_bader_charge
 _atom_site_pbe_bader_spin_density
 _atom_site_pbe_cm5_charge
 _atom_site_pbe_ddec_charge
 _atom_site_pbe_ddec_spin_density
 _atom_site_pbe_ddec_sum_bond_order
 _atom_site_pbe_magmom
Cd  Cd0  1  0.21147942  0.02887593  0.38800015  1  1.284477  0  0.789471  0.916778  0  2.131957  0
Cd  Cd1  1  0.78852981  0.97112619  0.61201101  1  1.284356  0  0.789483  0.916758  0  2.132037  0
Cd  Cd2  1  0.76750718  0.93115776  0.02186290  1  1.280116  0  0.758045  0.946106  0  2.117314  0
Cd  Cd3  1  0.23250366  0.06885021  0.97812388  1  1.280043  0  0.758069  0.946231  0  2.117173  0
H  H4  1  0.00370468  0.86609038  0.11070531  1  0.647309  0  0.28878  0.388856  0  0.952037  0
H  H5  1  0.99628175  0.13390543  0.88930499  1  0.647158  0  0.288799  0.388868  0  0.95203  0
H  H6  1  0.93131873  0.96055294  0.14365079  1  0.643995  0  0.287943  0.388997  0  0.952255  0
H  H7  1  0.06867696  0.03944608  0.85635537  1  0.643873  0  0.287965  0.389019  0  0.952275  0
H  H8  1  0.65537929  0.90471720  0.86533648  1  0.647342  0  0.289237  0.389507  0  0.952498  0
H  H9  1  0.34461401  0.09527049  0.13466662  1  0.647433  0  0.289257  0.389515  0  0.95248  0
H  H10  1  0.53458549  0.96793277  0.91639974  1  0.636897  0  0.297473  0.387651  0  0.940592  0
H  H11  1  0.46542618  0.03207916  0.08359941  1  0.636736  0  0.29745  0.387677  0  0.940571  0
H  H12  1  0.20207712  0.77545775  0.56163032  1  0.093274  0  0.112484  0.077794  0  1.031368  0
H  H13  1  0.79786803  0.22455460  0.43838443  1  0.09257  0  0.112486  0.077803  0  1.03143  0
H  H14  1  0.14060105  0.59854020  0.58634781  1  0.062088  0  0.106001  0.111636  0  1.000851  0
H  H15  1  0.85935584  0.40146972  0.41365405  1  0.062572  0  0.106054  0.111674  0  1.00087  0
H  H16  1  0.13448906  0.75203700  0.24031682  1  0.125201  0  0.109378  0.129999  0  1.03351  0
H  H17  1  0.86552334  0.24797906  0.75967321  1  0.125403  0  0.109421  0.130002  0  1.033469  0
H  H18  1  0.19410711  0.92267523  0.23126422  1  0.154461  0  0.117371  0.097341  0  1.032572  0
H  H19  1  0.80590550  0.07733832  0.76873473  1  0.15477  0  0.117403  0.097327  0  1.032562  0
H  H20  1  0.07955880  0.56999863  0.34269745  1  0.039782  0  0.104441  0.084344  0  0.988619  0
H  H21  1  0.92043903  0.43001430  0.65729138  1  0.039768  0  0.104475  0.08437  0  0.9887  0
H  H22  1  0.15951208  0.44951555  0.56445134  1  0.05745  0  0.104542  0.08731  0  0.981225  0
H  H23  1  0.84048230  0.55050147  0.43553858  1  0.05767  0  0.104514  0.087248  0  0.981221  0
H  H24  1  0.18012245  0.24196327  0.63629641  1  0.120984  0  0.10793  0.123777  0  1.011798  0
H  H25  1  0.81987180  0.75805610  0.36370393  1  0.12109  0  0.107928  0.123818  0  1.011744  0
H  H26  1  0.23893798  0.08736429  0.58285111  1  0.139591  0  0.119818  0.096538  0  1.026416  0
H  H27  1  0.76106287  0.91265173  0.41715643  1  0.139911  0  0.119842  0.096495  0  1.026495  0
H  H28  1  0.22231874  0.28749580  0.25945928  1  0.160638  0  0.120881  0.1066  0  0.996308  0
H  H29  1  0.77767591  0.71250322  0.74054783  1  0.161201  0  0.12089  0.106622  0  0.996339  0
H  H30  1  0.16551069  0.45310272  0.29651372  1  0.060088  0  0.104894  0.112371  0  1.013444  0
H  H31  1  0.83445634  0.54689818  0.70348922  1  0.059683  0  0.104905  0.112396  0  1.013448  0
H  H32  1  0.57421453  0.88307855  0.27053004  1  0.148808  0  0.120608  0.104853  0  0.997461  0
H  H33  1  0.42579194  0.11691644  0.72945914  1  0.148646  0  0.120545  0.104734  0  0.997543  0
H  H34  1  0.50914534  0.71482645  0.44194493  1  0.072859  0  0.106049  0.110061  0  1.010032  0
H  H35  1  0.49084907  0.28515971  0.55804360  1  0.072584  0  0.106047  0.110063  0  1.010121  0
H  H36  1  0.53442352  0.55147695  0.23538611  1  0.065269  0  0.106789  0.112063  0  0.994204  0
H  H37  1  0.46555786  0.44854284  0.76457179  1  0.065185  0  0.106745  0.111886  0  0.994359  0
H  H38  1  0.60723162  0.72693293  0.07083993  1  0.112709  0  0.123292  0.098322  0  0.982175  0
H  H39  1  0.39278090  0.27308077  0.92913895  1  0.113092  0  0.123318  0.098279  0  0.982227  0
H  H40  1  0.47009611  0.44752095  0.43248718  1  0.051096  0  0.103032  0.09927  0  1.010056  0
H  H41  1  0.52990017  0.55248244  0.56747619  1  0.051219  0  0.103067  0.099358  0  1.010173  0
H  H42  1  0.56544443  0.25100117  0.22709495  1  0.035452  0  0.099085  0.079186  0  0.957428  0
H  H43  1  0.43455117  0.74898477  0.77292202  1  0.035493  0  0.099075  0.079183  0  0.957408  0
H  H44  1  0.65741022  0.07707265  0.36095116  1  0.062516  0  0.092936  0.098904  0  1.000116  0
H  H45  1  0.34261038  0.92291801  0.63905975  1  0.062552  0  0.092905  0.098896  0  1.000133  0
H  H46  1  0.75649608  0.04394390  0.25033487  1  0.047126  0  0.094303  0.101669  0  0.992778  0
H  H47  1  0.24351075  0.95604691  0.74967037  1  0.046652  0  0.094331  0.101707  0  0.992817  0
H  H48  1  0.77793024  0.24518019  0.28113549  1  0.007858  0  0.09615  0.072214  0  0.973853  0
H  H49  1  0.22209460  0.75480969  0.71886699  1  0.008105  0  0.096163  0.072296  0  0.973753  0
H  H50  1  0.96320741  0.30579738  0.12142255  1  0.047864  0  0.10495  0.097559  0  0.95449  0
H  H51  1  0.03679518  0.69419348  0.87858072  1  0.047743  0  0.104965  0.097593  0  0.954388  0
H  H52  1  0.74531627  0.37174492  0.07542701  1  0.003665  0  0.086336  0.079619  0  0.987077  0
H  H53  1  0.25469028  0.62823526  0.92458870  1  0.003394  0  0.086232  0.079445  0  0.987016  0
H  H54  1  0.85143564  0.33239181  0.97030211  1  0.049569  0  0.090606  0.095557  0  1.000028  0
H  H55  1  0.14856220  0.66759174  0.02970685  1  0.04945  0  0.090583  0.095468  0  1.000007  0
H  H56  1  0.59458531  0.28508502  0.03773476  1  0.065645  0  0.104325  0.094951  0  0.961721  0
H  H57  1  0.40541511  0.71490739  0.96228116  1  0.065173  0  0.1043  0.094912  0  0.961704  0
C  C58  1  0.18578445  0.76665598  0.49249823  1  0.468532  0  0.041913  0.093946  0  3.977873  0
C  C59  1  0.81418204  0.23335299  0.50751056  1  0.468873  0  0.04193  0.09389  0  3.977894  0
C  C60  1  0.15172465  0.66759926  0.50535276  1  0.003102  0  -0.089791  -0.187751  0  3.974935  0
C  C61  1  0.84824365  0.33241380  0.49465169  1  0.003224  0  -0.089823  -0.187725  0  3.975025  0
C  C62  1  0.12673447  0.66018844  0.41548795  1  -0.0553  0  0.006979  0.127471  0  3.966941  0
C  C63  1  0.87325617  0.33982205  0.58450994  1  -0.054785  0  0.007  0.127387  0  3.967012  0
C  C64  1  0.14763032  0.75272926  0.31457811  1  -0.042477  0  -0.081529  -0.176738  0  3.916386  0
C  C65  1  0.85237332  0.24727627  0.68541631  1  -0.042763  0  -0.081538  -0.176752  0  3.916476  0
C  C66  1  0.18095898  0.84917949  0.30851325  1  0.489244  0  0.054854  0.120741  0  3.903716  0
C  C67  1  0.81904217  0.15083172  0.69148563  1  0.489016  0  0.054905  0.121013  0  3.903813  0
C  C68  1  0.06422316  0.56437052  0.42592966  1  -0.004301  0  -0.071801  -0.072734  0  3.759414  0
C  C69  1  0.93576594  0.43564653  0.57406210  1  -0.004981  0  -0.072058  -0.072985  0  3.759898  0
C  C70  1  0.09959665  0.44890661  0.51038680  1  -0.014033  0  -0.069186  -0.066022  0  3.760269  0
C  C71  1  0.90039744  0.55109979  0.48961072  1  -0.013792  0  -0.069072  -0.065667  0  3.760102  0
C  C72  1  0.16439167  0.36198777  0.47121650  1  0.012829  0  0.002093  0.118656  0  3.988793  0
C  C73  1  0.83559498  0.63801947  0.52878584  1  0.013051  0  0.002094  0.118611  0  3.988451  0
C  C74  1  0.19176858  0.25736448  0.55058564  1  -0.090953  0  -0.088677  -0.188791  0  3.955747  0
C  C75  1  0.80822531  0.74264512  0.44941838  1  -0.090985  0  -0.08878  -0.188962  0  3.955793  0
C  C76  1  0.22345066  0.17013447  0.52190208  1  0.504834  0  0.050238  0.112683  0  3.92288  0
C  C77  1  0.77655275  0.82987504  0.47810349  1  0.504354  0  0.050359  0.112896  0  3.923004  0
C  C78  1  0.21352817  0.28230053  0.34126996  1  0.449164  0  0.045869  0.095782  0  3.957086  0
C  C79  1  0.78646830  0.71770254  0.65873710  1  0.44848  0  0.045858  0.095683  0  3.957084  0
C  C80  1  0.18215163  0.37412473  0.36332124  1  -0.074124  0  -0.096717  -0.207609  0  3.993959  0
C  C81  1  0.81782991  0.62588010  0.63668255  1  -0.07375  0  -0.096746  -0.207646  0  3.993841  0
C  C82  1  0.56699971  0.80710553  0.26639259  1  0.429382  0  0.052769  0.107206  0  3.935732  0
C  C83  1  0.43302478  0.19288852  0.73359526  1  0.428947  0  0.052896  0.107457  0  3.935171  0
C  C84  1  0.53022205  0.71266874  0.36188749  1  0.032378  0  -0.083701  -0.176888  0  3.941343  0
C  C85  1  0.46979037  0.28733118  0.63808894  1  0.033773  0  -0.08375  -0.176988  0  3.94117  0
C  C86  1  0.52170108  0.61630736  0.35344504  1  -0.047869  0  0.00106  0.136347  0  4.052189  0
C  C87  1  0.47830551  0.38369997  0.64652365  1  -0.048443  0  0.001039  0.136311  0  4.052605  0
C  C88  1  0.54333746  0.62312337  0.24654671  1  -0.041357  0  -0.084505  -0.181183  0  3.93675  0
C  C89  1  0.45667347  0.37688230  0.75342321  1  -0.040411  0  -0.084351  -0.180833  0  3.936899  0
C  C90  1  0.58239083  0.72043767  0.15497183  1  0.522633  0  0.054504  0.113614  0  3.951795  0
C  C91  1  0.41761845  0.27957690  0.84500380  1  0.521419  0  0.054403  0.113619  0  3.952089  0
C  C92  1  0.49557520  0.51156108  0.44862146  1  0.006259  0  -0.082905  -0.123257  0  3.980904  0
C  C93  1  0.50441737  0.48843574  0.55135562  1  -0.089009  0  -0.082898  -0.123517  0  3.981609  0
C  C94  1  0.47053469  0.12412088  0.23742747  1  1.567104  0  0.196814  0.585217  0  4.187224  0
C  C95  1  0.52946382  0.87585439  0.76260288  1  1.566334  0  0.196697  0.584977  0  4.187624  0
C  C96  1  0.60501854  0.18082738  0.20545678  1  -0.013761  0  -0.088568  -0.108355  0  3.876899  0
C  C97  1  0.39498956  0.81916091  0.79455860  1  -0.012973  0  -0.088666  -0.108431  0  3.877226  0
C  C98  1  0.71145598  0.11213263  0.27282640  1  -0.028418  0  -0.173642  -0.189461  0  3.930836  0
C  C99  1  0.28854780  0.88785658  0.72718021  1  -0.028002  0  -0.173581  -0.189423  0  3.931226  0
C  C100  1  0.82943411  0.18099282  0.25244141  1  0.017764  0  -0.087509  -0.116038  0  3.87375  0
C  C101  1  0.17058428  0.81899873  0.74756245  1  0.018914  0  -0.087551  -0.116185  0  3.87417  0
C  C102  1  0.90325183  0.24212097  0.12960064  1  0.003595  0  -0.08878  -0.12127  0  3.834265  0
C  C103  1  0.09676039  0.75786820  0.87040274  1  0.003674  0  -0.088773  -0.121322  0  3.834049  0
C  C104  1  0.79473722  0.30092280  0.05801651  1  -0.006945  0  -0.160455  -0.173346  0  3.90054  0
C  C105  1  0.20526697  0.69906069  0.94199397  1  -0.007293  0  -0.160301  -0.172919  0  3.900192  0
C  C106  1  0.67551175  0.23110075  0.08068479  1  -0.004357  0  -0.086809  -0.124707  0  3.84584  0
C  C107  1  0.32448723  0.76888193  0.91933003  1  -0.003673  0  -0.086715  -0.124757  0  3.845773  0
C  C108  1  0.93232363  0.11533476  0.32545625  1  1.574798  0  0.206394  0.598866  0  4.169229  0
C  C109  1  0.06769465  0.88465841  0.67454834  1  1.573144  0  0.206261  0.598734  0  4.169191  0
C  C110  1  0.01609611  0.17348489  0.08121840  1  1.546193  0  0.198913  0.610781  0  4.124278  0
C  C111  1  0.98392491  0.82651401  0.91877663  1  1.546636  0  0.198844  0.610566  0  4.124327  0
C  C112  1  0.72311411  0.14750503  0.03083435  1  1.563015  0  0.209451  0.604448  0  4.129531  0
C  C113  1  0.27686855  0.85248431  0.96917676  1  1.56302  0  0.20939  0.604525  0  4.129607  0
N  N114  1  0.19662996  0.85726308  0.39684731  1  -1.217417  0  -0.325008  -0.2483  0  3.500332  0
N  N115  1  0.80335661  0.14274574  0.60316078  1  -1.217281  0  -0.325153  -0.248462  0  3.500531  0
N  N116  1  0.22985912  0.18146276  0.41997063  1  -1.223164  0  -0.325797  -0.237504  0  3.469948  0
N  N117  1  0.77014552  0.81854431  0.58003505  1  -1.223432  0  -0.325817  -0.23747  0  3.469887  0
N  N118  1  0.59643789  0.81044354  0.16448231  1  -1.211184  0  -0.329749  -0.253567  0  3.469267  0
N  N119  1  0.40358486  0.18956027  0.83550517  1  -1.210939  0  -0.329785  -0.253727  0  3.469083  0
O  O120  1  0.45174484  0.03344291  0.32390644  1  -1.164814  0  -0.342744  -0.571284  0  2.227078  0
O  O121  1  0.54828075  0.96653709  0.67611311  1  -1.164402  0  -0.342524  -0.57101  0  2.226986  0
O  O122  1  0.91015563  0.89230220  0.14494698  1  -1.258142  0  -0.592947  -0.769445  0  2.029239  0
O  O123  1  0.08983136  0.10770016  0.85505601  1  -1.257868  0  -0.593004  -0.76952  0  2.029061  0
O  O124  1  0.37873150  0.17435482  0.18172453  1  -1.206122  0  -0.339836  -0.594255  0  2.203775  0
O  O125  1  0.62126924  0.82561880  0.81830678  1  -1.206434  0  -0.339913  -0.594246  0  2.203914  0
O  O126  1  0.63841624  0.96078157  0.89604049  1  -1.25939  0  -0.584431  -0.765012  0  2.1048  0
O  O127  1  0.36159496  0.03922151  0.10394982  1  -1.259437  0  -0.584456  -0.765003  0  2.104785  0
O  O128  1  0.88422265  0.04291892  0.42152367  1  -1.223218  0  -0.344119  -0.610817  0  2.358857  0
O  O129  1  0.11579502  0.95708316  0.57848354  1  -1.222954  0  -0.344107  -0.610808  0  2.35878  0
O  O130  1  0.06140627  0.13851963  0.28538550  1  -1.153612  0  -0.321848  -0.537556  0  2.297224  0
O  O131  1  0.93861003  0.86147118  0.71461055  1  -1.153488  0  -0.32176  -0.537446  0  2.297224  0
O  O132  1  0.11283525  0.22482371  0.99825499  1  -1.169383  0  -0.344521  -0.569034  0  2.158539  0
O  O133  1  0.88718505  0.77518570  0.00174627  1  -1.169044  0  -0.344475  -0.568856  0  2.158402  0
O  O134  1  0.01365894  0.06941526  0.12254408  1  -1.171956  0  -0.332355  -0.593142  0  2.231016  0
O  O135  1  0.98636736  0.93058288  0.87743799  1  -1.172598  0  -0.332291  -0.593024  0  2.231049  0
O  O136  1  0.65399955  0.06062181  0.07941186  1  -1.172191  0  -0.326991  -0.570242  0  2.29671  0
O  O137  1  0.34597683  0.93936675  0.92060238  1  -1.1724  0  -0.327002  -0.570255  0  2.296756  0
O  O138  1  0.82240419  0.16780324  0.94484031  1  -1.213087  0  -0.324063  -0.581314  0  2.222684  0
O  O139  1  0.17757662  0.83218209  0.05516654  1  -1.212627  0  -0.324025  -0.581338  0  2.222872  0
