# generated using pymatgen
data_Zr3H14C54(N3O10)4
_symmetry_space_group_name_H-M   'P 1'
_cell_length_a   19.05603791
_cell_length_b   19.05602442
_cell_length_c   19.05606908
_cell_angle_alpha   60.00004269
_cell_angle_beta   59.99997158
_cell_angle_gamma   59.99989873
_symmetry_Int_Tables_number   1
_chemical_formula_structural   Zr3H14C54(N3O10)4
_chemical_formula_sum   'Zr6 H28 C108 N24 O80'
_cell_volume   4893.08707150
_cell_formula_units_Z   2
loop_
 _symmetry_equiv_pos_site_id
 _symmetry_equiv_pos_as_xyz
  1  'x, y, z'
loop_
 _atom_site_type_symbol
 _atom_site_label
 _atom_site_symmetry_multiplicity
 _atom_site_fract_x
 _atom_site_fract_y
 _atom_site_fract_z
 _atom_site_occupancy
 _atom_site_pbe_bader_charge
 _atom_site_pbe_bader_spin_density
 _atom_site_pbe_cm5_charge
 _atom_site_pbe_ddec_charge
 _atom_site_pbe_ddec_spin_density
 _atom_site_pbe_ddec_sum_bond_order
 _atom_site_pbe_magmom
Zr  Zr0  1  0.90708694  0.40708772  0.59291321  1  2.636287  0  1.628704  2.3741  0  2.741579  0
Zr  Zr1  1  0.09291238  0.59291759  0.40708576  1  2.639047  0  1.628716  2.374194  0  2.741453  0
Zr  Zr2  1  0.09291352  0.40708765  0.59291176  1  2.639172  0  1.6287  2.374153  0  2.74153  0
Zr  Zr3  1  0.90709053  0.59291085  0.40708799  1  2.636292  0  1.628683  2.374084  0  2.741646  0
Zr  Zr4  1  0.90708644  0.59291227  0.59291312  1  2.639117  0  1.628752  2.374173  0  2.741487  0
Zr  Zr5  1  0.09291217  0.40708918  0.40708720  1  2.636129  0  1.628691  2.374094  0  2.741517  0
H  H6  1  0.92687092  0.42687400  0.71938487  1  0.616376  0  0.331288  0.421868  0  0.857646  0
H  H7  1  0.92686810  0.71938879  0.42687452  1  0.599287  0  0.331239  0.421714  0  0.85782  0
H  H8  1  0.21938447  0.42687397  0.42687080  1  0.616423  0  0.33125  0.421799  0  0.857804  0
H  H9  1  0.92687099  0.42687051  0.42687465  1  0.591512  0  0.331215  0.421805  0  0.857644  0
H  H10  1  0.32156095  0.38688706  0.18024509  1  0.144817  0  0.119358  0.133832  0  1.010319  0
H  H11  1  0.31676994  0.61602879  0.17536277  1  0.140102  0  0.119478  0.134568  0  1.008134  0
H  H12  1  0.68024212  0.61130845  0.82156143  1  0.153781  0  0.119363  0.133849  0  1.010351  0
H  H13  1  0.67535725  0.39184325  0.81676588  1  0.141453  0  0.119491  0.134586  0  1.008107  0
H  H14  1  0.88688397  0.82156175  0.61130955  1  0.149426  0  0.119349  0.133834  0  1.010329  0
H  H15  1  0.11602551  0.81676868  0.39184506  1  0.156775  0  0.119511  0.134622  0  1.008133  0
H  H16  1  0.11130540  0.18024506  0.38688735  1  0.118727  0  0.119356  0.133868  0  1.010331  0
H  H17  1  0.89184271  0.17536352  0.61603125  1  0.157868  0  0.11951  0.134666  0  1.00802  0
H  H18  1  0.32156485  0.18024158  0.61130917  1  0.153787  0  0.119347  0.13382  0  1.01034  0
H  H19  1  0.31676337  0.17535791  0.39184638  1  0.141286  0  0.119507  0.134647  0  1.008039  0
H  H20  1  0.68024399  0.82155961  0.38688590  1  0.144708  0  0.119348  0.133811  0  1.010314  0
H  H21  1  0.67536090  0.81676396  0.61602955  1  0.140417  0  0.119524  0.134665  0  1.008043  0
H  H22  1  0.11131200  0.38688130  0.82156345  1  0.149297  0  0.119336  0.133816  0  1.010308  0
H  H23  1  0.89184675  0.61602303  0.81676790  1  0.156819  0  0.119534  0.134677  0  1.008083  0
H  H24  1  0.88688571  0.61130771  0.18024227  1  0.118783  0  0.119357  0.133863  0  1.01031  0
H  H25  1  0.11602988  0.39184386  0.17536341  1  0.157861  0  0.119494  0.134612  0  1.008084  0
H  H26  1  0.11130629  0.82156428  0.18024248  1  0.153824  0  0.119353  0.133863  0  1.010366  0
H  H27  1  0.89184646  0.81676396  0.17535271  1  0.141484  0  0.119501  0.134608  0  1.008082  0
H  H28  1  0.88688921  0.18024554  0.82155923  1  0.144795  0  0.119372  0.133841  0  1.010334  0
H  H29  1  0.11603504  0.17535840  0.81676551  1  0.140317  0  0.119491  0.1346  0  1.008114  0
H  H30  1  0.32156217  0.61131146  0.38688284  1  0.149313  0  0.119362  0.133871  0  1.010351  0
H  H31  1  0.31676899  0.39184698  0.61602287  1  0.156852  0  0.119525  0.134669  0  1.008075  0
H  H32  1  0.68024268  0.38689317  0.61130527  1  0.118728  0  0.119376  0.133873  0  1.010288  0
H  H33  1  0.67536282  0.61603496  0.39184013  1  0.157859  0  0.11951  0.134608  0  1.008116  0
C  C34  1  0.76170129  0.50239910  0.73361553  1  1.553561  0  0.240194  0.640692  0  4.09419  0
C  C35  1  0.00228101  0.73361298  0.50240202  1  1.579088  0  0.240172  0.640724  0  4.09407  0
C  C36  1  0.23361316  0.50228426  0.26170364  1  1.551105  0  0.240169  0.640732  0  4.094152  0
C  C37  1  0.00239944  0.26170658  0.50228041  1  1.569896  0  0.240115  0.640697  0  4.094158  0
C  C38  1  0.00228511  0.26170487  0.73361132  1  1.55124  0  0.240162  0.640754  0  4.093992  0
C  C39  1  0.76170419  0.50228413  0.50239961  1  1.570124  0  0.240186  0.640697  0  4.093958  0
C  C40  1  0.00240068  0.73361792  0.26169895  1  1.553363  0  0.240167  0.640667  0  4.094138  0
C  C41  1  0.23361142  0.50240566  0.50228070  1  1.578916  0  0.240188  0.640717  0  4.094042  0
C  C42  1  0.00240467  0.50228113  0.73361122  1  1.57898  0  0.240174  0.640734  0  4.094081  0
C  C43  1  0.23361400  0.26170386  0.50240181  1  1.552728  0  0.240128  0.64074  0  4.094234  0
C  C44  1  0.00227993  0.50240026  0.26170588  1  1.569933  0  0.240115  0.64063  0  4.094228  0
C  C45  1  0.76170442  0.73361006  0.50228475  1  1.551251  0  0.240175  0.640785  0  4.094051  0
C  C46  1  0.35086593  0.43610283  0.14949741  1  -0.034072  0  -0.067519  -0.113442  0  3.887786  0
C  C47  1  0.42420346  0.43530619  0.07555995  1  0.058175  0  0.004673  0.04208  0  3.998906  0
C  C48  1  0.46441982  0.37109554  0.03599246  1  0.191666  0  0.093953  -0.008881  0  3.904876  0
C  C49  1  0.34787874  0.56644800  0.14643770  1  -0.015165  0  -0.066723  -0.113645  0  3.888608  0
C  C50  1  0.42319069  0.56582687  0.07456774  1  0.027048  0  0.004595  0.041235  0  4.001728  0
C  C51  1  0.46356905  0.62917334  0.03534051  1  0.278263  0  0.09497  -0.005713  0  3.904301  0
C  C52  1  0.64949407  0.56353372  0.85087019  1  -0.010077  0  -0.067477  -0.113476  0  3.887886  0
C  C53  1  0.57556076  0.56493002  0.92420606  1  0.053688  0  0.004662  0.04212  0  3.999013  0
C  C54  1  0.53599785  0.62848954  0.96442550  1  0.200162  0  0.094001  -0.008883  0  3.904942  0
C  C55  1  0.64643280  0.43924022  0.84787627  1  0.013667  0  -0.066677  -0.113555  0  3.888567  0
C  C56  1  0.57456198  0.43641856  0.92319021  1  0.007388  0  0.00456  0.041061  0  4.001733  0
C  C57  1  0.53533251  0.37192460  0.96356520  1  0.31199  0  0.095009  -0.00564  0  3.904303  0
C  C58  1  0.31275193  0.50179033  0.18354858  1  0.063097  0  -0.011004  -0.026411  0  3.977664  0
C  C59  1  0.46211638  0.50045254  0.03691795  1  0.050361  0  0.014925  0.019707  0  3.899775  0
C  C60  1  0.68354711  0.50190975  0.81275198  1  0.00292  0  -0.011007  -0.026422  0  3.97785  0
C  C61  1  0.53691580  0.50051573  0.96211729  1  -0.031094  0  0.014963  0.019846  0  3.899667  0
C  C62  1  0.93609891  0.85086904  0.56353575  1  0.00466  0  -0.067478  -0.113529  0  3.887905  0
C  C63  1  0.93530234  0.92420664  0.56493173  1  -0.003198  0  0.00464  0.042149  0  3.999054  0
C  C64  1  0.87109159  0.96442396  0.62849018  1  0.236512  0  0.093987  -0.008601  0  3.905076  0
C  C65  1  0.06644483  0.84787759  0.43924056  1  0.005471  0  -0.066824  -0.113749  0  3.888761  0
C  C66  1  0.06582408  0.92318993  0.43642098  1  -0.019372  0  0.004696  0.041457  0  4.001794  0
C  C67  1  0.12917337  0.96356586  0.37192406  1  0.313562  0  0.094957  -0.006484  0  3.905319  0
C  C68  1  0.06353518  0.14949627  0.43610340  1  0.050474  0  -0.06754  -0.113539  0  3.887998  0
C  C69  1  0.06493012  0.07555952  0.43530784  1  0.023485  0  0.004687  0.042175  0  3.998887  0
C  C70  1  0.12849230  0.03599190  0.37109462  1  0.23527  0  0.094007  -0.008647  0  3.905078  0
C  C71  1  0.93923970  0.14643699  0.56645187  1  -0.028448  0  -0.066796  -0.113809  0  3.888568  0
C  C72  1  0.93641718  0.07456636  0.56583132  1  0.063561  0  0.004588  0.041522  0  4.001845  0
C  C73  1  0.87192174  0.03533857  0.62917581  1  0.269587  0  0.094986  -0.00658  0  3.905342  0
C  C74  1  0.00178654  0.81275542  0.50191237  1  -0.017725  0  -0.010973  -0.02623  0  3.977716  0
C  C75  1  0.00044891  0.96211582  0.50051936  1  -0.01373  0  0.014978  0.019811  0  3.899676  0
C  C76  1  0.00191074  0.18354675  0.50179178  1  -0.002274  0  -0.010907  -0.026295  0  3.977789  0
C  C77  1  0.00051494  0.03691576  0.50045602  1  0.003914  0  0.014918  0.019697  0  3.899587  0
C  C78  1  0.35086946  0.14949469  0.56353491  1  -0.010155  0  -0.067457  -0.113442  0  3.887875  0
C  C79  1  0.42420588  0.07555784  0.56493160  1  0.053942  0  0.004624  0.042108  0  3.999037  0
C  C80  1  0.46442437  0.03599473  0.62849027  1  0.199833  0  0.093981  -0.008895  0  3.905001  0
C  C81  1  0.34787157  0.14643260  0.43924377  1  0.013554  0  -0.066812  -0.113801  0  3.888743  0
C  C82  1  0.42318430  0.07456231  0.43642213  1  0.007374  0  0.004564  0.041202  0  4.001572  0
C  C83  1  0.46356014  0.03532744  0.37192829  1  0.312346  0  0.094998  -0.005716  0  3.903949  0
C  C84  1  0.64949586  0.85086507  0.43610352  1  -0.034193  0  -0.06756  -0.113543  0  3.887876  0
C  C85  1  0.57555733  0.92420192  0.43530737  1  0.058291  0  0.004633  0.042116  0  3.998978  0
C  C86  1  0.53598941  0.96441665  0.37109822  1  0.191584  0  0.093993  -0.008845  0  3.904943  0
C  C87  1  0.64643617  0.84787273  0.56644916  1  -0.015433  0  -0.066787  -0.11378  0  3.888648  0
C  C88  1  0.57456509  0.92318573  0.56582878  1  0.027165  0  0.004597  0.041238  0  4.001583  0
C  C89  1  0.53533855  0.96356570  0.62917480  1  0.278381  0  0.095001  -0.005685  0  3.904175  0
C  C90  1  0.31275135  0.18354483  0.50191382  1  0.003074  0  -0.01096  -0.026334  0  3.977805  0
C  C91  1  0.46211319  0.03691174  0.50051859  1  -0.031214  0  0.015001  0.019794  0  3.89972  0
C  C92  1  0.68354726  0.81274927  0.50179057  1  0.063049  0  -0.01092  -0.026295  0  3.977743  0
C  C93  1  0.53691326  0.96211126  0.50045607  1  0.050347  0  0.014939  0.019677  0  3.899829  0
C  C94  1  0.06353772  0.43609698  0.85086980  1  0.004786  0  -0.067462  -0.113465  0  3.887946  0
C  C95  1  0.06493551  0.43530029  0.92420499  1  -0.00343  0  0.004657  0.042184  0  3.998991  0
C  C96  1  0.12849442  0.37108954  0.96442242  1  0.236407  0  0.094027  -0.008528  0  3.904995  0
C  C97  1  0.93924372  0.56644167  0.84787789  1  0.005438  0  -0.066857  -0.113795  0  3.888849  0
C  C98  1  0.93642190  0.56582294  0.92318971  1  -0.019389  0  0.00464  0.041442  0  4.00192  0
C  C99  1  0.87192602  0.62917135  0.96356480  1  0.313608  0  0.094961  -0.006534  0  3.905321  0
C  C100  1  0.93610332  0.56353537  0.14949343  1  0.050107  0  -0.067479  -0.113459  0  3.887996  0
C  C101  1  0.93530991  0.56493119  0.07555566  1  0.023602  0  0.004623  0.042003  0  3.999166  0
C  C102  1  0.87109795  0.62848994  0.03599092  1  0.235332  0  0.094052  -0.008425  0  3.905036  0
C  C103  1  0.06645220  0.43923925  0.14643747  1  -0.028162  0  -0.06678  -0.113684  0  3.88853  0
C  C104  1  0.06583204  0.43641810  0.07456709  1  0.063205  0  0.004559  0.041461  0  4.001545  0
C  C105  1  0.12917984  0.37191846  0.03533829  1  0.269885  0  0.094964  -0.006638  0  3.904933  0
C  C106  1  0.00191407  0.50178644  0.81275473  1  -0.017682  0  -0.010979  -0.026304  0  3.977807  0
C  C107  1  0.00051960  0.50044991  0.96211403  1  -0.01367  0  0.014979  0.019787  0  3.899531  0
C  C108  1  0.00179024  0.50191150  0.18354469  1  -0.001904  0  -0.010973  -0.026358  0  3.977826  0
C  C109  1  0.00045854  0.50051662  0.03691469  1  0.003715  0  0.014987  0.019745  0  3.899641  0
C  C110  1  0.06353359  0.85086959  0.14949465  1  -0.01  0  -0.067473  -0.11348  0  3.887899  0
C  C111  1  0.06493325  0.92420664  0.07555627  1  0.053736  0  0.004626  0.042083  0  3.999017  0
C  C112  1  0.12849221  0.96442284  0.03599334  1  0.199743  0  0.093967  -0.008904  0  3.904899  0
C  C113  1  0.93924546  0.84787415  0.14642708  1  0.013096  0  -0.066666  -0.113549  0  3.888604  0
C  C114  1  0.93642329  0.92318479  0.07455763  1  0.006559  0  0.004431  0.040958  0  4.001693  0
C  C115  1  0.87193265  0.96355973  0.03532307  1  0.312811  0  0.095069  -0.005524  0  3.904144  0
C  C116  1  0.93610498  0.14949706  0.85086364  1  -0.034251  0  -0.067522  -0.113468  0  3.887942  0
C  C117  1  0.93530926  0.07555908  0.92420001  1  0.058284  0  0.00464  0.042079  0  3.999019  0
C  C118  1  0.87110062  0.03599043  0.96441357  1  0.19163  0  0.093951  -0.008902  0  3.90485  0
C  C119  1  0.06645214  0.14643566  0.84787343  1  -0.015537  0  -0.06674  -0.113704  0  3.888714  0
C  C120  1  0.06583192  0.07456550  0.92318584  1  0.027186  0  0.004586  0.041232  0  4.001637  0
C  C121  1  0.12917718  0.03533737  0.96356363  1  0.2783  0  0.09495  -0.005694  0  3.904202  0
C  C122  1  0.00191174  0.81275213  0.18354416  1  0.00327  0  -0.010993  -0.026415  0  3.977875  0
C  C123  1  0.00052097  0.96211480  0.03690990  1  -0.030635  0  0.015078  0.019928  0  3.899692  0
C  C124  1  0.00179408  0.18354703  0.81275049  1  0.063135  0  -0.010949  -0.026325  0  3.97775  0
C  C125  1  0.00045655  0.03691470  0.96211163  1  0.050362  0  0.014898  0.019616  0  3.899836  0
C  C126  1  0.35086826  0.56353953  0.43609636  1  0.005001  0  -0.067465  -0.113507  0  3.887873  0
C  C127  1  0.42420542  0.56493616  0.43530017  1  -0.003668  0  0.004637  0.042167  0  3.998851  0
C  C128  1  0.46442269  0.62849514  0.37108966  1  0.236357  0  0.094015  -0.008648  0  3.905055  0
C  C129  1  0.34787906  0.43924377  0.56644173  1  0.005456  0  -0.066813  -0.113739  0  3.888793  0
C  C130  1  0.42319095  0.43642284  0.56582207  1  -0.019487  0  0.004621  0.041328  0  4.001921  0
C  C131  1  0.46356655  0.37192867  0.62916881  1  0.31369  0  0.095013  -0.006342  0  3.905201  0
C  C132  1  0.64949559  0.43610717  0.56353292  1  0.050121  0  -0.067545  -0.113566  0  3.887902  0
C  C133  1  0.57555861  0.43531141  0.56492770  1  0.023668  0  0.004672  0.042043  0  3.999057  0
C  C134  1  0.53599124  0.37109985  0.62848791  1  0.235164  0  0.094054  -0.008501  0  3.904928  0
C  C135  1  0.64643673  0.56645502  0.43923845  1  -0.028181  0  -0.066727  -0.11367  0  3.888515  0
C  C136  1  0.57456472  0.56583505  0.43641550  1  0.063374  0  0.00452  0.041459  0  4.001562  0
C  C137  1  0.53533845  0.62918110  0.37191776  1  0.269933  0  0.094975  -0.00656  0  3.905157  0
C  C138  1  0.31275426  0.50191381  0.50178797  1  -0.017529  0  -0.010982  -0.026277  0  3.977748  0
C  C139  1  0.46211551  0.50052055  0.50044835  1  -0.013671  0  0.014969  0.019812  0  3.899498  0
C  C140  1  0.68354720  0.50179605  0.50190822  1  -0.002164  0  -0.010962  -0.02627  0  3.977702  0
C  C141  1  0.53691640  0.50046005  0.50051258  1  0.003573  0  0.01496  0.019724  0  3.89969  0
N  N142  1  0.57176010  0.30580699  0.92385572  1  0.411644  0  0.061547  0.511513  0  4.23122  0
N  N143  1  0.42887446  0.30094269  0.07615446  1  0.445475  0  0.062475  0.513673  0  4.227007  0
N  N144  1  0.57615697  0.69402653  0.92888795  1  0.411999  0  0.062616  0.513903  0  4.226481  0
N  N145  1  0.42385993  0.69857218  0.07176863  1  0.415221  0  0.061542  0.511341  0  4.231784  0
N  N146  1  0.80580410  0.07176717  0.69857576  1  0.417022  0  0.061509  0.511658  0  4.231425  0
N  N147  1  0.80093140  0.92888595  0.69402751  1  0.427404  0  0.062619  0.513929  0  4.226163  0
N  N148  1  0.19403402  0.07614737  0.30094946  1  0.427952  0  0.062309  0.513681  0  4.226805  0
N  N149  1  0.19856483  0.92386195  0.30580276  1  0.421398  0  0.061483  0.511671  0  4.231626  0
N  N150  1  0.57176832  0.92385577  0.69857335  1  0.415259  0  0.061584  0.511523  0  4.23151  0
N  N151  1  0.42888472  0.07615625  0.69402496  1  0.41195  0  0.062582  0.513869  0  4.226343  0
N  N152  1  0.57615231  0.92887207  0.30094441  1  0.445329  0  0.062396  0.513613  0  4.22702  0
N  N153  1  0.42385204  0.07175169  0.30581016  1  0.411465  0  0.061618  0.511697  0  4.23163  0
N  N154  1  0.19857817  0.30580364  0.07176627  1  0.417142  0  0.061532  0.511743  0  4.231255  0
N  N155  1  0.19402918  0.30092946  0.92888497  1  0.427636  0  0.062577  0.513853  0  4.226322  0
N  N156  1  0.80094765  0.69402922  0.07614942  1  0.428049  0  0.062316  0.513628  0  4.227042  0
N  N157  1  0.80580407  0.69856675  0.92385832  1  0.421893  0  0.06148  0.511586  0  4.23163  0
N  N158  1  0.19857654  0.07176551  0.92385526  1  0.415201  0  0.061494  0.511286  0  4.231867  0
N  N159  1  0.19402515  0.92888743  0.07615554  1  0.412125  0  0.062656  0.513949  0  4.226296  0
N  N160  1  0.80094502  0.07615380  0.92887226  1  0.445317  0  0.062507  0.513721  0  4.226882  0
N  N161  1  0.80581224  0.92385406  0.07175093  1  0.411451  0  0.061643  0.51164  0  4.231972  0
N  N162  1  0.57176724  0.69857691  0.30580287  1  0.417056  0  0.061416  0.511473  0  4.231609  0
N  N163  1  0.42888555  0.69403159  0.30092962  1  0.42722  0  0.062609  0.513915  0  4.226358  0
N  N164  1  0.57614734  0.30095587  0.69403087  1  0.428389  0  0.062289  0.513616  0  4.226357  0
N  N165  1  0.42385972  0.30580605  0.69856250  1  0.421341  0  0.061579  0.511787  0  4.231459  0
O  O166  1  0.79230658  0.44272621  0.70311834  1  -1.179361  0  -0.349893  -0.608508  0  2.271928  0
O  O167  1  0.06184723  0.70311618  0.44272949  1  -1.182782  0  -0.349853  -0.608459  0  2.271924  0
O  O168  1  0.20311535  0.56184948  0.29230707  1  -1.181575  0  -0.3499  -0.608552  0  2.272001  0
O  O169  1  0.94272401  0.29231329  0.56184304  1  -1.180934  0  -0.349849  -0.60848  0  2.27196  0
O  O170  1  0.06184976  0.29230964  0.70311533  1  -1.181557  0  -0.349856  -0.608519  0  2.27186  0
O  O171  1  0.79230956  0.56184938  0.44272420  1  -1.180991  0  -0.34989  -0.608545  0  2.271795  0
O  O172  1  0.94272928  0.70311922  0.29230431  1  -1.179523  0  -0.349889  -0.608504  0  2.271845  0
O  O173  1  0.20311539  0.44273040  0.56184944  1  -1.182652  0  -0.349877  -0.608482  0  2.271799  0
O  O174  1  0.94273229  0.56184754  0.70311547  1  -1.182723  0  -0.349877  -0.608536  0  2.271993  0
O  O175  1  0.20311597  0.29230565  0.44273205  1  -1.179094  0  -0.349899  -0.608512  0  2.272048  0
O  O176  1  0.06184662  0.44273002  0.29230838  1  -1.18092  0  -0.349846  -0.608426  0  2.271989  0
O  O177  1  0.79230685  0.70311161  0.56185024  1  -1.181565  0  -0.349875  -0.60849  0  2.271908  0
O  O178  1  0.20342364  0.29260405  0.56167128  1  -1.17742  0  -0.349313  -0.608169  0  2.271816  0
O  O179  1  0.94229942  0.56167122  0.29260600  1  -1.178219  0  -0.349315  -0.608121  0  2.271842  0
O  O180  1  0.79260425  0.70341724  0.44230670  1  -1.177393  0  -0.349396  -0.608221  0  2.271829  0
O  O181  1  0.06167767  0.44230242  0.70341749  1  -1.179437  0  -0.349372  -0.608215  0  2.271902  0
O  O182  1  0.94230972  0.29260448  0.70341615  1  -1.177386  0  -0.349407  -0.608184  0  2.271865  0
O  O183  1  0.20341735  0.56167625  0.44230549  1  -1.179563  0  -0.349377  -0.608216  0  2.271953  0
O  O184  1  0.06167043  0.70342510  0.29260066  1  -1.177613  0  -0.349369  -0.608123  0  2.271723  0
O  O185  1  0.79260260  0.44230834  0.56166999  1  -1.178241  0  -0.349405  -0.608151  0  2.271815  0
O  O186  1  0.06167058  0.29260447  0.44230514  1  -1.178196  0  -0.349338  -0.608139  0  2.271811  0
O  O187  1  0.79260135  0.56167030  0.70342043  1  -1.178101  0  -0.349405  -0.608114  0  2.271741  0
O  O188  1  0.94230505  0.70341745  0.56167410  1  -1.179486  0  -0.349382  -0.608257  0  2.271882  0
O  O189  1  0.20342009  0.44230633  0.29260419  1  -1.177316  0  -0.349346  -0.608127  0  2.271781  0
O  O190  1  0.94765035  0.44764993  0.44764942  1  -1.221669  0  -0.692036  -1.069516  0  2.355549  0
O  O191  1  0.15705062  0.44765200  0.44764984  1  -1.247608  0  -0.692087  -1.069543  0  2.355695  0
O  O192  1  0.94764849  0.65705416  0.44765065  1  -1.230447  0  -0.69208  -1.069415  0  2.35573  0
O  O193  1  0.94764864  0.44764852  0.65705268  1  -1.247483  0  -0.692119  -1.069621  0  2.35564  0
O  O194  1  0.03848780  0.53848682  0.53848201  1  -1.203255  0  -0.788715  -1.152618  0  2.125419  0
O  O195  1  0.88453966  0.53848774  0.53848691  1  -1.196233  0  -0.788702  -1.152612  0  2.125613  0
O  O196  1  0.03848728  0.53848818  0.38453824  1  -1.196143  0  -0.788672  -1.152602  0  2.125563  0
O  O197  1  0.03848728  0.38453785  0.53848774  1  -1.196254  0  -0.788686  -1.152687  0  2.125576  0
O  O198  1  0.64985516  0.26660252  0.90780112  1  -0.42159  0  -0.108729  -0.301549  0  1.961821  0
O  O199  1  0.52138620  0.29692127  0.90890330  1  -0.38089  0  -0.092731  -0.268072  0  1.923993  0
O  O200  1  0.35097890  0.32286973  0.09193132  1  -0.4389  0  -0.108067  -0.300512  0  1.961271  0
O  O201  1  0.47979213  0.22704300  0.09164117  1  -0.393674  0  -0.093395  -0.269486  0  1.921976  0
O  O202  1  0.59194041  0.73421795  0.85099492  1  -0.41782  0  -0.108045  -0.300469  0  1.961122  0
O  O203  1  0.59163168  0.70152378  0.97981566  1  -0.384803  0  -0.093573  -0.269747  0  1.921646  0
O  O204  1  0.40781131  0.67572683  0.14986636  1  -0.415992  0  -0.108716  -0.301427  0  1.962172  0
O  O205  1  0.40890053  0.77278255  0.02140251  1  -0.386261  0  -0.092729  -0.268013  0  1.924136  0
O  O206  1  0.76660158  0.14986313  0.67573847  1  -0.419359  0  -0.108643  -0.301414  0  1.961894  0
O  O207  1  0.79691979  0.02139259  0.77278715  1  -0.3854  0  -0.092752  -0.268039  0  1.923895  0
O  O208  1  0.82284895  0.85099245  0.73421786  1  -0.42476  0  -0.108067  -0.300493  0  1.960954  0
O  O209  1  0.72703099  0.97981655  0.70152098  1  -0.389171  0  -0.093559  -0.26976  0  1.92157  0
O  O210  1  0.23422798  0.09190396  0.32289302  1  -0.43237  0  -0.108143  -0.300716  0  1.96096  0
O  O211  1  0.20153294  0.09164893  0.22704731  1  -0.38371  0  -0.093158  -0.26925  0  1.922042  0
O  O212  1  0.17571053  0.90781592  0.26660268  1  -0.420163  0  -0.108713  -0.301509  0  1.96191  0
O  O213  1  0.27277931  0.90890456  0.29690558  1  -0.388645  0  -0.092704  -0.268055  0  1.923964  0
O  O214  1  0.64986589  0.90780034  0.67573245  1  -0.415998  0  -0.108705  -0.301518  0  1.962016  0
O  O215  1  0.52139761  0.90890179  0.77278405  1  -0.386375  0  -0.092805  -0.268116  0  1.92409  0
O  O216  1  0.35099530  0.09193813  0.73421812  1  -0.417813  0  -0.10802  -0.300443  0  1.961171  0
O  O217  1  0.47981521  0.09163655  0.70151772  1  -0.384684  0  -0.093568  -0.269741  0  1.921432  0
O  O218  1  0.59192682  0.85097634  0.32287132  1  -0.438849  0  -0.108118  -0.300572  0  1.961149  0
O  O219  1  0.59164444  0.97978710  0.22704592  1  -0.393554  0  -0.093278  -0.269375  0  1.922114  0
O  O220  1  0.40779513  0.14984673  0.26660490  1  -0.421362  0  -0.10873  -0.301598  0  1.96205  0
O  O221  1  0.40890612  0.02137330  0.29692369  1  -0.381151  0  -0.092729  -0.268112  0  1.924308  0
O  O222  1  0.17574214  0.26660118  0.14986144  1  -0.419385  0  -0.108641  -0.301437  0  1.961818  0
O  O223  1  0.27278925  0.29692066  0.02139012  1  -0.385586  0  -0.092762  -0.268068  0  1.923866  0
O  O224  1  0.23422050  0.32285035  0.85099115  1  -0.424773  0  -0.108049  -0.300482  0  1.961045  0
O  O225  1  0.20152017  0.22702985  0.97980878  1  -0.389443  0  -0.093535  -0.269694  0  1.921648  0
O  O226  1  0.82288582  0.73422418  0.09191236  1  -0.432329  0  -0.108049  -0.300592  0  1.961119  0
O  O227  1  0.72704667  0.70152410  0.09164930  1  -0.383892  0  -0.093284  -0.269398  0  1.922128  0
O  O228  1  0.76660407  0.67571534  0.90780994  1  -0.42058  0  -0.108691  -0.301424  0  1.961796  0
O  O229  1  0.79690906  0.77277944  0.90890318  1  -0.388692  0  -0.092709  -0.268037  0  1.924036  0
O  O230  1  0.17573661  0.14986178  0.90780602  1  -0.416078  0  -0.108638  -0.301378  0  1.962188  0
O  O231  1  0.27278716  0.02139386  0.90889783  1  -0.386269  0  -0.092723  -0.267987  0  1.924249  0
O  O232  1  0.23421692  0.85099462  0.09194407  1  -0.417759  0  -0.108065  -0.300476  0  1.961115  0
O  O233  1  0.20151912  0.97982080  0.09162985  1  -0.384811  0  -0.093597  -0.269795  0  1.921457  0
O  O234  1  0.82286727  0.09193407  0.85097685  1  -0.439007  0  -0.108132  -0.300595  0  1.961239  0
O  O235  1  0.72704717  0.09164199  0.97979181  1  -0.393527  0  -0.093387  -0.269464  0  1.921967  0
O  O236  1  0.76660457  0.90780348  0.14984322  1  -0.421311  0  -0.108749  -0.301592  0  1.962295  0
O  O237  1  0.79692487  0.90890553  0.02137288  1  -0.381101  0  -0.092792  -0.268173  0  1.924231  0
O  O238  1  0.64986310  0.67573973  0.26659901  1  -0.41947  0  -0.108635  -0.301383  0  1.962024  0
O  O239  1  0.52139467  0.77278977  0.29691778  1  -0.385461  0  -0.092668  -0.267882  0  1.923867  0
O  O240  1  0.35099130  0.73422297  0.32284892  1  -0.424604  0  -0.108037  -0.300492  0  1.961042  0
O  O241  1  0.47981186  0.70152375  0.22702968  1  -0.389213  0  -0.093596  -0.269747  0  1.921668  0
O  O242  1  0.59190094  0.32290077  0.73422520  1  -0.432487  0  -0.10802  -0.300501  0  1.960933  0
O  O243  1  0.59165196  0.22705031  0.70153003  1  -0.383875  0  -0.093309  -0.269453  0  1.921646  0
O  O244  1  0.40781334  0.26660678  0.67570706  1  -0.420081  0  -0.108719  -0.301508  0  1.961828  0
O  O245  1  0.40890021  0.29690875  0.77277726  1  -0.388564  0  -0.092804  -0.26823  0  1.924046  0
