# generated using pymatgen
data_MgH8C4O7
_symmetry_space_group_name_H-M   'P 1'
_cell_length_a   6.90289260
_cell_length_b   10.27326187
_cell_length_c   10.85099580
_cell_angle_alpha   90.00023304
_cell_angle_beta   97.96890416
_cell_angle_gamma   90.00057133
_symmetry_Int_Tables_number   1
_chemical_formula_structural   MgH8C4O7
_chemical_formula_sum   'Mg4 H32 C16 O28'
_cell_volume   762.07007220
_cell_formula_units_Z   4
loop_
 _symmetry_equiv_pos_site_id
 _symmetry_equiv_pos_as_xyz
  1  'x, y, z'
loop_
 _atom_site_type_symbol
 _atom_site_label
 _atom_site_symmetry_multiplicity
 _atom_site_fract_x
 _atom_site_fract_y
 _atom_site_fract_z
 _atom_site_occupancy
 _atom_site_hle17_bader_spin_density
 _atom_site_hle17_ddec_charge
 _atom_site_hle17_ddec_spin_density
 _atom_site_hle17_ddec_sum_bond_order
 _atom_site_hle17_magmom
 _atom_site_hse06_10hf_bader_spin_density
 _atom_site_hse06_10hf_ddec_charge
 _atom_site_hse06_10hf_ddec_spin_density
 _atom_site_hse06_10hf_ddec_sum_bond_order
 _atom_site_hse06_10hf_magmom
 _atom_site_hse06_bader_spin_density
 _atom_site_hse06_ddec_charge
 _atom_site_hse06_ddec_spin_density
 _atom_site_hse06_ddec_sum_bond_order
 _atom_site_hse06_magmom
 _atom_site_pbe_bader_spin_density
 _atom_site_pbe_cm5_charge
 _atom_site_pbe_ddec_charge
 _atom_site_pbe_ddec_spin_density
 _atom_site_pbe_ddec_sum_bond_order
 _atom_site_pbe_magmom
Mg  Mg0  1  0.05952956  0.61610055  0.80752715  1  0  1.473677  0  1.158887  0  0  1.362987  0  1.413469  0  0  1.386876  0  1.377862  0  0  0.820619  1.345955  0  1.438653  0
Mg  Mg1  1  0.44045715  0.11609970  0.69245955  1  0  1.473841  0  1.15856  0  0  1.363082  0  1.413263  0  0  1.386971  0  1.377661  0  0  0.820635  1.34598  0  1.438493  0
Mg  Mg2  1  0.94045931  0.38390022  0.19247431  1  0  1.473752  0  1.158771  0  0  1.362984  0  1.413497  0  0  1.386873  0  1.377888  0  0  0.820659  1.345941  0  1.438684  0
Mg  Mg3  1  0.55954755  0.88389620  0.30754001  1  0  1.473832  0  1.1586  0  0  1.363045  0  1.413362  0  0  1.386929  0  1.377768  0  0  0.820636  1.345966  0  1.438579  0
H  H4  1  0.78042358  0.68588270  0.61736102  1  0  0.439583  0  0.805123  0  0  0.420529  0  0.859963  0  0  0.428925  0  0.850152  0  0  0.326771  0.414377  0  0.867334  0
H  H5  1  0.71957020  0.18587642  0.88263267  1  0  0.439665  0  0.805112  0  0  0.420579  0  0.859955  0  0  0.428997  0  0.850103  0  0  0.326775  0.414412  0  0.867354  0
H  H6  1  0.21957651  0.31411904  0.38263551  1  0  0.439593  0  0.805082  0  0  0.420539  0  0.859922  0  0  0.428936  0  0.85011  0  0  0.32677  0.414386  0  0.867297  0
H  H7  1  0.28042151  0.81411949  0.11736802  1  0  0.439645  0  0.805059  0  0  0.42058  0  0.859902  0  0  0.428977  0  0.850089  0  0  0.326753  0.414415  0  0.867299  0
H  H8  1  0.97859885  0.67617844  0.56598067  1  0  0.435463  0  0.864232  0  0  0.401108  0  0.932522  0  0  0.412362  0  0.916202  0  0  0.299008  0.39318  0  0.944005  0
H  H9  1  0.52138294  0.17618177  0.93401049  1  0  0.435485  0  0.864211  0  0  0.401146  0  0.932498  0  0  0.412381  0  0.916193  0  0  0.299012  0.393217  0  0.943984  0
H  H10  1  0.02139556  0.32381844  0.43401740  1  0  0.43545  0  0.864257  0  0  0.401101  0  0.932536  0  0  0.412355  0  0.916215  0  0  0.299016  0.393173  0  0.944019  0
H  H11  1  0.47861001  0.82381608  0.06598750  1  0  0.435505  0  0.864191  0  0  0.401175  0  0.932466  0  0  0.412414  0  0.916153  0  0  0.299009  0.393246  0  0.943951  0
H  H12  1  0.36990433  0.63039543  0.97739913  1  0  0.428196  0  0.877462  0  0  0.393812  0  0.947424  0  0  0.404779  0  0.931251  0  0  0.295482  0.386071  0  0.958847  0
H  H13  1  0.13005880  0.13038678  0.52259834  1  0  0.427999  0  0.877659  0  0  0.393533  0  0.947725  0  0  0.404503  0  0.931549  0  0  0.295328  0.385787  0  0.959152  0
H  H14  1  0.63010630  0.36961216  0.02260167  1  0  0.428084  0  0.877673  0  0  0.393774  0  0.947527  0  0  0.404708  0  0.931378  0  0  0.295525  0.386036  0  0.958944  0
H  H15  1  0.86993169  0.86961593  0.47740505  1  0  0.427996  0  0.877677  0  0  0.393501  0  0.947758  0  0  0.404465  0  0.931592  0  0  0.29532  0.385756  0  0.959183  0
H  H16  1  0.22847352  0.52845132  0.03257737  1  0  0.434436  0  0.866621  0  0  0.400744  0  0.933969  0  0  0.411921  0  0.917553  0  0  0.295883  0.392798  0  0.945649  0
H  H17  1  0.27151296  0.02845553  0.46742719  1  0  0.434498  0  0.866561  0  0  0.400807  0  0.933898  0  0  0.411981  0  0.917485  0  0  0.295923  0.392865  0  0.945574  0
H  H18  1  0.77151666  0.47156016  0.96742231  1  0  0.434395  0  0.866552  0  0  0.400685  0  0.933952  0  0  0.411866  0  0.917531  0  0  0.295843  0.392731  0  0.945644  0
H  H19  1  0.72848875  0.97154816  0.53257128  1  0  0.434525  0  0.866532  0  0  0.400797  0  0.933935  0  0  0.411973  0  0.917518  0  0  0.295935  0.392851  0  0.945614  0
H  H20  1  0.70953370  0.89201905  0.82390454  1  0  0.116294  0  0.939207  0  0  0.123713  0  1.004498  0  0  0.126878  0  1.001855  0  0  0.118711  0.121411  0  1.006558  0
H  H21  1  0.79049166  0.39201127  0.67611566  1  0  0.116213  0  0.939336  0  0  0.123647  0  1.004556  0  0  0.126833  0  1.001909  0  0  0.118625  0.121313  0  1.006639  0
H  H22  1  0.29046864  0.10799438  0.17610134  1  0  0.116328  0  0.939061  0  0  0.123763  0  1.004375  0  0  0.126922  0  1.001718  0  0  0.118729  0.121422  0  1.006473  0
H  H23  1  0.20952280  0.60798853  0.32387888  1  0  0.116183  0  0.939332  0  0  0.123678  0  1.004527  0  0  0.126855  0  1.001874  0  0  0.118666  0.121345  0  1.006606  0
H  H24  1  0.84358131  0.89773666  0.97712981  1  0  0.088106  0  0.927391  0  0  0.097828  0  0.992333  0  0  0.100149  0  0.989507  0  0  0.108316  0.096011  0  0.994761  0
H  H25  1  0.65647516  0.39775545  0.52287919  1  0  0.088101  0  0.927412  0  0  0.097711  0  0.99243  0  0  0.100021  0  0.989636  0  0  0.108224  0.095894  0  0.994844  0
H  H26  1  0.15642848  0.10226898  0.02287833  1  0  0.088044  0  0.927545  0  0  0.097804  0  0.992479  0  0  0.100112  0  0.98965  0  0  0.108298  0.095987  0  0.994904  0
H  H27  1  0.34353507  0.60224045  0.47711697  1  0  0.088044  0  0.927437  0  0  0.097695  0  0.992459  0  0  0.100007  0  0.989646  0  0  0.108225  0.095871  0  0.994879  0
H  H28  1  0.15002288  0.98207532  0.86937396  1  0  0.085253  0  0.934987  0  0  0.095104  0  1.001702  0  0  0.09782  0  0.998358  0  0  0.109524  0.092978  0  1.004513  0
H  H29  1  0.34998647  0.48208427  0.63064215  1  0  0.085152  0  0.935085  0  0  0.095083  0  1.001767  0  0  0.097802  0  0.99841  0  0  0.109521  0.092959  0  1.004571  0
H  H30  1  0.84997354  0.01791961  0.13063068  1  0  0.085204  0  0.934998  0  0  0.095061  0  1.001714  0  0  0.09779  0  0.998349  0  0  0.10951  0.092935  0  1.004522  0
H  H31  1  0.65001740  0.51790871  0.36936474  1  0  0.085125  0  0.934965  0  0  0.095052  0  1.001619  0  0  0.09776  0  0.998275  0  0  0.109549  0.09295  0  1.004403  0
H  H32  1  0.00878861  0.96419213  0.71961458  1  0  0.104398  0  0.916214  0  0  0.112839  0  0.981726  0  0  0.116195  0  0.978488  0  0  0.116077  0.110323  0  0.984404  0
H  H33  1  0.49120160  0.46417551  0.78038473  1  0  0.104386  0  0.91619  0  0  0.112892  0  0.981684  0  0  0.116245  0  0.978458  0  0  0.116104  0.110375  0  0.984363  0
H  H34  1  0.99121432  0.03580864  0.28038118  1  0  0.10436  0  0.916245  0  0  0.112856  0  0.981704  0  0  0.116211  0  0.978469  0  0  0.116072  0.110339  0  0.984384  0
H  H35  1  0.50879166  0.53582623  0.21961697  1  0  0.104489  0  0.916197  0  0  0.112957  0  0.981682  0  0  0.116308  0  0.978452  0  0  0.116112  0.110435  0  0.984367  0
C  C36  1  0.72292461  0.70998757  0.92140627  1  0  0.724501  0  3.808676  0  0  0.6625  0  4.121997  0  0  0.696447  0  4.112109  0  0  0.234589  0.639424  0  4.127991  0
C  C37  1  0.77707164  0.20998019  0.57859504  1  0  0.725016  0  3.808282  0  0  0.662739  0  4.121971  0  0  0.696708  0  4.11206  0  0  0.234565  0.639663  0  4.127961  0
C  C38  1  0.27707987  0.29001905  0.07859050  1  0  0.724529  0  3.808929  0  0  0.662577  0  4.122222  0  0  0.69651  0  4.11233  0  0  0.234536  0.639503  0  4.12821  0
C  C39  1  0.22294167  0.79001863  0.42140313  1  0  0.725073  0  3.808176  0  0  0.662822  0  4.121854  0  0  0.696776  0  4.111949  0  0  0.234676  0.639749  0  4.127841  0
C  C40  1  0.81428393  0.83900038  0.89162700  1  0  -0.071666  0  3.617231  0  0  -0.126467  0  3.875692  0  0  -0.124114  0  3.875222  0  0  -0.06297  -0.128094  0  3.876166  0
C  C41  1  0.68573365  0.33901590  0.60837966  1  0  -0.071832  0  3.617581  0  0  -0.126325  0  3.875626  0  0  -0.124036  0  3.875281  0  0  -0.062786  -0.127916  0  3.87605  0
C  C42  1  0.18570610  0.16100331  0.10837083  1  0  -0.071516  0  3.61701  0  0  -0.126506  0  3.875608  0  0  -0.1241  0  3.875082  0  0  -0.06296  -0.1281  0  3.876085  0
C  C43  1  0.31428258  0.66098196  0.39161867  1  0  -0.071767  0  3.617397  0  0  -0.126409  0  3.875574  0  0  -0.124079  0  3.875173  0  0  -0.062865  -0.127991  0  3.876001  0
C  C44  1  0.09833638  0.91127759  0.79578728  1  0  -0.072029  0  3.619622  0  0  -0.129036  0  3.884459  0  0  -0.12603  0  3.882783  0  0  -0.060857  -0.131274  0  3.88601  0
C  C45  1  0.40166630  0.41126972  0.70421435  1  0  -0.071668  0  3.619277  0  0  -0.128961  0  3.884338  0  0  -0.125966  0  3.882661  0  0  -0.060874  -0.131209  0  3.885889  0
C  C46  1  0.90165996  0.08872416  0.20421644  1  0  -0.071918  0  3.6195  0  0  -0.129019  0  3.884365  0  0  -0.12602  0  3.882669  0  0  -0.06087  -0.131262  0  3.885926  0
C  C47  1  0.59833233  0.58872618  0.29578210  1  0  -0.071859  0  3.619334  0  0  -0.129017  0  3.884208  0  0  -0.125999  0  3.882507  0  0  -0.060907  -0.131287  0  3.885764  0
C  C48  1  0.27470588  0.84784739  0.74810381  1  0  0.726847  0  3.849084  0  0  0.67045  0  4.163188  0  0  0.704322  0  4.152542  0  0  0.223982  0.647432  0  4.169739  0
C  C49  1  0.22530639  0.34784927  0.75188517  1  0  0.726679  0  3.849479  0  0  0.670525  0  4.163272  0  0  0.704403  0  4.152606  0  0  0.223961  0.647513  0  4.169826  0
C  C50  1  0.72529760  0.15214852  0.25189844  1  0  0.726812  0  3.849257  0  0  0.670452  0  4.163294  0  0  0.704331  0  4.152634  0  0  0.223994  0.647435  0  4.169843  0
C  C51  1  0.77470109  0.65215053  0.24811268  1  0  0.726562  0  3.849715  0  0  0.670418  0  4.163433  0  0  0.704294  0  4.152772  0  0  0.223927  0.647403  0  4.169987  0
O  O52  1  0.57991464  0.71343404  0.98153835  1  0  -0.631426  0  2.04945  0  0  -0.565155  0  2.275765  0  0  -0.592619  0  2.266293  0  0  -0.295755  -0.545971  0  2.281774  0
O  O53  1  0.92009150  0.21344097  0.51845890  1  0  -0.631726  0  2.049205  0  0  -0.565377  0  2.275674  0  0  -0.592836  0  2.266189  0  0  -0.295833  -0.546184  0  2.281688  0
O  O54  1  0.42008447  0.28657063  0.01846367  1  0  -0.631491  0  2.049715  0  0  -0.565228  0  2.275987  0  0  -0.592681  0  2.266503  0  0  -0.295763  -0.546046  0  2.282  0
O  O55  1  0.07991282  0.78655785  0.48153602  1  0  -0.631831  0  2.049116  0  0  -0.565467  0  2.275571  0  0  -0.592927  0  2.266096  0  0  -0.295879  -0.546273  0  2.281583  0
O  O56  1  0.79651365  0.60599738  0.88208375  1  0  -0.703525  0  2.000857  0  0  -0.633494  0  2.230169  0  0  -0.658794  0  2.217698  0  0  -0.336001  -0.615661  0  2.2383  0
O  O57  1  0.70349542  0.10601014  0.61791601  1  0  -0.703621  0  2.001105  0  0  -0.633542  0  2.230615  0  0  -0.658819  0  2.218121  0  0  -0.335955  -0.6157  0  2.23877  0
O  O58  1  0.20348099  0.39400145  0.11791710  1  0  -0.703539  0  2.000851  0  0  -0.633518  0  2.230167  0  0  -0.658816  0  2.217701  0  0  -0.335984  -0.61569  0  2.238298  0
O  O59  1  0.29650783  0.89398674  0.38208346  1  0  -0.703624  0  2.001125  0  0  -0.633563  0  2.230625  0  0  -0.65884  0  2.218139  0  0  -0.336038  -0.615731  0  2.238776  0
O  O60  1  0.99003788  0.80929462  0.84282024  1  0  -0.359212  0  2.543662  0  0  -0.2772  0  2.782285  0  0  -0.292331  0  2.783549  0  0  -0.256858  -0.266513  0  2.781106  0
O  O61  1  0.50996989  0.30929263  0.65716177  1  0  -0.359235  0  2.543632  0  0  -0.27724  0  2.782277  0  0  -0.292332  0  2.783556  0  0  -0.256829  -0.26653  0  2.781088  0
O  O62  1  0.00995613  0.19071102  0.15717319  1  0  -0.359372  0  2.543509  0  0  -0.27719  0  2.782099  0  0  -0.292343  0  2.783358  0  0  -0.256864  -0.266494  0  2.780902  0
O  O63  1  0.49004228  0.69070230  0.34284003  1  0  -0.359166  0  2.543568  0  0  -0.277187  0  2.782199  0  0  -0.292298  0  2.783463  0  0  -0.25683  -0.266486  0  2.781014  0
O  O64  1  0.40331166  0.92433757  0.71670762  1  0  -0.716761  0  1.9867  0  0  -0.658422  0  2.229929  0  0  -0.682255  0  2.216265  0  0  -0.365968  -0.641648  0  2.238972  0
O  O65  1  0.09669281  0.42434652  0.78327847  1  0  -0.716771  0  1.986662  0  0  -0.658537  0  2.229818  0  0  -0.682379  0  2.216152  0  0  -0.365995  -0.641779  0  2.238833  0
O  O66  1  0.59669190  0.07565444  0.28329556  1  0  -0.716861  0  1.986715  0  0  -0.658501  0  2.229878  0  0  -0.682341  0  2.21621  0  0  -0.366046  -0.641729  0  2.238907  0
O  O67  1  0.90330665  0.57565425  0.21671065  1  0  -0.71668  0  1.98675  0  0  -0.658454  0  2.229906  0  0  -0.682301  0  2.216243  0  0  -0.365986  -0.641693  0  2.238921  0
O  O68  1  0.28158974  0.72481053  0.74354881  1  0  -0.698979  0  1.962768  0  0  -0.647221  0  2.203334  0  0  -0.671088  0  2.192445  0  0  -0.352694  -0.630577  0  2.210612  0
O  O69  1  0.21839336  0.22482601  0.75642704  1  0  -0.698971  0  1.963208  0  0  -0.647195  0  2.203519  0  0  -0.671109  0  2.192727  0  0  -0.352667  -0.630538  0  2.210807  0
O  O70  1  0.71841327  0.27518148  0.25644788  1  0  -0.698885  0  1.962954  0  0  -0.647134  0  2.203514  0  0  -0.671023  0  2.192643  0  0  -0.352632  -0.630488  0  2.210794  0
O  O71  1  0.78160673  0.77517671  0.24356949  1  0  -0.698867  0  1.963186  0  0  -0.647167  0  2.203592  0  0  -0.671063  0  2.19276  0  0  -0.352637  -0.630518  0  2.210884  0
O  O72  1  0.89800379  0.63216210  0.62391895  1  0  -0.879635  0  1.808398  0  0  -0.830958  0  1.989365  0  0  -0.848031  0  1.961681  0  0  -0.595959  -0.819037  0  2.009098  0
O  O73  1  0.60197162  0.13216570  0.87607354  1  0  -0.879792  0  1.80842  0  0  -0.831081  0  1.989322  0  0  -0.84816  0  1.961639  0  0  -0.595915  -0.819122  0  2.009123  0
O  O74  1  0.10199223  0.36783769  0.37608105  1  0  -0.879651  0  1.808359  0  0  -0.830966  0  1.989333  0  0  -0.84804  0  1.961648  0  0  -0.595963  -0.819044  0  2.009069  0
O  O75  1  0.39802010  0.86783312  0.12392715  1  0  -0.879791  0  1.808313  0  0  -0.831097  0  1.989142  0  0  -0.848148  0  1.961511  0  0  -0.595898  -0.819149  0  2.008924  0
O  O76  1  0.23030673  0.60866282  0.98097494  1  0  -0.923533  0  1.842958  0  0  -0.873683  0  2.032047  0  0  -0.891428  0  1.998135  0  0  -0.621914  -0.861185  0  2.055871  0
O  O77  1  0.26969357  0.10865121  0.51901893  1  0  -0.923409  0  1.843022  0  0  -0.873438  0  2.032203  0  0  -0.891196  0  1.99834  0  0  -0.621756  -0.860945  0  2.0561  0
O  O78  1  0.76966749  0.39133309  0.01904234  1  0  -0.92333  0  1.843014  0  0  -0.87357  0  2.032074  0  0  -0.891237  0  1.998185  0  0  -0.62193  -0.861089  0  2.055941  0
O  O79  1  0.73030261  0.89134761  0.48098293  1  0  -0.923385  0  1.842981  0  0  -0.873349  0  2.032285  0  0  -0.891108  0  1.998426  0  0  -0.621764  -0.860861  0  2.056189  0
