# generated using pymatgen
data_ZnH8C12(NO2)2
_symmetry_space_group_name_H-M   'P 1'
_cell_length_a   7.84578208
_cell_length_b   7.84577747
_cell_length_c   20.07988068
_cell_angle_alpha   89.99999340
_cell_angle_beta   89.99959008
_cell_angle_gamma   90.04704160
_symmetry_Int_Tables_number   1
_chemical_formula_structural   ZnH8C12(NO2)2
_chemical_formula_sum   'Zn4 H32 C48 N8 O16'
_cell_volume   1236.04194470
_cell_formula_units_Z   4
loop_
 _symmetry_equiv_pos_site_id
 _symmetry_equiv_pos_as_xyz
  1  'x, y, z'
loop_
 _atom_site_type_symbol
 _atom_site_label
 _atom_site_symmetry_multiplicity
 _atom_site_fract_x
 _atom_site_fract_y
 _atom_site_fract_z
 _atom_site_occupancy
 _atom_site_hle17_bader_spin_density
 _atom_site_hle17_ddec_charge
 _atom_site_hle17_ddec_spin_density
 _atom_site_hle17_ddec_sum_bond_order
 _atom_site_hle17_magmom
 _atom_site_hse06_10hf_bader_spin_density
 _atom_site_hse06_10hf_ddec_charge
 _atom_site_hse06_10hf_ddec_spin_density
 _atom_site_hse06_10hf_ddec_sum_bond_order
 _atom_site_hse06_10hf_magmom
 _atom_site_hse06_bader_spin_density
 _atom_site_hse06_ddec_charge
 _atom_site_hse06_ddec_spin_density
 _atom_site_hse06_ddec_sum_bond_order
 _atom_site_hse06_magmom
 _atom_site_pbe_bader_spin_density
 _atom_site_pbe_cm5_charge
 _atom_site_pbe_ddec_charge
 _atom_site_pbe_ddec_spin_density
 _atom_site_pbe_ddec_sum_bond_order
 _atom_site_pbe_magmom
Zn  Zn0  1  0.32656657  0.32656555  0.99999652  1  0  0.96676  0  1.87041  0  0  0.774944  0  2.334818  0  0  0.824801  0  2.282077  0  0  0.685284  0.740211  0  2.370842  0
Zn  Zn1  1  0.67343618  0.67343852  0.50000401  1  0  0.966826  0  1.870423  0  0  0.774955  0  2.334814  0  0  0.824812  0  2.282071  0  0  0.685332  0.740219  0  2.370854  0
Zn  Zn2  1  0.17341783  0.82658960  0.75000021  1  0  0.966159  0  1.869023  0  0  0.77443  0  2.33314  0  0  0.824345  0  2.280523  0  0  0.684899  0.739632  0  2.369121  0
Zn  Zn3  1  0.82657930  0.17340691  0.24999983  1  0  0.966165  0  1.869042  0  0  0.77442  0  2.333153  0  0  0.824333  0  2.28054  0  0  0.684905  0.739656  0  2.369072  0
H  H4  1  0.30534491  0.69545976  0.98160450  1  0  0.096166  0  0.926705  0  0  0.103048  0  0.991692  0  0  0.106615  0  0.988011  0  0  0.123601  0.100359  0  0.994467  0
H  H5  1  0.69465435  0.30452137  0.48161095  1  0  0.096099  0  0.926587  0  0  0.102983  0  0.991587  0  0  0.106551  0  0.987904  0  0  0.123573  0.100314  0  0.994344  0
H  H6  1  0.80454730  0.80563218  0.73161177  1  0  0.096322  0  0.926506  0  0  0.103134  0  0.991526  0  0  0.106718  0  0.987816  0  0  0.123557  0.100411  0  0.994341  0
H  H7  1  0.19545146  0.19437326  0.23161016  1  0  0.096324  0  0.926444  0  0  0.103139  0  0.991472  0  0  0.106722  0  0.987764  0  0  0.123543  0.10042  0  0.994282  0
H  H8  1  0.19436743  0.19546120  0.76838676  1  0  0.096346  0  0.926489  0  0  0.103152  0  0.991524  0  0  0.106737  0  0.987813  0  0  0.123548  0.100428  0  0.994341  0
H  H9  1  0.80563065  0.80453403  0.26838790  1  0  0.096302  0  0.926487  0  0  0.103111  0  0.991532  0  0  0.106695  0  0.987824  0  0  0.123516  0.100415  0  0.994318  0
H  H10  1  0.69547720  0.30533751  0.01838957  1  0  0.096073  0  0.926597  0  0  0.102976  0  0.991599  0  0  0.106545  0  0.987917  0  0  0.123584  0.100309  0  0.994356  0
H  H11  1  0.30453565  0.69466291  0.51839657  1  0  0.096099  0  0.926714  0  0  0.102996  0  0.99171  0  0  0.106563  0  0.98803  0  0  0.123624  0.10033  0  0.994465  0
H  H12  1  0.46766890  0.94682225  0.16105058  1  0  0.118698  0  0.94544  0  0  0.125341  0  1.010315  0  0  0.128632  0  1.007532  0  0  0.111407  0.122902  0  1.012337  0
H  H13  1  0.53231330  0.05317428  0.66105747  1  0  0.118714  0  0.945302  0  0  0.125297  0  1.010257  0  0  0.128589  0  1.007472  0  0  0.111384  0.122854  0  1.012282  0
H  H14  1  0.55342915  0.96856709  0.91095681  1  0  0.118556  0  0.945754  0  0  0.125432  0  1.010468  0  0  0.128651  0  1.007762  0  0  0.111347  0.122995  0  1.012487  0
H  H15  1  0.44656504  0.03143191  0.41095401  1  0  0.11854  0  0.94573  0  0  0.125425  0  1.01046  0  0  0.128648  0  1.007748  0  0  0.111345  0.122977  0  1.012489  0
H  H16  1  0.03143804  0.44657279  0.58904179  1  0  0.118451  0  0.945822  0  0  0.125347  0  1.01052  0  0  0.12859  0  1.007784  0  0  0.111335  0.122907  0  1.012539  0
H  H17  1  0.96857097  0.55342506  0.08904150  1  0  0.118447  0  0.945808  0  0  0.125335  0  1.010485  0  0  0.128566  0  1.007764  0  0  0.111324  0.122891  0  1.012511  0
H  H18  1  0.94683316  0.46768325  0.83894290  1  0  0.118598  0  0.945378  0  0  0.125223  0  1.0103  0  0  0.128514  0  1.007515  0  0  0.111362  0.122778  0  1.012327  0
H  H19  1  0.05318530  0.53234255  0.33894914  1  0  0.118647  0  0.94556  0  0  0.125295  0  1.010451  0  0  0.128586  0  1.007669  0  0  0.111383  0.122856  0  1.012469  0
H  H20  1  0.50027773  0.65357595  0.21342586  1  0  0.105593  0  0.958275  0  0  0.115118  0  1.017811  0  0  0.117903  0  1.018012  0  0  0.109191  0.113147  0  1.017817  0
H  H21  1  0.49970734  0.34642822  0.71342634  1  0  0.105679  0  0.958299  0  0  0.115231  0  1.017771  0  0  0.118009  0  1.017987  0  0  0.10917  0.113268  0  1.017752  0
H  H22  1  0.84659793  0.00046208  0.96344777  1  0  0.10536  0  0.95833  0  0  0.115276  0  1.017521  0  0  0.118095  0  1.017666  0  0  0.109175  0.113248  0  1.017613  0
H  H23  1  0.15339530  0.99953562  0.46344575  1  0  0.105409  0  0.958334  0  0  0.115274  0  1.017563  0  0  0.118113  0  1.017679  0  0  0.109179  0.113242  0  1.017658  0
H  H24  1  0.99953658  0.15340082  0.53655308  1  0  0.105425  0  0.958334  0  0  0.115309  0  1.017539  0  0  0.118127  0  1.017682  0  0  0.109179  0.113282  0  1.01763  0
H  H25  1  0.00047339  0.84659577  0.03655249  1  0  0.105352  0  0.958352  0  0  0.115234  0  1.017569  0  0  0.118096  0  1.017657  0  0  0.109163  0.113205  0  1.017661  0
H  H26  1  0.65357988  0.50029386  0.78657198  1  0  0.105623  0  0.958316  0  0  0.115204  0  1.01777  0  0  0.117982  0  1.017987  0  0  0.109178  0.11324  0  1.017752  0
H  H27  1  0.34643317  0.49972813  0.28657740  1  0  0.10565  0  0.958344  0  0  0.11517  0  1.017872  0  0  0.117965  0  1.018041  0  0  0.109198  0.113205  0  1.017855  0
H  H28  1  0.43027631  0.39566454  0.14559089  1  0  0.113819  0  0.944988  0  0  0.119335  0  1.010326  0  0  0.123223  0  1.005877  0  0  0.123757  0.116427  0  1.013648  0
H  H29  1  0.56971127  0.60433328  0.64559267  1  0  0.113815  0  0.944954  0  0  0.119307  0  1.010296  0  0  0.123194  0  1.005847  0  0  0.123739  0.116406  0  1.01362  0
H  H30  1  0.10447532  0.92985251  0.89571731  1  0  0.113661  0  0.945744  0  0  0.119155  0  1.011094  0  0  0.123039  0  1.006655  0  0  0.123644  0.116254  0  1.014408  0
H  H31  1  0.89552042  0.07014650  0.39571624  1  0  0.113673  0  0.945724  0  0  0.119173  0  1.011063  0  0  0.123059  0  1.006623  0  0  0.123629  0.116278  0  1.014378  0
H  H32  1  0.07014227  0.89552701  0.60428435  1  0  0.113692  0  0.945782  0  0  0.11919  0  1.011128  0  0  0.123074  0  1.006688  0  0  0.123645  0.116291  0  1.014442  0
H  H33  1  0.92985244  0.10446827  0.10428468  1  0  0.113731  0  0.945781  0  0  0.1192  0  1.011153  0  0  0.123082  0  1.006718  0  0  0.123672  0.116298  0  1.014468  0
H  H34  1  0.39567435  0.43028540  0.85440591  1  0  0.113862  0  0.944958  0  0  0.119376  0  1.010269  0  0  0.123266  0  1.005814  0  0  0.123775  0.116472  0  1.013594  0
H  H35  1  0.60434255  0.56972765  0.35441161  1  0  0.113803  0  0.944926  0  0  0.119271  0  1.010316  0  0  0.123155  0  1.005877  0  0  0.123763  0.116373  0  1.013638  0
C  C36  1  0.34853780  0.69044693  0.03326414  1  0  0.115633  0  3.679878  0  0  0.073488  0  3.927978  0  0  0.082119  0  3.945859  0  0  0.054364  0.068125  0  3.915771  0
C  C37  1  0.65145438  0.30954200  0.53327018  1  0  0.116032  0  3.679779  0  0  0.073855  0  3.927899  0  0  0.082491  0  3.945773  0  0  0.054475  0.068476  0  3.915689  0
C  C38  1  0.80955068  0.84883581  0.78327094  1  0  0.115994  0  3.678176  0  0  0.074067  0  3.926224  0  0  0.082708  0  3.944098  0  0  0.054745  0.06872  0  3.914041  0
C  C39  1  0.19044713  0.15116833  0.28327084  1  0  0.11595  0  3.67816  0  0  0.073973  0  3.9262  0  0  0.082614  0  3.944075  0  0  0.054735  0.068629  0  3.914014  0
C  C40  1  0.15115791  0.19045353  0.71672815  1  0  0.115882  0  3.678348  0  0  0.073944  0  3.926399  0  0  0.082585  0  3.944273  0  0  0.054766  0.068607  0  3.914207  0
C  C41  1  0.84883091  0.80954044  0.21672718  1  0  0.115982  0  3.678306  0  0  0.074047  0  3.926375  0  0  0.082685  0  3.944249  0  0  0.054772  0.068682  0  3.914187  0
C  C42  1  0.69046062  0.34853305  0.96672888  1  0  0.11608  0  3.679458  0  0  0.073897  0  3.927628  0  0  0.082534  0  3.945502  0  0  0.054503  0.068514  0  3.915419  0
C  C43  1  0.30955422  0.65147359  0.46673789  1  0  0.115728  0  3.679958  0  0  0.073472  0  3.928089  0  0  0.082106  0  3.945967  0  0  0.054342  0.068093  0  3.915877  0
C  C44  1  0.38326244  0.84083252  0.06770852  1  0  -0.111389  0  3.765492  0  0  -0.082654  0  3.996951  0  0  -0.096476  0  4.021746  0  0  -0.012105  -0.074029  0  3.980473  0
C  C45  1  0.61672274  0.15916022  0.56771715  1  0  -0.111897  0  3.765803  0  0  -0.083182  0  3.997274  0  0  -0.097009  0  4.022065  0  0  -0.012263  -0.074552  0  3.980803  0
C  C46  1  0.65920877  0.88384009  0.81767075  1  0  -0.11067  0  3.764847  0  0  -0.082118  0  3.996457  0  0  -0.095913  0  4.021213  0  0  -0.012257  -0.073493  0  3.979973  0
C  C47  1  0.34078967  0.11615385  0.31767023  1  0  -0.110662  0  3.764737  0  0  -0.082096  0  3.99637  0  0  -0.095892  0  4.02113  0  0  -0.012234  -0.073484  0  3.979903  0
C  C48  1  0.11616161  0.34079521  0.68232809  1  0  -0.110579  0  3.764879  0  0  -0.082015  0  3.996488  0  0  -0.095809  0  4.021253  0  0  -0.012231  -0.073393  0  3.980004  0
C  C49  1  0.88383549  0.65920004  0.18232603  1  0  -0.110814  0  3.765068  0  0  -0.082273  0  3.996629  0  0  -0.096067  0  4.021391  0  0  -0.01228  -0.073665  0  3.98017  0
C  C50  1  0.84084645  0.38326822  0.93228374  1  0  -0.111747  0  3.765407  0  0  -0.083027  0  3.996902  0  0  -0.096856  0  4.021693  0  0  -0.012188  -0.074396  0  3.980422  0
C  C51  1  0.15917157  0.61674735  0.43229068  1  0  -0.111399  0  3.765538  0  0  -0.082619  0  3.996956  0  0  -0.096442  0  4.021752  0  0  -0.012154  -0.073992  0  3.980473  0
C  C52  1  0.43892926  0.82980611  0.13376461  1  0  -0.000867  0  3.656793  0  0  -0.030949  0  3.902424  0  0  -0.024375  0  3.919336  0  0  -0.056366  -0.03478  0  3.890826  0
C  C53  1  0.56104834  0.17019553  0.63377190  1  0  -0.000553  0  3.656546  0  0  -0.030558  0  3.902135  0  0  -0.023982  0  3.919049  0  0  -0.05629  -0.034398  0  3.890543  0
C  C54  1  0.67042302  0.93949882  0.88372989  1  0  -0.001201  0  3.656947  0  0  -0.031448  0  3.902789  0  0  -0.024828  0  3.919753  0  0  -0.056181  -0.035266  0  3.891161  0
C  C55  1  0.32956912  0.06050273  0.38372991  1  0  -0.001185  0  3.656925  0  0  -0.031488  0  3.902787  0  0  -0.024871  0  3.919761  0  0  -0.056272  -0.035315  0  3.891173  0
C  C56  1  0.06050605  0.32958037  0.61626951  1  0  -0.001054  0  3.656909  0  0  -0.031355  0  3.902764  0  0  -0.024754  0  3.91972  0  0  -0.056194  -0.03517  0  3.891134  0
C  C57  1  0.93949609  0.67041491  0.11626829  1  0  -0.00109  0  3.656891  0  0  -0.031304  0  3.902665  0  0  -0.024696  0  3.919638  0  0  -0.05619  -0.035126  0  3.891045  0
C  C58  1  0.82981301  0.43894334  0.86622858  1  0  -0.000503  0  3.656632  0  0  -0.030548  0  3.902256  0  0  -0.023971  0  3.919169  0  0  -0.056307  -0.03439  0  3.890667  0
C  C59  1  0.17019985  0.56108245  0.36623500  1  0  -0.000705  0  3.657068  0  0  -0.030824  0  3.902667  0  0  -0.024256  0  3.919589  0  0  -0.0563  -0.034657  0  3.891062  0
C  C60  1  0.45556102  0.66873009  0.16245749  1  0  -0.125473  0  3.733761  0  0  -0.135427  0  3.987219  0  0  -0.144647  0  4.009828  0  0  -0.082403  -0.12965  0  3.972066  0
C  C61  1  0.54441988  0.33127026  0.66246383  1  0  -0.125681  0  3.733702  0  0  -0.135679  0  3.987109  0  0  -0.144899  0  4.009698  0  0  -0.082383  -0.129901  0  3.971964  0
C  C62  1  0.83147521  0.95576218  0.91248432  1  0  -0.125499  0  3.734599  0  0  -0.135898  0  3.988217  0  0  -0.145145  0  4.010806  0  0  -0.082672  -0.130074  0  3.973055  0
C  C63  1  0.16851258  0.04423936  0.41248279  1  0  -0.125455  0  3.734653  0  0  -0.135782  0  3.988251  0  0  -0.14504  0  4.010834  0  0  -0.08262  -0.129957  0  3.973092  0
C  C64  1  0.04423658  0.16852400  0.58751637  1  0  -0.125648  0  3.734718  0  0  -0.135965  0  3.988285  0  0  -0.145212  0  4.01088  0  0  -0.082678  -0.130138  0  3.973122  0
C  C65  1  0.95576608  0.83147512  0.08751610  1  0  -0.125428  0  3.734522  0  0  -0.135789  0  3.988105  0  0  -0.145067  0  4.010679  0  0  -0.082644  -0.129967  0  3.972943  0
C  C66  1  0.66873736  0.45557155  0.83753591  1  0  -0.125697  0  3.733611  0  0  -0.135722  0  3.98705  0  0  -0.144942  0  4.009642  0  0  -0.082451  -0.129943  0  3.97191  0
C  C67  1  0.33127475  0.54444787  0.33754237  1  0  -0.125721  0  3.733743  0  0  -0.13563  0  3.987152  0  0  -0.144845  0  4.00976  0  0  -0.082472  -0.129851  0  3.972003  0
C  C68  1  0.41754521  0.52392705  0.12503053  1  0  0.139908  0  3.632222  0  0  0.106999  0  3.878974  0  0  0.11575  0  3.894752  0  0  0.05684  0.101465  0  3.868231  0
C  C69  1  0.58244274  0.47606823  0.62503377  1  0  0.139845  0  3.632243  0  0  0.107003  0  3.878946  0  0  0.115752  0  3.89473  0  0  0.056802  0.101468  0  3.868207  0
C  C70  1  0.97621022  0.91743025  0.87511587  1  0  0.140257  0  3.632605  0  0  0.107462  0  3.879523  0  0  0.116219  0  3.895315  0  0  0.056872  0.101936  0  3.868754  0
C  C71  1  0.02378080  0.08257131  0.37511375  1  0  0.140158  0  3.632607  0  0  0.107329  0  3.87948  0  0  0.116082  0  3.895278  0  0  0.056862  0.101805  0  3.868716  0
C  C72  1  0.08257071  0.02378924  0.62488457  1  0  0.140204  0  3.632703  0  0  0.107374  0  3.879608  0  0  0.11613  0  3.895399  0  0  0.056877  0.101848  0  3.868841  0
C  C73  1  0.91743382  0.97620604  0.12488590  1  0  0.140081  0  3.632813  0  0  0.107286  0  3.879771  0  0  0.11604  0  3.895575  0  0  0.056816  0.101759  0  3.869004  0
C  C74  1  0.52393532  0.41755028  0.87496512  1  0  0.139842  0  3.632093  0  0  0.107003  0  3.878793  0  0  0.115751  0  3.894576  0  0  0.05677  0.101465  0  3.868061  0
C  C75  1  0.47607993  0.58246149  0.37497416  1  0  0.140089  0  3.632033  0  0  0.107156  0  3.878737  0  0  0.115907  0  3.894513  0  0  0.056876  0.101618  0  3.867997  0
C  C76  1  0.35595829  0.00723146  0.03275418  1  0  0.620906  0  3.960792  0  0  0.573222  0  4.249098  0  0  0.607457  0  4.243784  0  0  0.195836  0.550172  0  4.251835  0
C  C77  1  0.64403390  0.99275238  0.53276918  1  0  0.621126  0  3.960716  0  0  0.573439  0  4.249012  0  0  0.607682  0  4.243678  0  0  0.195775  0.550389  0  4.251759  0
C  C78  1  0.49264467  0.85650864  0.78281819  1  0  0.618943  0  3.962655  0  0  0.571437  0  4.250896  0  0  0.605671  0  4.245627  0  0  0.195089  0.548413  0  4.253604  0
C  C79  1  0.50735569  0.14348658  0.28281820  1  0  0.619016  0  3.962603  0  0  0.57151  0  4.250842  0  0  0.605741  0  4.245578  0  0  0.195096  0.548455  0  4.253554  0
C  C80  1  0.14349145  0.50735590  0.71718035  1  0  0.61891  0  3.962629  0  0  0.571415  0  4.250855  0  0  0.605645  0  4.245589  0  0  0.195092  0.548376  0  4.25356  0
C  C81  1  0.85649864  0.49263424  0.21717937  1  0  0.618861  0  3.962781  0  0  0.571416  0  4.250922  0  0  0.60564  0  4.245663  0  0  0.195008  0.548364  0  4.253634  0
C  C82  1  0.00724683  0.35596501  0.96723730  1  0  0.62123  0  3.960473  0  0  0.573559  0  4.248743  0  0  0.607801  0  4.243411  0  0  0.195972  0.550515  0  4.251488  0
C  C83  1  0.99276546  0.64404800  0.46724640  1  0  0.6207  0  3.960875  0  0  0.573008  0  4.249212  0  0  0.607245  0  4.243901  0  0  0.195747  0.549969  0  4.251941  0
N  N84  1  0.36515692  0.53583044  0.06116468  1  0  -0.327221  0  3.316493  0  0  -0.242664  0  3.592389  0  0  -0.263251  0  3.608268  0  0  -0.327831  -0.228894  0  3.581336  0
N  N85  1  0.63483984  0.46415594  0.56116977  1  0  -0.327305  0  3.316642  0  0  -0.242756  0  3.592541  0  0  -0.263344  0  3.608413  0  0  -0.327753  -0.228989  0  3.581498  0
N  N86  1  0.96419817  0.86511693  0.81123055  1  0  -0.327812  0  3.314936  0  0  -0.243433  0  3.590952  0  0  -0.264051  0  3.606847  0  0  -0.327933  -0.229649  0  3.579888  0
N  N87  1  0.03579785  0.13488720  0.31122889  1  0  -0.327813  0  3.314921  0  0  -0.243339  0  3.590839  0  0  -0.263955  0  3.606731  0  0  -0.327916  -0.22957  0  3.579778  0
N  N88  1  0.13488470  0.03580824  0.68877084  1  0  -0.327721  0  3.314933  0  0  -0.243327  0  3.590947  0  0  -0.263945  0  3.606842  0  0  -0.327938  -0.229542  0  3.579872  0
N  N89  1  0.86510719  0.96418829  0.18877031  1  0  -0.327665  0  3.315023  0  0  -0.2433  0  3.591079  0  0  -0.263916  0  3.606973  0  0  -0.327899  -0.22952  0  3.580016  0
N  N90  1  0.53584575  0.36515244  0.93882952  1  0  -0.327402  0  3.316478  0  0  -0.242889  0  3.592439  0  0  -0.263478  0  3.608312  0  0  -0.327803  -0.229118  0  3.581399  0
N  N91  1  0.46416960  0.63485293  0.43883910  1  0  -0.327389  0  3.316796  0  0  -0.24267  0  3.59254  0  0  -0.263257  0  3.608417  0  0  -0.327851  -0.228901  0  3.581495  0
O  O92  1  0.39824307  0.14366743  0.06455261  1  0  -0.617346  0  2.005523  0  0  -0.546697  0  2.257887  0  0  -0.575879  0  2.245257  0  0  -0.324468  -0.526342  0  2.265738  0
O  O93  1  0.60174344  0.85631640  0.56456425  1  0  -0.617481  0  2.005896  0  0  -0.546777  0  2.258221  0  0  -0.575962  0  2.245591  0  0  -0.324445  -0.526417  0  2.26606  0
O  O94  1  0.35635938  0.89924768  0.81455911  1  0  -0.616429  0  2.005698  0  0  -0.545919  0  2.257703  0  0  -0.575139  0  2.245209  0  0  -0.323968  -0.525564  0  2.265464  0
O  O95  1  0.64363785  0.10074243  0.31455874  1  0  -0.61644  0  2.00578  0  0  -0.54591  0  2.257752  0  0  -0.575134  0  2.245269  0  0  -0.323909  -0.525527  0  2.26549  0
O  O96  1  0.10075909  0.64364099  0.68544167  1  0  -0.616413  0  2.005782  0  0  -0.545916  0  2.257801  0  0  -0.575131  0  2.245307  0  0  -0.323931  -0.525505  0  2.265538  0
O  O97  1  0.89921883  0.35635171  0.18543609  1  0  -0.616231  0  2.005894  0  0  -0.545735  0  2.257808  0  0  -0.574948  0  2.24532  0  0  -0.323864  -0.525339  0  2.265539  0
O  O98  1  0.14368301  0.39825266  0.93543961  1  0  -0.617616  0  2.005582  0  0  -0.546936  0  2.257937  0  0  -0.576118  0  2.245296  0  0  -0.324616  -0.526594  0  2.265763  0
O  O99  1  0.85633113  0.60175654  0.43544759  1  0  -0.617295  0  2.005537  0  0  -0.546677  0  2.257927  0  0  -0.575855  0  2.245291  0  0  -0.324528  -0.526344  0  2.265784  0
O  O100  1  0.29362354  0.00811320  0.97501783  1  0  -0.611545  0  1.929427  0  0  -0.56541  0  2.161639  0  0  -0.589234  0  2.150991  0  0  -0.314155  -0.548796  0  2.168407  0
O  O101  1  0.70638349  0.99186539  0.47503220  1  0  -0.611597  0  1.929012  0  0  -0.565478  0  2.161244  0  0  -0.589309  0  2.150592  0  0  -0.314134  -0.548865  0  2.168018  0
O  O102  1  0.49149770  0.79347937  0.72518936  1  0  -0.610781  0  1.92913  0  0  -0.564539  0  2.161143  0  0  -0.58839  0  2.150523  0  0  -0.314162  -0.54794  0  2.167918  0
O  O103  1  0.50851008  0.20650441  0.22518688  1  0  -0.610831  0  1.92906  0  0  -0.564592  0  2.16105  0  0  -0.588446  0  2.150433  0  0  -0.314157  -0.547944  0  2.167799  0
O  O104  1  0.20652655  0.50850339  0.77480958  1  0  -0.610807  0  1.929029  0  0  -0.564589  0  2.161076  0  0  -0.588443  0  2.150455  0  0  -0.314177  -0.547952  0  2.167833  0
O  O105  1  0.79350073  0.49149440  0.27481526  1  0  -0.610819  0  1.928975  0  0  -0.564596  0  2.160921  0  0  -0.588449  0  2.15031  0  0  -0.314144  -0.547954  0  2.167678  0
O  O106  1  0.00812461  0.29363264  0.02497424  1  0  -0.611526  0  1.929187  0  0  -0.565447  0  2.161457  0  0  -0.589275  0  2.150807  0  0  -0.314182  -0.548868  0  2.168241  0
O  O107  1  0.99188558  0.70638690  0.52498230  1  0  -0.611392  0  1.929405  0  0  -0.565225  0  2.161566  0  0  -0.58905  0  2.150925  0  0  -0.314047  -0.548641  0  2.168345  0
