# generated using pymatgen
data_CuH6C9BrN6
_symmetry_space_group_name_H-M   'P 1'
_cell_length_a   7.45829931
_cell_length_b   11.16901805
_cell_length_c   12.78772755
_cell_angle_alpha   106.49322952
_cell_angle_beta   90.00016091
_cell_angle_gamma   89.99985641
_symmetry_Int_Tables_number   1
_chemical_formula_structural   CuH6C9BrN6
_chemical_formula_sum   'Cu4 H24 C36 Br4 N24'
_cell_volume   1021.41054715
_cell_formula_units_Z   4
loop_
 _symmetry_equiv_pos_site_id
 _symmetry_equiv_pos_as_xyz
  1  'x, y, z'
loop_
 _atom_site_type_symbol
 _atom_site_label
 _atom_site_symmetry_multiplicity
 _atom_site_fract_x
 _atom_site_fract_y
 _atom_site_fract_z
 _atom_site_occupancy
 _atom_site_hle17_bader_spin_density
 _atom_site_hle17_ddec_charge
 _atom_site_hle17_ddec_spin_density
 _atom_site_hle17_ddec_sum_bond_order
 _atom_site_hle17_magmom
 _atom_site_hse06_10hf_bader_spin_density
 _atom_site_hse06_10hf_ddec_charge
 _atom_site_hse06_10hf_ddec_spin_density
 _atom_site_hse06_10hf_ddec_sum_bond_order
 _atom_site_hse06_10hf_magmom
 _atom_site_hse06_bader_spin_density
 _atom_site_hse06_ddec_charge
 _atom_site_hse06_ddec_spin_density
 _atom_site_hse06_ddec_sum_bond_order
 _atom_site_hse06_magmom
 _atom_site_pbe_bader_spin_density
 _atom_site_pbe_cm5_charge
 _atom_site_pbe_ddec_charge
 _atom_site_pbe_ddec_spin_density
 _atom_site_pbe_ddec_sum_bond_order
 _atom_site_pbe_magmom
Cu  Cu0  1  0.91919572  0.03184879  0.39611412  1  0  0.391986  0  1.973961  0  0  0.290965  0  2.459509  0  0  0.297464  0  2.409156  0  0  0.369455  0.289977  0  2.491059  0
Cu  Cu1  1  0.41919412  0.46815142  0.10388715  1  0  0.391995  0  1.973968  0  0  0.290967  0  2.459545  0  0  0.297422  0  2.409164  0  0  0.369462  0.289963  0  2.491109  0
Cu  Cu2  1  0.08080491  0.96815170  0.60388788  1  0  0.391955  0  1.973972  0  0  0.290919  0  2.459514  0  0  0.29742  0  2.409159  0  0  0.369462  0.289934  0  2.49108  0
Cu  Cu3  1  0.58080651  0.53185002  0.89611353  1  0  0.392018  0  1.973905  0  0  0.290984  0  2.459509  0  0  0.297477  0  2.409122  0  0  0.369459  0.289974  0  2.491037  0
H  H4  1  0.61104329  0.84678824  0.31891972  1  0  0.115863  0  0.951119  0  0  0.121003  0  1.014629  0  0  0.124317  0  1.013153  0  0  0.111054  0.118504  0  1.015948  0
H  H5  1  0.11103791  0.65321131  0.18108115  1  0  0.115891  0  0.951094  0  0  0.121011  0  1.014626  0  0  0.124326  0  1.01315  0  0  0.111069  0.118512  0  1.015946  0
H  H6  1  0.38896002  0.15321507  0.68108065  1  0  0.11593  0  0.951006  0  0  0.121044  0  1.01454  0  0  0.124364  0  1.013065  0  0  0.111075  0.118544  0  1.015864  0
H  H7  1  0.88895869  0.34678545  0.81891833  1  0  0.115928  0  0.951033  0  0  0.121027  0  1.014579  0  0  0.124344  0  1.013103  0  0  0.111068  0.118528  0  1.0159  0
H  H8  1  0.54975291  0.70889381  0.10227646  1  0  0.118305  0  1.002396  0  0  0.117153  0  1.082872  0  0  0.123404  0  1.076039  0  0  0.107654  0.112385  0  1.087956  0
H  H9  1  0.04975075  0.79110769  0.39772482  1  0  0.118428  0  1.002218  0  0  0.117141  0  1.082812  0  0  0.123371  0  1.076014  0  0  0.107676  0.112421  0  1.087861  0
H  H10  1  0.45024504  0.29110762  0.89772500  1  0  0.118343  0  1.002316  0  0  0.117156  0  1.082824  0  0  0.123387  0  1.076022  0  0  0.107648  0.112403  0  1.087899  0
H  H11  1  0.95024452  0.20889001  0.60227491  1  0  0.11835  0  1.002282  0  0  0.117098  0  1.082851  0  0  0.123325  0  1.076058  0  0  0.10767  0.112368  0  1.087911  0
H  H12  1  0.21764537  0.02456090  0.25414586  1  0  0.117026  0  1.018303  0  0  0.117766  0  1.097364  0  0  0.122812  0  1.092766  0  0  0.101865  0.113976  0  1.100826  0
H  H13  1  0.71764185  0.47543673  0.24585677  1  0  0.117029  0  1.018296  0  0  0.117781  0  1.097334  0  0  0.122829  0  1.09273  0  0  0.101872  0.113985  0  1.100807  0
H  H14  1  0.78235258  0.97543958  0.74585692  1  0  0.11704  0  1.018295  0  0  0.117796  0  1.097324  0  0  0.122843  0  1.092724  0  0  0.10188  0.114002  0  1.100796  0
H  H15  1  0.28235878  0.52456285  0.75414265  1  0  0.117008  0  1.018355  0  0  0.117746  0  1.097386  0  0  0.122791  0  1.092791  0  0  0.101846  0.113965  0  1.100846  0
H  H16  1  0.44440170  0.05261023  0.08876294  1  0  0.108008  0  0.971013  0  0  0.117318  0  1.03055  0  0  0.120001  0  1.029403  0  0  0.115324  0.115359  0  1.031469  0
H  H17  1  0.94439775  0.44738898  0.41124048  1  0  0.108002  0  0.970942  0  0  0.117308  0  1.030497  0  0  0.11999  0  1.029351  0  0  0.115335  0.115348  0  1.031416  0
H  H18  1  0.55560027  0.94739022  0.91124218  1  0  0.107971  0  0.970981  0  0  0.117281  0  1.030527  0  0  0.119971  0  1.029361  0  0  0.115321  0.115323  0  1.031447  0
H  H19  1  0.05560287  0.55261339  0.58875966  1  0  0.107981  0  0.970876  0  0  0.117284  0  1.030436  0  0  0.119962  0  1.029304  0  0  0.115314  0.115326  0  1.031355  0
H  H20  1  0.11272588  0.75750424  0.77425990  1  0  0.120828  0  0.978641  0  0  0.13061  0  1.040306  0  0  0.133351  0  1.03913  0  0  0.12351  0.128584  0  1.041375  0
H  H21  1  0.61272315  0.74249650  0.72574131  1  0  0.120812  0  0.978663  0  0  0.130603  0  1.040307  0  0  0.133346  0  1.03913  0  0  0.1235  0.128578  0  1.041375  0
H  H22  1  0.88727877  0.24249625  0.22574210  1  0  0.120836  0  0.978679  0  0  0.130625  0  1.04033  0  0  0.133367  0  1.039153  0  0  0.123517  0.128599  0  1.041398  0
H  H23  1  0.38727882  0.25750495  0.27425781  1  0  0.120817  0  0.978642  0  0  0.130604  0  1.040306  0  0  0.133345  0  1.039128  0  0  0.123523  0.128577  0  1.041374  0
H  H24  1  0.82289733  0.59748753  0.72012989  1  0  0.107331  0  0.978669  0  0  0.108705  0  1.051229  0  0  0.11185  0  1.049219  0  0  0.115053  0.106415  0  1.052809  0
H  H25  1  0.32289283  0.90251300  0.77986769  1  0  0.10732  0  0.978658  0  0  0.10869  0  1.051221  0  0  0.111833  0  1.049212  0  0  0.115056  0.106408  0  1.052797  0
H  H26  1  0.17710731  0.40251301  0.27986743  1  0  0.107276  0  0.978726  0  0  0.108706  0  1.051221  0  0  0.111855  0  1.049206  0  0  0.115041  0.106413  0  1.052807  0
H  H27  1  0.67710780  0.09748845  0.22013143  1  0  0.107326  0  0.978672  0  0  0.108691  0  1.051228  0  0  0.111836  0  1.049218  0  0  0.115054  0.106406  0  1.052812  0
C  C28  1  0.92140582  0.86887457  0.15507652  1  0  0.428121  0  3.724581  0  0  0.372588  0  4.002899  0  0  0.395134  0  4.011313  0  0  0.332193  0.357717  0  3.99711  0
C  C29  1  0.42140402  0.63112368  0.34492374  1  0  0.428139  0  3.724663  0  0  0.372582  0  4.003014  0  0  0.395125  0  4.011432  0  0  0.332218  0.357718  0  3.99722  0
C  C30  1  0.07859212  0.13112406  0.84492344  1  0  0.428088  0  3.724627  0  0  0.372521  0  4.00299  0  0  0.395066  0  4.011407  0  0  0.332157  0.357652  0  3.997201  0
C  C31  1  0.57859661  0.36887495  0.65507622  1  0  0.428095  0  3.724724  0  0  0.372549  0  4.00307  0  0  0.395095  0  4.011488  0  0  0.332184  0.357689  0  3.997268  0
C  C32  1  0.69281781  0.83623174  0.24686344  1  0  0.024261  0  3.687362  0  0  -0.006861  0  3.951055  0  0  -0.006022  0  3.970171  0  0  -0.000663  -0.007588  0  3.938898  0
C  C33  1  0.19281408  0.66376771  0.25313755  1  0  0.02428  0  3.68735  0  0  -0.006846  0  3.95103  0  0  -0.00601  0  3.970141  0  0  -0.000662  -0.007572  0  3.938885  0
C  C34  1  0.30718148  0.16377065  0.75313514  1  0  0.024309  0  3.687235  0  0  -0.006783  0  3.950898  0  0  -0.005949  0  3.970014  0  0  -0.000673  -0.007511  0  3.938747  0
C  C35  1  0.80718386  0.33622999  0.74686218  1  0  0.024253  0  3.68723  0  0  -0.006849  0  3.950921  0  0  -0.006012  0  3.970033  0  0  -0.000655  -0.007576  0  3.938772  0
C  C36  1  0.65967607  0.76853842  0.14143427  1  0  -0.024077  0  3.62912  0  0  -0.0648  0  3.890952  0  0  -0.063529  0  3.907292  0  0  0.003364  -0.065859  0  3.881175  0
C  C37  1  0.15967261  0.73146201  0.35856691  1  0  -0.024223  0  3.628929  0  0  -0.064828  0  3.890841  0  0  -0.06354  0  3.907193  0  0  0.003333  -0.065935  0  3.881019  0
C  C38  1  0.34032187  0.23146115  0.85856593  1  0  -0.02416  0  3.62909  0  0  -0.064852  0  3.890938  0  0  -0.063566  0  3.90729  0  0  0.003361  -0.065924  0  3.881146  0
C  C39  1  0.84032400  0.26853568  0.64143360  1  0  -0.02408  0  3.628898  0  0  -0.064721  0  3.890791  0  0  -0.063434  0  3.90714  0  0  0.003345  -0.06582  0  3.880975  0
C  C40  1  0.11141918  0.87621606  0.00373994  1  0  0.42488  0  3.781683  0  0  0.371547  0  4.070154  0  0  0.393283  0  4.078582  0  0  0.324481  0.356998  0  4.064707  0
C  C41  1  0.61141689  0.62378443  0.49626118  1  0  0.42481  0  3.781651  0  0  0.371539  0  4.070073  0  0  0.393276  0  4.078502  0  0  0.324517  0.356994  0  4.064621  0
C  C42  1  0.88858145  0.12378536  0.99626230  1  0  0.424865  0  3.781668  0  0  0.371556  0  4.070099  0  0  0.393293  0  4.078526  0  0  0.324505  0.357009  0  4.06465  0
C  C43  1  0.38858508  0.37621610  0.50373692  1  0  0.424798  0  3.781683  0  0  0.371508  0  4.070198  0  0  0.393245  0  4.078627  0  0  0.324456  0.356967  0  4.06474  0
C  C44  1  0.21283658  0.98739618  0.16591086  1  0  -0.049874  0  3.638297  0  0  -0.091393  0  3.902671  0  0  -0.089961  0  3.919741  0  0  -0.005986  -0.09253  0  3.891742  0
C  C45  1  0.71283259  0.51260231  0.33409069  1  0  -0.049879  0  3.638354  0  0  -0.091392  0  3.902741  0  0  -0.089956  0  3.919808  0  0  -0.005987  -0.092525  0  3.891814  0
C  C46  1  0.78716136  0.01260430  0.83409114  1  0  -0.049882  0  3.638329  0  0  -0.091416  0  3.902714  0  0  -0.089983  0  3.919786  0  0  -0.005981  -0.092552  0  3.891791  0
C  C47  1  0.28716536  0.48739258  0.66590910  1  0  -0.04988  0  3.638291  0  0  -0.091343  0  3.902686  0  0  -0.08991  0  3.919761  0  0  -0.005926  -0.092488  0  3.891749  0
C  C48  1  0.32161048  0.99898679  0.08262760  1  0  0.01449  0  3.733001  0  0  -0.014948  0  4.008128  0  0  -0.013794  0  4.027096  0  0  -0.005107  -0.015793  0  3.995525  0
C  C49  1  0.82160828  0.50101157  0.41737332  1  0  0.014522  0  3.732914  0  0  -0.014918  0  4.008048  0  0  -0.013763  0  4.027011  0  0  -0.005106  -0.015763  0  3.995444  0
C  C50  1  0.67838880  0.00101276  0.91737416  1  0  0.014516  0  3.732907  0  0  -0.014925  0  4.008055  0  0  -0.013768  0  4.027019  0  0  -0.005102  -0.015771  0  3.995456  0
C  C51  1  0.17839369  0.49898800  0.58262610  1  0  0.014512  0  3.732926  0  0  -0.014927  0  4.008064  0  0  -0.013773  0  4.027019  0  0  -0.005107  -0.015774  0  3.995464  0
C  C52  1  0.84578894  0.74666932  0.97227872  1  0  0.438911  0  3.721351  0  0  0.382727  0  3.999812  0  0  0.40531  0  4.008509  0  0  0.333869  0.367809  0  3.993943  0
C  C53  1  0.34578511  0.75333022  0.52772099  1  0  0.438876  0  3.721554  0  0  0.38267  0  4.000021  0  0  0.405256  0  4.00871  0  0  0.333906  0.367755  0  3.994147  0
C  C54  1  0.15421168  0.25332932  0.02772046  1  0  0.438848  0  3.721476  0  0  0.382672  0  3.99991  0  0  0.405256  0  4.008599  0  0  0.333829  0.367752  0  3.994045  0
C  C55  1  0.65421417  0.24667122  0.47227891  1  0  0.438854  0  3.721519  0  0  0.38268  0  3.999987  0  0  0.405268  0  4.008673  0  0  0.33385  0.367762  0  3.994114  0
C  C56  1  0.00483414  0.73777135  0.82324779  1  0  -0.020702  0  3.635712  0  0  -0.063059  0  3.892898  0  0  -0.061185  0  3.91119  0  0  0.006149  -0.064286  0  3.880726  0
C  C57  1  0.50483513  0.76223140  0.67675219  1  0  -0.020635  0  3.635693  0  0  -0.062988  0  3.892885  0  0  -0.061117  0  3.911179  0  0  0.006221  -0.064215  0  3.880709  0
C  C58  1  0.99516648  0.26223101  0.17675390  1  0  -0.020614  0  3.635714  0  0  -0.062987  0  3.892901  0  0  -0.061115  0  3.911196  0  0  0.006195  -0.064213  0  3.880721  0
C  C59  1  0.49516684  0.23777005  0.32324693  1  0  -0.02062  0  3.635668  0  0  -0.062951  0  3.892856  0  0  -0.061077  0  3.911146  0  0  0.00617  -0.064176  0  3.880677  0
C  C60  1  0.86120373  0.65857112  0.79909941  1  0  0.009018  0  3.722526  0  0  -0.018714  0  3.989652  0  0  -0.017233  0  4.006851  0  0  -0.000952  -0.019954  0  3.978422  0
C  C61  1  0.36120309  0.84143310  0.70089917  1  0  0.008889  0  3.722602  0  0  -0.018852  0  3.989742  0  0  -0.01737  0  4.006942  0  0  -0.001029  -0.020096  0  3.978518  0
C  C62  1  0.13879690  0.34143221  0.20089940  1  0  0.00896  0  3.722644  0  0  -0.01882  0  3.989757  0  0  -0.017344  0  4.006956  0  0  -0.000995  -0.02006  0  3.978523  0
C  C63  1  0.63879619  0.15856741  0.29910049  1  0  0.00899  0  3.722518  0  0  -0.018738  0  3.989654  0  0  -0.017253  0  4.006849  0  0  -0.000959  -0.019988  0  3.978429  0
Br  Br64  1  0.22131687  0.07104662  0.46470126  1  0  -0.542754  0  1.273336  0  0  -0.483064  0  1.64438  0  0  -0.499303  0  1.611774  0  0  -0.298022  -0.470902  0  1.665372  0
Br  Br65  1  0.72131250  0.42895010  0.03529802  1  0  -0.542749  0  1.273344  0  0  -0.483055  0  1.644394  0  0  -0.499292  0  1.611792  0  0  -0.298004  -0.470881  0  1.665374  0
Br  Br66  1  0.77868778  0.92896137  0.53529953  1  0  -0.542754  0  1.273395  0  0  -0.483068  0  1.64445  0  0  -0.499304  0  1.611831  0  0  -0.29804  -0.470908  0  1.665447  0
Br  Br67  1  0.27868679  0.57103639  0.96469962  1  0  -0.54275  0  1.273366  0  0  -0.483078  0  1.644459  0  0  -0.49929  0  1.611812  0  0  -0.298042  -0.470904  0  1.665436  0
N  N68  1  0.07511888  0.90801571  0.11457600  1  0  -0.193091  0  3.574055  0  0  -0.111181  0  3.800726  0  0  -0.128724  0  3.820735  0  0  -0.215877  -0.099664  0  3.787355  0
N  N69  1  0.57511752  0.59198389  0.38542483  1  0  -0.193087  0  3.574111  0  0  -0.111237  0  3.800835  0  0  -0.128785  0  3.82085  0  0  -0.215898  -0.099724  0  3.78746  0
N  N70  1  0.92487906  0.09198385  0.88542498  1  0  -0.193045  0  3.574063  0  0  -0.111121  0  3.800711  0  0  -0.128665  0  3.820723  0  0  -0.215846  -0.099605  0  3.787339  0
N  N71  1  0.42488445  0.40801476  0.61457357  1  0  -0.192984  0  3.573971  0  0  -0.111166  0  3.800741  0  0  -0.128714  0  3.820756  0  0  -0.215871  -0.099657  0  3.787369  0
N  N72  1  0.85656147  0.89896872  0.25536123  1  0  -0.39435  0  3.266183  0  0  -0.33071  0  3.572648  0  0  -0.342763  0  3.574468  0  0  -0.371168  -0.323384  0  3.57137  0
N  N73  1  0.35655795  0.60102961  0.24463896  1  0  -0.394435  0  3.266233  0  0  -0.330761  0  3.5727  0  0  -0.342799  0  3.574496  0  0  -0.371211  -0.323444  0  3.571431  0
N  N74  1  0.14343647  0.10103179  0.74463843  1  0  -0.394358  0  3.266178  0  0  -0.330703  0  3.57264  0  0  -0.342757  0  3.574467  0  0  -0.371131  -0.32338  0  3.571371  0
N  N75  1  0.64344134  0.39896902  0.75536101  1  0  -0.394473  0  3.266238  0  0  -0.330778  0  3.572669  0  0  -0.34283  0  3.574485  0  0  -0.37119  -0.323454  0  3.571374  0
N  N76  1  0.80742941  0.78888121  0.08206750  1  0  -0.185348  0  3.562817  0  0  -0.101784  0  3.784709  0  0  -0.118822  0  3.804207  0  0  -0.210608  -0.090818  0  3.771927  0
N  N77  1  0.30742766  0.71111906  0.41793232  1  0  -0.185294  0  3.5629  0  0  -0.101689  0  3.784739  0  0  -0.118724  0  3.804231  0  0  -0.2106  -0.090726  0  3.771963  0
N  N78  1  0.19256853  0.21111930  0.91793216  1  0  -0.185358  0  3.562933  0  0  -0.101808  0  3.784859  0  0  -0.118844  0  3.804351  0  0  -0.210611  -0.090843  0  3.77208  0
N  N79  1  0.69257163  0.28888052  0.58206710  1  0  -0.185339  0  3.562896  0  0  -0.101725  0  3.784723  0  0  -0.118757  0  3.804209  0  0  -0.210606  -0.09076  0  3.771942  0
N  N80  1  0.25729923  0.92988268  0.98120249  1  0  -0.421354  0  2.963487  0  0  -0.395556  0  3.249911  0  0  -0.407713  0  3.259075  0  0  -0.34317  -0.387347  0  3.244068  0
N  N81  1  0.75729615  0.57011788  0.51879969  1  0  -0.421327  0  2.963486  0  0  -0.395545  0  3.249911  0  0  -0.4077  0  3.259075  0  0  -0.343173  -0.387338  0  3.244065  0
N  N82  1  0.74270274  0.07011779  0.01880029  1  0  -0.421324  0  2.96343  0  0  -0.395548  0  3.249877  0  0  -0.407704  0  3.259039  0  0  -0.343196  -0.387339  0  3.244031  0
N  N83  1  0.24270582  0.42988358  0.48119943  1  0  -0.421304  0  2.96352  0  0  -0.395491  0  3.249912  0  0  -0.407645  0  3.259076  0  0  -0.34316  -0.387283  0  3.244061  0
N  N84  1  0.99513648  0.79464064  0.93467171  1  0  -0.193746  0  3.6098  0  0  -0.110328  0  3.829895  0  0  -0.128752  0  3.852877  0  0  -0.216471  -0.098422  0  3.814317  0
N  N85  1  0.49513436  0.70536246  0.56532915  1  0  -0.193692  0  3.609785  0  0  -0.110284  0  3.829848  0  0  -0.128706  0  3.852828  0  0  -0.216528  -0.098382  0  3.814267  0
N  N86  1  0.00486549  0.20536079  0.06532975  1  0  -0.193796  0  3.609785  0  0  -0.110355  0  3.829817  0  0  -0.128778  0  3.852798  0  0  -0.216497  -0.098452  0  3.814237  0
N  N87  1  0.50486761  0.29463993  0.43467020  1  0  -0.193755  0  3.609854  0  0  -0.110416  0  3.830025  0  0  -0.128839  0  3.853005  0  0  -0.216469  -0.098514  0  3.814441  0
N  N88  1  0.76141981  0.66412608  0.89261065  1  0  -0.393745  0  3.279239  0  0  -0.338002  0  3.60045  0  0  -0.349148  0  3.599693  0  0  -0.375953  -0.331182  0  3.600773  0
N  N89  1  0.26141873  0.83587638  0.60738810  1  0  -0.393663  0  3.279298  0  0  -0.33788  0  3.600452  0  0  -0.349027  0  3.599702  0  0  -0.375941  -0.33107  0  3.600799  0
N  N90  1  0.23857814  0.33587538  0.10738769  1  0  -0.393645  0  3.279191  0  0  -0.337891  0  3.60038  0  0  -0.349025  0  3.599601  0  0  -0.375916  -0.331077  0  3.600723  0
N  N91  1  0.73858189  0.16412506  0.39261180  1  0  -0.393748  0  3.279241  0  0  -0.33799  0  3.600425  0  0  -0.34914  0  3.599672  0  0  -0.375974  -0.331177  0  3.600762  0
