# generated using pymatgen
data_CuH9C4N11
_symmetry_space_group_name_H-M   'P 1'
_cell_length_a   8.37413298
_cell_length_b   9.84193800
_cell_length_c   11.52488931
_cell_angle_alpha   89.99962855
_cell_angle_beta   90.00042398
_cell_angle_gamma   96.00619477
_symmetry_Int_Tables_number   1
_chemical_formula_structural   CuH9C4N11
_chemical_formula_sum   'Cu4 H36 C16 N44'
_cell_volume   944.64069692
_cell_formula_units_Z   4
loop_
 _symmetry_equiv_pos_site_id
 _symmetry_equiv_pos_as_xyz
  1  'x, y, z'
loop_
 _atom_site_type_symbol
 _atom_site_label
 _atom_site_symmetry_multiplicity
 _atom_site_fract_x
 _atom_site_fract_y
 _atom_site_fract_z
 _atom_site_occupancy
 _atom_site_hle17_ddec_charge
 _atom_site_hle17_ddec_spin_density
 _atom_site_hle17_ddec_sum_bond_order
 _atom_site_hle17_magmom
 _atom_site_hse06_10hf_ddec_charge
 _atom_site_hse06_10hf_ddec_spin_density
 _atom_site_hse06_10hf_ddec_sum_bond_order
 _atom_site_hse06_10hf_magmom
 _atom_site_hse06_ddec_charge
 _atom_site_hse06_ddec_spin_density
 _atom_site_hse06_ddec_sum_bond_order
 _atom_site_hse06_magmom
 _atom_site_pbe_cm5_charge
 _atom_site_pbe_ddec_charge
 _atom_site_pbe_ddec_spin_density
 _atom_site_pbe_ddec_sum_bond_order
 _atom_site_pbe_magmom
Cu  Cu0  1  0.94795080  0.28021498  0.59826609  1  0.688852  -0.719189  2.051043  -0.507  0.640122  -0.795851  2.468385  -0.61  0.712831  -0.864589  2.415848  -0.685  0.772138  0.598089  -0.74839  2.503298  -0.563
Cu  Cu1  1  0.05205356  0.21978815  0.09827293  1  0.688901  0.719218  2.051109  0.507  0.64015  0.795869  2.46847  0.61  0.712858  0.8646  2.415898  0.685  0.77214  0.598123  0.748413  2.503367  0.563
Cu  Cu2  1  0.05204832  0.71978267  0.40173302  1  0.688813  0.719158  2.050989  0.507  0.64008  0.795828  2.468325  0.61  0.712827  0.864584  2.415821  0.685  0.772104  0.598115  0.748365  2.503137  0.563
Cu  Cu3  1  0.94794868  0.78021564  0.90173313  1  0.688855  -0.719187  2.051019  -0.507  0.640124  -0.795842  2.468369  -0.61  0.712841  -0.864586  2.415839  -0.685  0.772141  0.598131  -0.748385  2.503228  -0.563
H  H4  1  0.40230520  0.06169201  0.91552467  1  0.301339  0.000213  0.944019  0.0  0.269756  0.000166  1.027475  0.0  0.280016  0.000128  1.018506  0.0  0.301887  0.262488  0.000204  1.0339  0.0
H  H5  1  0.59770394  0.43831409  0.41552369  1  0.301392  -0.000213  0.944063  0.0  0.269831  -0.000166  1.027485  0.0  0.280082  -0.000128  1.018516  0.0  0.301947  0.262566  -0.000204  1.033912  0.0
H  H6  1  0.59768519  0.93830256  0.08447704  1  0.301267  -0.000217  0.943974  0.0  0.269678  -0.000166  1.027447  0.0  0.279942  -0.000127  1.018482  0.0  0.301838  0.262408  -0.000204  1.033866  0.0
H  H7  1  0.40230584  0.56169278  0.58447629  1  0.301305  0.000214  0.944029  0.0  0.26971  0.000166  1.027512  0.0  0.27997  0.000128  1.018543  0.0  0.301865  0.262442  0.000204  1.033937  0.0
H  H8  1  0.70340773  0.30694072  0.73460332  1  0.286128  0.000582  0.950165  0.002  0.264532  -0.000529  1.032354  0.0  0.271622  -0.000283  1.027907  0.001  0.290141  0.259446  -0.000698  1.035818  0.0
H  H9  1  0.29660471  0.19305844  0.23460816  1  0.28607  -0.00058  0.950164  -0.002  0.264466  0.00053  1.03238  0.0  0.271558  0.000283  1.027932  -0.001  0.290137  0.259386  0.000699  1.035843  0.0
H  H10  1  0.29658649  0.69305590  0.26539752  1  0.286153  -0.000583  0.950072  -0.002  0.264539  0.000528  1.032269  0.0  0.27163  0.000282  1.027822  -0.001  0.290144  0.259451  0.000697  1.035732  0.0
H  H11  1  0.70340541  0.80694128  0.76539529  1  0.286125  0.000581  0.950132  0.002  0.264528  -0.00053  1.032322  0.0  0.271619  -0.000283  1.027874  0.001  0.290153  0.259446  -0.000698  1.035786  0.0
H  H12  1  0.67427133  0.37098946  0.60450724  1  0.282531  0.00034  0.904556  0.001  0.272855  -0.000715  0.966746  0.0  0.277993  -0.000355  0.965325  0.0  0.294142  0.269257  -0.000994  0.968078  0.0
H  H13  1  0.32573656  0.12901262  0.10450564  1  0.282518  -0.000334  0.90449  -0.001  0.272863  0.000716  0.966637  0.0  0.277993  0.000356  0.965235  0.0  0.294147  0.269269  0.000995  0.96797  0.0
H  H14  1  0.32572087  0.62901022  0.39549447  1  0.282537  -0.000333  0.904624  -0.001  0.272837  0.000714  0.966814  0.0  0.277975  0.000355  0.965393  0.0  0.294127  0.269239  0.000994  0.968149  0.0
H  H15  1  0.67426915  0.87099015  0.89549173  1  0.282526  0.000333  0.904519  0.001  0.272855  -0.000715  0.966699  0.0  0.277991  -0.000355  0.965284  0.0  0.29414  0.269253  -0.000994  0.968035  0.0
H  H16  1  0.87769638  0.02953725  0.53119957  1  0.283463  0.000681  0.92749  0.002  0.265765  -0.000353  1.004409  0.0  0.27204  -8e-05  1.001099  0.001  0.290276  0.261262  -0.000572  1.007188  0.0
H  H17  1  0.12230798  0.47047144  0.03120106  1  0.283425  -0.000682  0.927464  -0.002  0.265686  0.000353  1.00442  0.0  0.271957  8e-05  1.001122  -0.001  0.290237  0.261176  0.000573  1.007198  0.0
H  H18  1  0.12230131  0.97045835  0.46879780  1  0.283395  -0.000679  0.92758  -0.002  0.265713  0.000352  1.004481  0.0  0.271983  7.9e-05  1.001188  -0.001  0.290261  0.261206  0.000572  1.007266  0.0
H  H19  1  0.87769596  0.52953644  0.96879892  1  0.283428  0.000677  0.927536  0.002  0.265721  -0.000353  1.004472  0.0  0.271996  -8e-05  1.001166  0.001  0.290253  0.261212  -0.000572  1.007251  0.0
H  H20  1  0.90014866  0.13100768  0.41521125  1  0.302025  0.000648  0.883548  0.002  0.290138  -0.000517  0.944952  0.0  0.295256  -0.000255  0.943353  0.001  0.300891  0.28651  -0.000712  0.946366  0.0
H  H21  1  0.09985389  0.36899330  0.91520890  1  0.302025  -0.000649  0.883574  -0.002  0.290144  0.000518  0.944959  0.0  0.295263  0.000256  0.943356  -0.001  0.300876  0.286514  0.000712  0.946371  0.0
H  H22  1  0.09984651  0.86898690  0.58478699  1  0.302028  -0.000645  0.88356  -0.002  0.290173  0.000516  0.944933  0.0  0.295294  0.000254  0.943329  -0.001  0.300924  0.286549  0.00071  0.946348  0.0
H  H23  1  0.90014930  0.63100845  0.08478760  1  0.302049  0.000645  0.883542  0.002  0.290165  -0.000517  0.944944  0.0  0.295285  -0.000255  0.943341  0.001  0.3009  0.286532  -0.000711  0.946356  0.0
H  H24  1  0.64833717  0.08275580  0.67703535  1  0.074487  9e-06  0.922713  0.0  0.08697  5.1e-05  0.989278  0.0  0.087291  4.5e-05  0.988934  0.0  0.107983  0.086571  4.7e-05  0.989651  0.0
H  H25  1  0.35166422  0.41724576  0.17703837  1  0.074514  -1.5e-05  0.92264  0.0  0.086996  -5.1e-05  0.989213  0.0  0.087315  -4.5e-05  0.988864  0.0  0.10798  0.086572  -4.7e-05  0.98961  0.0
H  H26  1  0.35166075  0.91724184  0.32296550  1  0.074534  -2.3e-05  0.922697  0.0  0.087019  -5.1e-05  0.989288  0.0  0.087339  -4.5e-05  0.988944  0.0  0.108016  0.086618  -4.6e-05  0.989663  0.0
H  H27  1  0.64833670  0.58275700  0.82296335  1  0.074514  1.9e-05  0.922675  0.0  0.087008  5.1e-05  0.98922  0.0  0.087329  4.5e-05  0.988876  0.0  0.108  0.086604  4.7e-05  0.989595  0.0
H  H28  1  0.49120739  0.16932122  0.61651610  1  0.068112  -0.003502  0.92719  -0.005  0.080993  -0.002424  0.989602  -0.003  0.080489  -0.001712  0.990402  -0.002  0.101226  0.081201  -0.002946  0.989177  -0.004
H  H29  1  0.50880217  0.33068384  0.11651697  1  0.068065  0.003494  0.927248  0.005  0.080974  0.002423  0.989635  0.003  0.080468  0.001711  0.990431  0.002  0.101206  0.081182  0.002945  0.989209  0.004
H  H30  1  0.50878659  0.83067336  0.38348214  1  0.068074  0.003496  0.927227  0.005  0.081007  0.002426  0.989609  0.003  0.080504  0.001713  0.990404  0.002  0.101249  0.081209  0.002948  0.989187  0.004
H  H31  1  0.49120724  0.66931996  0.88348214  1  0.068106  -0.003494  0.927164  -0.005  0.080983  -0.002424  0.989578  -0.003  0.080482  -0.001712  0.990371  -0.002  0.101201  0.081186  -0.002946  0.989153  -0.004
H  H32  1  0.64569935  0.19534512  0.42786648  1  0.070373  9.4e-05  0.956171  0.0  0.080154  7.2e-05  1.028833  0.0  0.08093  7e-05  1.027728  0.0  0.103807  0.079211  5.7e-05  1.030163  0.0
H  H33  1  0.35430296  0.30465270  0.92786499  1  0.070398  -8.7e-05  0.956175  0.0  0.080165  -7.2e-05  1.028823  0.0  0.080941  -7e-05  1.027715  0.0  0.103792  0.079217  -5.7e-05  1.030166  0.0
H  H34  1  0.35430109  0.80465355  0.57213264  1  0.070273  -8.5e-05  0.956236  0.0  0.080088  -7.2e-05  1.028882  0.0  0.080844  -7e-05  1.027807  0.0  0.103793  0.079147  -5.7e-05  1.030214  0.0
H  H35  1  0.64570094  0.69534496  0.07213239  1  0.070351  8e-05  0.956252  0.0  0.080153  7.2e-05  1.028878  0.0  0.080897  7e-05  1.027818  0.0  0.103809  0.079207  5.8e-05  1.03021  0.0
H  H36  1  0.61789138  0.02063531  0.46772323  1  0.060464  -0.003347  0.956654  -0.005  0.076451  -0.002169  1.019808  -0.003  0.075363  -0.001527  1.021596  -0.002  0.102881  0.076991  -0.002606  1.018831  -0.004
H  H37  1  0.38211430  0.47936736  0.96772440  1  0.06048  0.003349  0.956711  0.005  0.076459  0.002168  1.019842  0.003  0.075369  0.001526  1.02163  0.002  0.102869  0.077004  0.002606  1.018859  0.004
H  H38  1  0.38210285  0.97936131  0.53227675  1  0.060377  0.003354  0.956539  0.005  0.076374  0.00217  1.019731  0.003  0.075284  0.001527  1.021515  0.002  0.102832  0.07692  0.002608  1.018755  0.004
H  H39  1  0.61789153  0.52063643  0.03227558  1  0.060433  -0.003352  0.95666  -0.005  0.076416  -0.002169  1.019825  -0.003  0.07533  -0.001527  1.021608  -0.002  0.102852  0.076961  -0.002607  1.018844  -0.004
C  C40  1  0.28228396  0.88410303  0.98070534  1  0.486338  0.000999  3.837736  0.0  0.440384  -0.000734  4.12288  -0.002  0.461751  9.2e-05  4.134383  0.0  0.323695  0.426284  -0.001324  4.11482  -0.002
C  C41  1  0.71771727  0.61590394  0.48070332  1  0.486464  -0.000974  3.837622  0.0  0.440542  0.000733  4.122692  0.002  0.461909  -8.9e-05  4.134193  0.0  0.32374  0.426441  0.001323  4.114619  0.002
C  C42  1  0.71771372  0.11589257  0.01929984  1  0.486102  -0.00098  3.838019  0.0  0.440212  0.000733  4.12304  0.002  0.461579  -8.9e-05  4.134542  0.0  0.323647  0.426114  0.001324  4.114978  0.002
C  C43  1  0.28228440  0.38410495  0.51929666  1  0.486242  0.000994  3.837799  0.0  0.440254  -0.000734  4.122964  -0.002  0.46162  9.1e-05  4.134471  0.0  0.323659  0.426159  -0.001324  4.114901  -0.002
C  C44  1  0.16661622  0.03758798  0.84987315  1  0.475618  6.3e-05  3.840494  -0.001  0.434815  -0.001326  4.124538  -0.002  0.456338  -0.000515  4.13275  -0.001  0.316784  0.420266  -0.001812  4.119275  -0.003
C  C45  1  0.83339994  0.46241245  0.34986549  1  0.47579  -7.7e-05  3.840251  0.001  0.435012  0.001325  4.124282  0.002  0.456521  0.000512  4.132507  0.001  0.316868  0.420462  0.00181  4.119022  0.003
C  C46  1  0.83337705  0.96241067  0.15012509  1  0.475564  -5.6e-05  3.840582  0.001  0.434809  0.001328  4.12459  0.002  0.45629  0.000513  4.132854  0.001  0.316775  0.420259  0.001812  4.119323  0.003
C  C47  1  0.16661269  0.53758830  0.65012928  1  0.475619  7.2e-05  3.840445  -0.001  0.434825  -0.001327  4.124494  -0.002  0.456347  -0.000514  4.132704  -0.001  0.316777  0.420274  -0.001812  4.119234  -0.003
C  C48  1  0.62098534  0.16033560  0.61350647  1  0.043646  0.000366  3.617373  0.003  -0.008063  -0.001751  3.886145  0.0  -0.002924  -0.00087  3.89921  0.001  -0.077905  -0.011229  -0.002438  3.877544  0.0
C  C49  1  0.37902036  0.33966743  0.11350572  1  0.043735  -0.000342  3.617164  -0.003  -0.008023  0.00175  3.88588  0.0  -0.002883  0.000868  3.898951  -0.001  -0.077884  -0.011185  0.002436  3.877288  0.0
C  C50  1  0.37900732  0.83965795  0.38649178  1  0.04368  -0.000302  3.617618  -0.003  -0.008117  0.001755  3.886522  0.0  -0.002981  0.000871  3.899601  -0.001  -0.077944  -0.011292  0.002441  3.877917  0.0
C  C51  1  0.62098415  0.66033534  0.88649252  1  0.043677  0.000319  3.61727  0.003  -0.008024  -0.001751  3.885984  0.0  -0.002882  -0.000871  3.899048  0.001  -0.077868  -0.011192  -0.002438  3.877378  0.0
C  C52  1  0.67533527  0.12131666  0.49335112  1  0.037562  0.000692  3.639181  0.003  -0.018901  -0.001535  3.910514  0.001  -0.013777  -0.000716  3.923355  0.001  -0.082125  -0.022115  -0.002188  3.902506  0.0
C  C53  1  0.32466706  0.37868583  0.99335513  1  0.037356  -0.000717  3.639366  -0.003  -0.019012  0.001537  3.910547  -0.001  -0.013885  0.000715  3.923369  -0.001  -0.082137  -0.022233  0.002186  3.902529  0.0
C  C54  1  0.32465417  0.87867995  0.50664973  1  0.037834  -0.000726  3.639042  -0.003  -0.018664  0.001538  3.910469  -0.001  -0.013528  0.000715  3.923304  -0.001  -0.082033  -0.021895  0.002189  3.902466  0.0
C  C55  1  0.67533506  0.62131693  0.00664745  1  0.037572  0.000733  3.639229  0.003  -0.018889  -0.001535  3.910538  0.001  -0.013754  -0.000714  3.923391  0.001  -0.082139  -0.022122  -0.002188  3.902531  0.0
N  N56  1  0.02250401  0.14876633  0.74108789  1  -0.103358  -0.003821  3.202943  -0.006  -0.084347  -0.001784  3.538047  -0.004  -0.090595  -0.000434  3.547956  -0.002  -0.127747  -0.08033  -0.003452  3.531606  -0.006
N  N57  1  0.97749918  0.35123481  0.24108944  1  -0.103379  0.003787  3.203025  0.006  -0.084379  0.001785  3.538139  0.004  -0.090619  0.00043  3.548035  0.002  -0.127771  -0.080366  0.003451  3.531695  0.006
N  N58  1  0.97749404  0.85123234  0.25891122  1  -0.10345  0.003808  3.202944  0.006  -0.084443  0.001785  3.538065  0.004  -0.090698  0.000431  3.547981  0.002  -0.127845  -0.080438  0.003451  3.531621  0.006
N  N59  1  0.02250389  0.64876591  0.75891141  1  -0.103344  -0.003809  3.202953  -0.006  -0.084323  -0.001785  3.53804  -0.004  -0.090571  -0.000431  3.547949  -0.002  -0.127746  -0.080314  -0.003451  3.531594  -0.006
N  N60  1  0.17158844  0.15354166  0.78811086  1  -0.363815  -0.005707  2.854998  -0.006  -0.342105  -0.00295  3.138168  -0.003  -0.351682  -0.00227  3.14575  -0.003  -0.249658  -0.335371  -0.003574  3.133041  -0.004
N  N61  1  0.82841688  0.34646325  0.28811163  1  -0.36377  0.005724  2.85508  0.006  -0.342061  0.002949  3.138237  0.003  -0.351631  0.002269  3.145818  0.003  -0.249623  -0.335332  0.003573  3.133113  0.004
N  N62  1  0.82840591  0.84645598  0.21188825  1  -0.36379  0.00571  2.854982  0.006  -0.342093  0.002949  3.138141  0.003  -0.351651  0.002275  3.145733  0.003  -0.249606  -0.335356  0.003575  3.133003  0.004
N  N63  1  0.17158908  0.65354157  0.71189095  1  -0.363868  -0.005724  2.855005  -0.006  -0.342157  -0.002948  3.138169  -0.003  -0.35173  -0.002275  3.14575  -0.003  -0.24968  -0.335425  -0.003574  3.133044  -0.004
N  N64  1  0.29232103  0.00038631  0.91498658  1  -0.491159  0.001503  3.353058  0.002  -0.430655  0.000891  3.599078  0.001  -0.451398  0.000902  3.600604  0.001  -0.394414  -0.416354  0.000876  3.598076  0.001
N  N65  1  0.70766645  0.49960851  0.41498238  1  -0.491458  -0.001501  3.352281  -0.002  -0.430975  -0.000892  3.598244  -0.001  -0.451704  -0.000902  3.599773  -0.001  -0.394585  -0.416668  -0.000875  3.597241  -0.001
N  N66  1  0.70768410  0.99962157  0.08501427  1  -0.490968  -0.001491  3.353403  -0.002  -0.430508  -0.000892  3.599385  -0.001  -0.451241  -0.000902  3.600927  -0.001  -0.394387  -0.416206  -0.000875  3.598379  -0.001
N  N67  1  0.29232275  0.50038606  0.58501413  1  -0.491056  0.0015  3.352993  0.002  -0.430529  0.000891  3.598998  0.001  -0.451273  0.000902  3.600527  0.001  -0.394363  -0.416228  0.000875  3.597997  0.001
N  N68  1  0.34019732  0.72862610  0.09931612  1  -0.085597  -0.003604  3.019839  -0.004  -0.065232  -0.002458  3.311963  -0.003  -0.063701  -0.001232  3.320182  -0.002  -0.095904  -0.065341  -0.003561  3.305566  -0.004
N  N69  1  0.65980546  0.77137631  0.59931212  1  -0.085537  0.003634  3.019722  0.004  -0.065171  0.002456  3.311851  0.003  -0.063641  0.001237  3.320073  0.002  -0.095833  -0.065281  0.003562  3.305466  0.004
N  N70  1  0.65980073  0.27137257  0.90068386  1  -0.085626  0.003627  3.019751  0.004  -0.065279  0.002458  3.311902  0.003  -0.063751  0.001235  3.320128  0.002  -0.095898  -0.065387  0.003561  3.305511  0.004
N  N71  1  0.34019774  0.22862543  0.40068613  1  -0.085614  -0.003619  3.019665  -0.004  -0.065248  -0.002456  3.311804  -0.003  -0.06372  -0.001234  3.320027  -0.002  -0.095882  -0.06535  -0.003561  3.305414  -0.004
N  N72  1  0.15673114  0.78670457  0.98280508  1  -0.357618  -0.069553  3.248693  -0.086  -0.326771  -0.053306  3.581936  -0.07  -0.355792  -0.045406  3.597547  -0.062  -0.279861  -0.309167  -0.058261  3.572448  -0.074
N  N73  1  0.84326782  0.71329319  0.48280319  1  -0.357693  0.069532  3.249066  0.086  -0.32679  0.053307  3.582234  0.07  -0.355823  0.045403  3.597863  0.062  -0.279844  -0.309192  0.058262  3.572744  0.074
N  N74  1  0.84326131  0.21329715  0.01719664  1  -0.357671  0.06954  3.24892  0.086  -0.326777  0.053307  3.582067  0.07  -0.355798  0.045403  3.597672  0.062  -0.27985  -0.309164  0.058265  3.572571  0.074
N  N75  1  0.15673370  0.28670446  0.51719592  1  -0.357641  -0.069562  3.248836  -0.086  -0.326747  -0.053307  3.582049  -0.07  -0.355766  -0.045406  3.597657  -0.062  -0.279852  -0.309132  -0.058261  3.572563  -0.074
N  N76  1  0.71505395  0.29000659  0.64680213  1  -0.557202  -0.104047  3.145943  -0.126  -0.538091  -0.069594  3.428156  -0.088  -0.569257  -0.056323  3.432336  -0.075  -0.635441  -0.519252  -0.076885  3.426833  -0.094
N  N77  1  0.28493782  0.20998699  0.14680246  1  -0.557084  0.104016  3.145521  0.126  -0.538011  0.069587  3.42787  0.088  -0.569174  0.05632  3.432026  0.075  -0.635428  -0.519173  0.076874  3.42654  0.094
N  N78  1  0.28495690  0.70999926  0.35319872  1  -0.557291  0.104037  3.146202  0.126  -0.538153  0.0696  3.428552  0.088  -0.569331  0.056328  3.432753  0.075  -0.635458  -0.519316  0.076893  3.427216  0.094
N  N79  1  0.71505257  0.79000758  0.85319665  1  -0.557216  -0.104022  3.145869  -0.126  -0.538125  -0.069592  3.428122  -0.088  -0.569293  -0.056322  3.432302  -0.075  -0.635442  -0.51929  -0.076882  3.426791  -0.094
N  N80  1  0.85148017  0.12102370  0.49654121  1  -0.565032  -0.103597  3.138992  -0.126  -0.546073  -0.068911  3.42098  -0.087  -0.576536  -0.05577  3.425176  -0.075  -0.635853  -0.527931  -0.075525  3.41957  -0.092
N  N81  1  0.14851227  0.37897569  0.99654775  1  -0.564955  0.103595  3.138904  0.126  -0.546001  0.068901  3.420931  0.087  -0.57646  0.055766  3.42512  0.075  -0.635815  -0.527852  0.07552  3.419506  0.092
N  N82  1  0.14852900  0.87897806  0.50346137  1  -0.564959  0.103596  3.139143  0.126  -0.546093  0.068917  3.421187  0.087  -0.576569  0.055774  3.4254  0.075  -0.635846  -0.527958  0.07553  3.41977  0.092
N  N83  1  0.85147849  0.62102194  0.00345744  1  -0.565003  -0.103586  3.138917  -0.126  -0.546082  -0.068914  3.420957  -0.087  -0.576544  -0.05577  3.425149  -0.075  -0.635854  -0.52794  -0.075531  3.419537  -0.092
N  N84  1  0.02129799  0.96412839  0.84064754  1  -0.371788  -0.069949  3.251904  -0.087  -0.339967  -0.051864  3.589792  -0.068  -0.367234  -0.043726  3.601291  -0.06  -0.282534  -0.323404  -0.056867  3.583144  -0.072
N  N85  1  0.97870251  0.53587442  0.34064737  1  -0.371808  0.069931  3.252191  0.087  -0.340028  0.051854  3.590114  0.068  -0.367299  0.043721  3.601631  0.06  -0.282569  -0.323478  0.056859  3.583466  0.072
N  N86  1  0.97870364  0.03587029  0.15935330  1  -0.371809  0.069931  3.251805  0.087  -0.340028  0.051864  3.589697  0.068  -0.367278  0.043721  3.601199  0.06  -0.282527  -0.323458  0.056869  3.583043  0.072
N  N87  1  0.02129842  0.46412834  0.65935261  1  -0.371833  -0.069946  3.252006  -0.087  -0.340049  -0.051859  3.589935  -0.068  -0.367313  -0.043723  3.601427  -0.06  -0.282578  -0.323481  -0.056865  3.583288  -0.072
N  N88  1  0.39832432  0.85122320  0.05328165  1  -0.39067  -0.004599  2.956419  -0.005  -0.350395  -0.002565  3.231562  -0.003  -0.365011  -0.002138  3.240804  -0.003  -0.23465  -0.340413  -0.002889  3.224867  -0.003
N  N89  1  0.60167671  0.64877849  0.55327715  1  -0.390739  0.004576  2.956308  0.005  -0.350477  0.002568  3.231438  0.003  -0.365093  0.002134  3.240678  0.003  -0.234697  -0.340495  0.00289  3.224746  0.003
N  N90  1  0.60166644  0.14877443  0.94671746  1  -0.390588  0.004579  2.956037  0.005  -0.350342  0.002568  3.231146  0.003  -0.364961  0.002135  3.240391  0.003  -0.234629  -0.340359  0.00289  3.224455  0.003
N  N91  1  0.39833032  0.35122530  0.44672022  1  -0.390648  -0.004593  2.955975  -0.005  -0.350372  -0.002571  3.231108  -0.003  -0.364989  -0.002134  3.240348  -0.003  -0.234655  -0.340388  -0.002891  3.224414  -0.003
N  N92  1  0.19723011  0.69041571  0.05796360  1  -0.09282  0.00107  3.011327  0.001  -0.079889  -0.000253  3.312503  0.0  -0.077109  -2.9e-05  3.323794  0.0  -0.09918  -0.081085  -0.00046  3.304649  -0.001
N  N93  1  0.80277406  0.80958188  0.55796016  1  -0.092795  -0.001082  3.011409  -0.001  -0.079924  0.000253  3.312636  0.0  -0.077144  2.9e-05  3.32393  0.0  -0.099264  -0.081123  0.00046  3.304798  0.001
N  N94  1  0.80276329  0.30958397  0.94203811  1  -0.092754  -0.001073  3.011462  -0.001  -0.079861  0.000254  3.312659  0.0  -0.077084  3e-05  3.323953  0.0  -0.099191  -0.081054  0.000461  3.304803  0.001
N  N95  1  0.19723354  0.19041681  0.44203809  1  -0.092789  0.001088  3.011288  0.001  -0.079895  -0.000252  3.312497  0.0  -0.077115  -3.2e-05  3.323791  0.0  -0.099202  -0.081089  -0.000461  3.304651  -0.001
N  N96  1  0.93253031  0.03759623  0.77119159  1  -0.081853  0.002056  2.964777  0.002  -0.072378  0.000316  3.268302  0.0  -0.06683  0.000715  3.280227  0.001  -0.110537  -0.075518  6.4e-05  3.260499  0.0
N  N97  1  0.06747221  0.46240675  0.27119283  1  -0.081876  -0.002036  2.964842  -0.002  -0.072375  -0.000317  3.268366  0.0  -0.066827  -0.000711  3.280289  -0.001  -0.110535  -0.075516  -6.5e-05  3.260559  0.0
N  N98  1  0.06746857  0.96239938  0.22880839  1  -0.081756  -0.00204  2.964825  -0.002  -0.072259  -0.000316  3.268337  0.0  -0.066709  -0.000711  3.280262  -0.001  -0.110473  -0.075405  -6.4e-05  3.260537  0.0
N  N99  1  0.93253111  0.53759602  0.72880802  1  -0.081827  0.002066  2.964797  0.002  -0.072342  0.000315  3.268327  0.0  -0.066795  0.000717  3.280251  0.001  -0.110512  -0.075486  6.4e-05  3.26052  0.0
