# generated using pymatgen
data_HgH4C2(N2Cl)2
_symmetry_space_group_name_H-M   'P 1'
_cell_length_a   3.98511001
_cell_length_b   9.07266811
_cell_length_c   20.27486574
_cell_angle_alpha   90.00021829
_cell_angle_beta   89.99996741
_cell_angle_gamma   94.90267992
_symmetry_Int_Tables_number   1
_chemical_formula_structural   HgH4C2(N2Cl)2
_chemical_formula_sum   'Hg4 H16 C8 N16 Cl8'
_cell_volume   730.36753128
_cell_formula_units_Z   4
loop_
 _symmetry_equiv_pos_site_id
 _symmetry_equiv_pos_as_xyz
  1  'x, y, z'
loop_
 _atom_site_type_symbol
 _atom_site_label
 _atom_site_symmetry_multiplicity
 _atom_site_fract_x
 _atom_site_fract_y
 _atom_site_fract_z
 _atom_site_occupancy
 _atom_site_hle17_bader_spin_density
 _atom_site_hle17_ddec_charge
 _atom_site_hle17_ddec_spin_density
 _atom_site_hle17_ddec_sum_bond_order
 _atom_site_hle17_magmom
 _atom_site_hse06_10hf_bader_spin_density
 _atom_site_hse06_10hf_ddec_charge
 _atom_site_hse06_10hf_ddec_spin_density
 _atom_site_hse06_10hf_ddec_sum_bond_order
 _atom_site_hse06_10hf_magmom
 _atom_site_hse06_bader_spin_density
 _atom_site_hse06_ddec_charge
 _atom_site_hse06_ddec_spin_density
 _atom_site_hse06_ddec_sum_bond_order
 _atom_site_hse06_magmom
 _atom_site_pbe_bader_spin_density
 _atom_site_pbe_cm5_charge
 _atom_site_pbe_ddec_charge
 _atom_site_pbe_ddec_spin_density
 _atom_site_pbe_ddec_sum_bond_order
 _atom_site_pbe_magmom
Hg  Hg0  1  0.77943373  0.64144107  0.43959699  1  0  0.735005  0  2.167858  0  0  0.596469  0  2.671133  0  0  0.642969  0  2.635923  0  0  0.470556  0.564212  0  2.695366  0
Hg  Hg1  1  0.72056961  0.85856056  0.93959902  1  0  0.735038  0  2.167818  0  0  0.596507  0  2.671091  0  0  0.643004  0  2.635878  0  0  0.470574  0.56425  0  2.695321  0
Hg  Hg2  1  0.22056805  0.35855815  0.56040104  1  0  0.735016  0  2.167815  0  0  0.596485  0  2.671085  0  0  0.642984  0  2.635873  0  0  0.470565  0.564228  0  2.695315  0
Hg  Hg3  1  0.27942987  0.14143976  0.06040346  1  0  0.735042  0  2.167878  0  0  0.596511  0  2.67116  0  0  0.64301  0  2.635949  0  0  0.470561  0.564252  0  2.695388  0
H  H4  1  0.94527326  0.15462412  0.34676192  1  0  0.142403  0  0.965062  0  0  0.150824  0  1.041843  0  0  0.153296  0  1.040423  0  0  0.094102  0.149035  0  1.04287  0
H  H5  1  0.55471391  0.34537794  0.84676246  1  0  0.142473  0  0.96504  0  0  0.150891  0  1.041815  0  0  0.153364  0  1.040395  0  0  0.094114  0.149102  0  1.042841  0
H  H6  1  0.05472079  0.84537398  0.65323612  1  0  0.142416  0  0.965067  0  0  0.150838  0  1.041841  0  0  0.153311  0  1.040422  0  0  0.094097  0.14905  0  1.042867  0
H  H7  1  0.44527344  0.65462458  0.15323854  1  0  0.142412  0  0.965047  0  0  0.150833  0  1.041828  0  0  0.153306  0  1.040408  0  0  0.094102  0.149043  0  1.042855  0
H  H8  1  0.26407900  0.08084769  0.39457924  1  0  0.148308  0  0.944412  0  0  0.165437  0  1.006693  0  0  0.167291  0  1.006343  0  0  0.095946  0.164133  0  1.006932  0
H  H9  1  0.23590909  0.41915524  0.89457840  1  0  0.148314  0  0.944448  0  0  0.165486  0  1.006662  0  0  0.16734  0  1.006313  0  0  0.095945  0.164183  0  1.006901  0
H  H10  1  0.73591547  0.91915262  0.60542127  1  0  0.148324  0  0.944457  0  0  0.165459  0  1.006706  0  0  0.167313  0  1.006359  0  0  0.095948  0.164155  0  1.006946  0
H  H11  1  0.76408579  0.58084729  0.10542161  1  0  0.148297  0  0.94439  0  0  0.165432  0  1.006664  0  0  0.167287  0  1.006315  0  0  0.095938  0.164129  0  1.006902  0
H  H12  1  0.83732961  0.02049655  0.40993412  1  0  0.142718  0  0.961612  0  0  0.158522  0  1.025944  0  0  0.160905  0  1.024938  0  0  0.089311  0.156757  0  1.026803  0
H  H13  1  0.66265228  0.47950493  0.90993389  1  0  0.142824  0  0.961592  0  0  0.158611  0  1.025934  0  0  0.160993  0  1.024928  0  0  0.089341  0.156846  0  1.026794  0
H  H14  1  0.16266172  0.97950044  0.59006491  1  0  0.142753  0  0.961604  0  0  0.158537  0  1.025948  0  0  0.160919  0  1.024945  0  0  0.089321  0.156772  0  1.026807  0
H  H15  1  0.33733465  0.52049537  0.09006662  1  0  0.142755  0  0.961582  0  0  0.158557  0  1.025919  0  0  0.160941  0  1.024912  0  0  0.089318  0.156792  0  1.026778  0
H  H16  1  0.31549724  0.03553469  0.24244255  1  0  0.289157  0  0.941516  0  0  0.252099  0  1.029591  0  0  0.262075  0  1.021437  0  0  0.31545  0.24507  0  1.035341  0
H  H17  1  0.18450371  0.46446808  0.74244081  1  0  0.289087  0  0.941621  0  0  0.252051  0  1.029643  0  0  0.262027  0  1.021488  0  0  0.315441  0.245022  0  1.035394  0
H  H18  1  0.68450978  0.96446564  0.75755845  1  0  0.289141  0  0.941526  0  0  0.252066  0  1.02961  0  0  0.262039  0  1.021461  0  0  0.315421  0.245036  0  1.035361  0
H  H19  1  0.81549870  0.53553446  0.25755870  1  0  0.289083  0  0.941622  0  0  0.252077  0  1.029611  0  0  0.262056  0  1.021447  0  0  0.315448  0.245048  0  1.035362  0
C  C20  1  0.01840149  0.05397294  0.37099338  1  0  -0.409437  0  3.672856  0  0  -0.482771  0  3.904383  0  0  -0.487507  0  3.910044  0  0  -0.241497  -0.479261  0  3.900393  0
C  C21  1  0.48158620  0.44602759  0.87099305  1  0  -0.409718  0  3.672925  0  0  -0.482992  0  3.904501  0  0  -0.487728  0  3.910162  0  0  -0.241548  -0.479482  0  3.900513  0
C  C22  1  0.98159486  0.94602406  0.62900565  1  0  -0.409523  0  3.67305  0  0  -0.482804  0  3.904565  0  0  -0.487537  0  3.910215  0  0  -0.241487  -0.479294  0  3.900576  0
C  C23  1  0.51840304  0.55397162  0.12900795  1  0  -0.409578  0  3.67276  0  0  -0.482859  0  3.904322  0  0  -0.487595  0  3.909978  0  0  -0.24151  -0.47935  0  3.900332  0
C  C24  1  0.03512357  0.93180073  0.32327396  1  0  0.42122  0  3.683615  0  0  0.394574  0  3.956604  0  0  0.40927  0  3.971626  0  0  0.244482  0.384843  0  3.946183  0
C  C25  1  0.46486344  0.56820147  0.82327446  1  0  0.421291  0  3.683494  0  0  0.39438  0  3.956843  0  0  0.409074  0  3.971871  0  0  0.244376  0.38465  0  3.946418  0
C  C26  1  0.96487550  0.06819738  0.67672507  1  0  0.421339  0  3.683736  0  0  0.394583  0  3.956839  0  0  0.409283  0  3.971861  0  0  0.244455  0.38485  0  3.946416  0
C  C27  1  0.53512893  0.43180105  0.17672653  1  0  0.421411  0  3.683465  0  0  0.394561  0  3.956721  0  0  0.409259  0  3.971747  0  0  0.244415  0.384829  0  3.946295  0
N  N28  1  0.18855255  0.94059335  0.26384767  1  0  -0.236612  0  3.385697  0  0  -0.173811  0  3.63442  0  0  -0.190164  0  3.647578  0  0  -0.241693  -0.163031  0  3.625641  0
N  N29  1  0.31144956  0.55940837  0.76384670  1  0  -0.236434  0  3.385502  0  0  -0.173548  0  3.634259  0  0  -0.189902  0  3.647425  0  0  -0.241557  -0.162768  0  3.625479  0
N  N30  1  0.81145907  0.05940478  0.73615185  1  0  -0.236679  0  3.385802  0  0  -0.173814  0  3.634525  0  0  -0.190177  0  3.647702  0  0  -0.241639  -0.163034  0  3.625747  0
N  N31  1  0.68854804  0.44059527  0.23615282  1  0  -0.236578  0  3.385653  0  0  -0.17372  0  3.63438  0  0  -0.190079  0  3.647546  0  0  -0.241641  -0.162939  0  3.6256  0
N  N32  1  0.15569126  0.80769330  0.23404317  1  0  -0.026751  0  2.877514  0  0  -0.035611  0  3.164515  0  0  -0.031834  0  3.174203  0  0  -0.072105  -0.037929  0  3.157998  0
N  N33  1  0.34431839  0.69230818  0.73404242  1  0  -0.026752  0  2.877368  0  0  -0.035636  0  3.164351  0  0  -0.031862  0  3.174042  0  0  -0.072085  -0.037956  0  3.157837  0
N  N34  1  0.84432579  0.19230705  0.76595684  1  0  -0.026715  0  2.877433  0  0  -0.035605  0  3.164432  0  0  -0.031829  0  3.174129  0  0  -0.072104  -0.037922  0  3.157912  0
N  N35  1  0.65568632  0.30769326  0.26595808  1  0  -0.026794  0  2.877432  0  0  -0.035672  0  3.164437  0  0  -0.031893  0  3.174125  0  0  -0.072114  -0.037993  0  3.157923  0
N  N36  1  0.98513433  0.71945169  0.27482654  1  0  -0.077911  0  3.066138  0  0  -0.057346  0  3.3668  0  0  -0.058182  0  3.377836  0  0  -0.075377  -0.056508  0  3.359226  0
N  N37  1  0.51486933  0.78054966  0.77482648  1  0  -0.077991  0  3.066026  0  0  -0.057346  0  3.366624  0  0  -0.058179  0  3.377663  0  0  -0.075415  -0.056509  0  3.359051  0
N  N38  1  0.01488001  0.28054755  0.72517249  1  0  -0.077919  0  3.065944  0  0  -0.057312  0  3.366582  0  0  -0.058146  0  3.377619  0  0  -0.075404  -0.056477  0  3.359008  0
N  N39  1  0.48513057  0.21945287  0.22517452  1  0  -0.077877  0  3.066077  0  0  -0.057269  0  3.366712  0  0  -0.058102  0  3.377748  0  0  -0.075358  -0.056433  0  3.359135  0
N  N40  1  0.90478121  0.79204437  0.33021143  1  0  -0.320345  0  3.027424  0  0  -0.285664  0  3.322175  0  0  -0.303131  0  3.337252  0  0  -0.219763  -0.273826  0  3.311779  0
N  N41  1  0.59521739  0.70795744  0.83021321  1  0  -0.320382  0  3.027159  0  0  -0.285633  0  3.32196  0  0  -0.303099  0  3.337038  0  0  -0.21976  -0.273791  0  3.311555  0
N  N42  1  0.09522790  0.20795375  0.66978660  1  0  -0.3204  0  3.027224  0  0  -0.285697  0  3.321993  0  0  -0.303165  0  3.337067  0  0  -0.219759  -0.273859  0  3.311597  0
N  N43  1  0.40477749  0.29204509  0.16978877  1  0  -0.320431  0  3.02728  0  0  -0.285691  0  3.32207  0  0  -0.303159  0  3.337146  0  0  -0.219748  -0.273852  0  3.311672  0
Cl  Cl44  1  0.42280223  0.81167459  0.48413457  1  0  -0.395583  0  1.16186  0  0  -0.32885  0  1.461324  0  0  -0.349943  0  1.444812  0  0  -0.22211  -0.31437  0  1.47287  0
Cl  Cl45  1  0.07719639  0.68832456  0.98413632  1  0  -0.395608  0  1.16183  0  0  -0.328878  0  1.461298  0  0  -0.34997  0  1.444788  0  0  -0.222126  -0.314399  0  1.472844  0
Cl  Cl46  1  0.57719955  0.18832463  0.51586346  1  0  -0.39558  0  1.161827  0  0  -0.328849  0  1.461292  0  0  -0.349942  0  1.444782  0  0  -0.222117  -0.314371  0  1.472838  0
Cl  Cl47  1  0.92280017  0.31167354  0.01586566  1  0  -0.395584  0  1.16182  0  0  -0.328852  0  1.461286  0  0  -0.349945  0  1.444775  0  0  -0.222107  -0.314373  0  1.472831  0
Cl  Cl48  1  0.12489397  0.45572438  0.40434930  1  0  -0.412152  0  1.157801  0  0  -0.35387  0  1.465542  0  0  -0.375051  0  1.446699  0  0  -0.237298  -0.339119  0  1.478512  0
Cl  Cl49  1  0.37511356  0.04427535  0.90435125  1  0  -0.412149  0  1.157822  0  0  -0.353875  0  1.465585  0  0  -0.375039  0  1.4467  0  0  -0.237291  -0.339126  0  1.478555  0
Cl  Cl50  1  0.87511012  0.54427374  0.59564973  1  0  -0.412157  0  1.157795  0  0  -0.353898  0  1.465587  0  0  -0.37506  0  1.446698  0  0  -0.2373  -0.339148  0  1.478556  0
Cl  Cl51  1  0.62489073  0.95572388  0.09565122  1  0  -0.412186  0  1.157829  0  0  -0.353916  0  1.465588  0  0  -0.375092  0  1.446731  0  0  -0.237315  -0.339167  0  1.478556  0
