# generated using pymatgen
data_ZnH10C12(N2Cl)2
_symmetry_space_group_name_H-M   'P 1'
_cell_length_a   7.92409925
_cell_length_b   8.17493653
_cell_length_c   21.47160000
_cell_angle_alpha   90.00000000
_cell_angle_beta   90.00000000
_cell_angle_gamma   90.00000000
_symmetry_Int_Tables_number   1
_chemical_formula_structural   ZnH10C12(N2Cl)2
_chemical_formula_sum   'Zn4 H40 C48 N16 Cl8'
_cell_volume   1390.90895594
_cell_formula_units_Z   4
loop_
 _symmetry_equiv_pos_site_id
 _symmetry_equiv_pos_as_xyz
  1  'x, y, z'
loop_
 _atom_site_type_symbol
 _atom_site_label
 _atom_site_symmetry_multiplicity
 _atom_site_fract_x
 _atom_site_fract_y
 _atom_site_fract_z
 _atom_site_occupancy
 _atom_site_hle17_bader_spin_density
 _atom_site_hle17_ddec_charge
 _atom_site_hle17_ddec_spin_density
 _atom_site_hle17_ddec_sum_bond_order
 _atom_site_hle17_magmom
 _atom_site_hse06_10hf_bader_spin_density
 _atom_site_hse06_10hf_ddec_charge
 _atom_site_hse06_10hf_ddec_spin_density
 _atom_site_hse06_10hf_ddec_sum_bond_order
 _atom_site_hse06_10hf_magmom
 _atom_site_hse06_bader_spin_density
 _atom_site_hse06_ddec_charge
 _atom_site_hse06_ddec_spin_density
 _atom_site_hse06_ddec_sum_bond_order
 _atom_site_hse06_magmom
 _atom_site_pbe_bader_charge
 _atom_site_pbe_bader_spin_density
 _atom_site_pbe_cm5_charge
 _atom_site_pbe_ddec_charge
 _atom_site_pbe_ddec_spin_density
 _atom_site_pbe_ddec_sum_bond_order
 _atom_site_pbe_magmom
Zn  Zn0  1  0.50637175  0.70937554  0.62032964  1  0  0.834796  0  2.14752  0  0  0.65669  0  2.641166  0  0  0.696751  0  2.594792  0  1.127678  0  0.558816  0.629144  0  2.67262  0
Zn  Zn1  1  0.49362835  0.20937655  0.37967036  1  0  0.834779  0  2.147544  0  0  0.656665  0  2.641186  0  0  0.696738  0  2.594818  0  1.127674  0  0.558799  0.629123  0  2.67264  0
Zn  Zn2  1  0.00637296  0.70937676  0.87967036  1  0  0.834771  0  2.14755  0  0  0.656655  0  2.641204  0  0  0.696714  0  2.594831  0  1.127672  0  0.558794  0.629109  0  2.672658  0
Zn  Zn3  1  0.99362839  0.20937655  0.12032964  1  0  0.834795  0  2.14752  0  0  0.656671  0  2.64117  0  0  0.696732  0  2.594795  0  1.127683  0  0.558799  0.629125  0  2.672622  0
H  H4  1  0.42794391  0.38803604  0.56679195  1  0  0.079795  0  0.965132  0  0  0.08333  0  1.0395  0  0  0.08631  0  1.036276  0  0.139517  0  0.104858  0.081106  0  1.041853  0
H  H5  1  0.57205745  0.88803748  0.43320805  1  0  0.079785  0  0.965154  0  0  0.083316  0  1.039532  0  0  0.086295  0  1.036309  0  0.139516  0  0.10484  0.081092  0  1.041884  0
H  H6  1  0.92794269  0.38803726  0.93320805  1  0  0.079766  0  0.965164  0  0  0.083309  0  1.039531  0  0  0.086286  0  1.036311  0  0.139509  0  0.104842  0.081086  0  1.041883  0
H  H7  1  0.07205614  0.88803748  0.06679195  1  0  0.079807  0  0.965104  0  0  0.083336  0  1.039484  0  0  0.086315  0  1.036261  0  0.139516  0  0.104853  0.081111  0  1.041837  0
H  H8  1  0.30298586  0.12442910  0.60145541  1  0  0.11163  0  0.960588  0  0  0.120347  0  1.020067  0  0  0.122307  0  1.021915  0  0.137024  0  0.10327  0.118901  0  1.019028  0
H  H9  1  0.69701550  0.62442931  0.39854459  1  0  0.111659  0  0.960538  0  0  0.120338  0  1.020063  0  0  0.122299  0  1.02191  0  0.137073  0  0.10327  0.118892  0  1.019024  0
H  H10  1  0.80298464  0.12443032  0.89854459  1  0  0.111662  0  0.960549  0  0  0.120348  0  1.020066  0  0  0.122309  0  1.021913  0  0.137077  0  0.103265  0.118902  0  1.019028  0
H  H11  1  0.19701419  0.62442931  0.10145541  1  0  0.111639  0  0.96058  0  0  0.120354  0  1.02006  0  0  0.122315  0  1.021907  0  0.137074  0  0.103272  0.118909  0  1.019021  0
H  H12  1  0.25450464  0.07919205  0.71673420  1  0  0.100852  0  0.959433  0  0  0.108907  0  1.02717  0  0  0.111144  0  1.025787  0  0.137179  0  0.100911  0.107245  0  1.028155  0
H  H13  1  0.74549420  0.57919104  0.28326580  1  0  0.100844  0  0.959424  0  0  0.108897  0  1.027165  0  0  0.111133  0  1.025783  0  0.137178  0  0.100901  0.107234  0  1.028152  0
H  H14  1  0.75450595  0.07919205  0.78326580  1  0  0.100876  0  0.959397  0  0  0.10893  0  1.027143  0  0  0.111163  0  1.02577  0  0.137176  0  0.100916  0.107271  0  1.02812  0
H  H15  1  0.24549415  0.57919226  0.21673420  1  0  0.100852  0  0.959418  0  0  0.1089  0  1.027168  0  0  0.111137  0  1.025786  0  0.137185  0  0.100908  0.107241  0  1.028145  0
H  H16  1  0.46041700  0.56137317  0.74835597  1  0  0.086891  0  0.948877  0  0  0.089258  0  1.023364  0  0  0.092625  0  1.019845  0  0.131158  0  0.113948  0.086805  0  1.025854  0
H  H17  1  0.53958436  0.06137295  0.25164357  1  0  0.086903  0  0.948861  0  0  0.089266  0  1.023355  0  0  0.092633  0  1.019835  0  0.131162  0  0.113956  0.086813  0  1.025844  0
H  H18  1  0.96041705  0.56137317  0.75164403  1  0  0.08691  0  0.948853  0  0  0.089276  0  1.023341  0  0  0.092643  0  1.019821  0  0.131159  0  0.11396  0.086822  0  1.025831  0
H  H19  1  0.03958305  0.06137295  0.24835643  1  0  0.086903  0  0.948866  0  0  0.089268  0  1.023357  0  0  0.092634  0  1.019837  0  0.131156  0  0.113955  0.086814  0  1.025845  0
H  H20  1  0.25176868  0.18867058  0.82315663  1  0  0.078855  0  0.933447  0  0  0.085723  0  1.004593  0  0  0.088997  0  1.001229  0  0.106387  0  0.111755  0.083292  0  1.007098  0
H  H21  1  0.74823015  0.68867079  0.17684337  1  0  0.07887  0  0.933457  0  0  0.085734  0  1.004601  0  0  0.089009  0  1.001238  0  0.10639  0  0.111755  0.083303  0  1.007106  0
H  H22  1  0.75176999  0.18867058  0.67684383  1  0  0.078816  0  0.933505  0  0  0.085728  0  1.004607  0  0  0.089004  0  1.001241  0  0.106392  0  0.111756  0.083297  0  1.007112  0
H  H23  1  0.24823011  0.68866957  0.32315663  1  0  0.078852  0  0.933466  0  0  0.085747  0  1.004583  0  0  0.089021  0  1.001219  0  0.106387  0  0.111756  0.083316  0  1.007086  0
H  H24  1  0.55650237  0.50003813  0.93783090  1  0  0.075398  0  0.927676  0  0  0.084954  0  0.994128  0  0  0.087448  0  0.992233  0  0.112484  0  0.113493  0.083047  0  0.995674  0
H  H25  1  0.44349899  0.00003792  0.06216863  1  0  0.075404  0  0.927687  0  0  0.084946  0  0.994156  0  0  0.087441  0  0.992259  0  0.112487  0  0.113484  0.083039  0  0.995701  0
H  H26  1  0.05649980  0.50003936  0.56216910  1  0  0.07539  0  0.927678  0  0  0.084937  0  0.994146  0  0  0.087432  0  0.99225  0  0.112489  0  0.113485  0.08303  0  0.995692  0
H  H27  1  0.94349904  0.00003792  0.43783137  1  0  0.075402  0  0.92769  0  0  0.084945  0  0.994156  0  0  0.08744  0  0.99226  0  0.112488  0  0.113484  0.083038  0  0.995701  0
H  H28  1  0.31647256  0.28824689  0.18750303  1  0  0.078202  0  0.968646  0  0  0.084279  0  1.039497  0  0  0.086857  0  1.036988  0  0.11112  0  0.102931  0.082211  0  1.041541  0
H  H29  1  0.68353006  0.78824588  0.81249651  1  0  0.0782  0  0.968632  0  0  0.084238  0  1.039531  0  0  0.086815  0  1.037024  0  0.111108  0  0.102899  0.082177  0  1.041568  0
H  H30  1  0.81647135  0.28824444  0.31249651  1  0  0.07823  0  0.968603  0  0  0.084289  0  1.03948  0  0  0.086865  0  1.036971  0  0.111104  0  0.102922  0.082218  0  1.041526  0
H  H31  1  0.18352875  0.78824588  0.68750349  1  0  0.078205  0  0.968644  0  0  0.084297  0  1.039485  0  0  0.086875  0  1.036973  0  0.111108  0  0.102928  0.082219  0  1.041538  0
H  H32  1  0.59631131  0.41111879  0.16205779  1  0  0.108125  0  0.97952  0  0  0.114237  0  1.045709  0  0  0.117233  0  1.045278  0  0.115153  0  0.095536  0.112053  0  1.046223  0
H  H33  1  0.40368879  0.91111655  0.83794175  1  0  0.108123  0  0.979559  0  0  0.114232  0  1.045744  0  0  0.117228  0  1.045314  0  0.115146  0  0.095534  0.112047  0  1.046259  0
H  H34  1  0.09631126  0.41111757  0.33794175  1  0  0.108133  0  0.979552  0  0  0.114244  0  1.045737  0  0  0.117239  0  1.045307  0  0.115145  0  0.095538  0.112059  0  1.046251  0
H  H35  1  0.90368757  0.91111778  0.66205872  1  0  0.108119  0  0.979553  0  0  0.114229  0  1.04574  0  0  0.117225  0  1.04531  0  0.115136  0  0.095527  0.112045  0  1.046255  0
H  H36  1  0.66110227  0.48195726  0.05090492  1  0  0.104406  0  0.934751  0  0  0.11237  0  0.999426  0  0  0.115775  0  0.995872  0  0.128396  0  0.107521  0.109826  0  1.002078  0
H  H37  1  0.33889783  0.98195747  0.94909415  1  0  0.104378  0  0.934735  0  0  0.112336  0  0.999434  0  0  0.115741  0  0.99588  0  0.12841  0  0.107504  0.109792  0  1.002087  0
H  H38  1  0.16110222  0.48195726  0.44909415  1  0  0.104372  0  0.934735  0  0  0.112336  0  0.999432  0  0  0.115741  0  0.995878  0  0.12841  0  0.107504  0.109792  0  1.002084  0
H  H39  1  0.83889787  0.98195747  0.55090585  1  0  0.104414  0  0.934747  0  0  0.112357  0  0.999453  0  0  0.115762  0  0.995899  0  0.128406  0  0.107521  0.109813  0  1.002105  0
H  H40  1  0.17309349  0.28489273  0.00139626  1  0  0.082844  0  0.974904  0  0  0.084181  0  1.052154  0  0  0.087768  0  1.048077  0  0.152489  0  0.10763  0.081534  0  1.055135  0
H  H41  1  0.82690660  0.78489539  0.99860327  1  0  0.082854  0  0.974909  0  0  0.08415  0  1.052196  0  0  0.087736  0  1.048122  0  0.152517  0  0.107623  0.081504  0  1.055176  0
H  H42  1  0.67309354  0.28489518  0.49860327  1  0  0.082852  0  0.974916  0  0  0.084148  0  1.052207  0  0  0.087733  0  1.048133  0  0.152517  0  0.107619  0.081501  0  1.055187  0
H  H43  1  0.32690656  0.78489417  0.50139673  1  0  0.082813  0  0.974924  0  0  0.084138  0  1.052188  0  0  0.087724  0  1.048114  0  0.15252  0  0.107609  0.081492  0  1.055168  0
C  C44  1  0.40522587  0.36362973  0.61603560  1  0  0.134071  0  3.665182  0  0  0.098547  0  3.918309  0  0  0.106056  0  3.935339  0  0.437103  0  0.047976  0.093752  0  3.906771  0
C  C45  1  0.59477423  0.86362995  0.38396440  1  0  0.134094  0  3.665226  0  0  0.098565  0  3.918329  0  0  0.106075  0  3.935359  0  0.437102  0  0.047994  0.093772  0  3.906789  0
C  C46  1  0.90522592  0.36362973  0.88396487  1  0  0.13413  0  3.665193  0  0  0.098585  0  3.918323  0  0  0.106096  0  3.935356  0  0.437085  0  0.047982  0.093791  0  3.906785  0
C  C47  1  0.09477418  0.86362995  0.11603560  1  0  0.134076  0  3.665151  0  0  0.098555  0  3.918269  0  0  0.106065  0  3.935299  0  0.437106  0  0.047985  0.093762  0  3.906729  0
C  C48  1  0.33563310  0.21680291  0.63589579  1  0  -0.101319  0  3.720931  0  0  -0.11261  0  3.971902  0  0  -0.120233  0  3.994524  0  -0.01231  0  -0.079771  -0.107875  0  3.956888  0
C  C49  1  0.66436699  0.71680312  0.36410421  1  0  -0.101366  0  3.720906  0  0  -0.112611  0  3.971865  0  0  -0.120234  0  3.994486  0  -0.012365  0  -0.079777  -0.107876  0  3.95685  0
C  C50  1  0.83563189  0.21680413  0.86410468  1  0  -0.101346  0  3.720854  0  0  -0.112605  0  3.971838  0  0  -0.120228  0  3.994459  0  -0.012375  0  -0.079752  -0.10787  0  3.956824  0
C  C51  1  0.16436695  0.71680312  0.13589579  1  0  -0.101352  0  3.720916  0  0  -0.112641  0  3.971885  0  0  -0.120264  0  3.994507  0  -0.012366  0  -0.079777  -0.107906  0  3.956871  0
C  C52  1  0.30965034  0.19243941  0.69931724  1  0  -0.022923  0  3.664796  0  0  -0.051857  0  3.912065  0  0  -0.048039  0  3.930698  0  -0.03633  0  -0.056094  -0.054011  0  3.89941  0
C  C53  1  0.69034850  0.69243963  0.30068276  1  0  -0.022902  0  3.664809  0  0  -0.051837  0  3.912065  0  0  -0.048019  0  3.930697  0  -0.036322  0  -0.056077  -0.053992  0  3.899409  0
C  C54  1  0.80965165  0.19243941  0.80068323  1  0  -0.022953  0  3.664711  0  0  -0.051891  0  3.911972  0  0  -0.048073  0  3.930603  0  -0.036308  0  -0.056095  -0.054044  0  3.899319  0
C  C55  1  0.19034845  0.69243963  0.19931724  1  0  -0.022885  0  3.664744  0  0  -0.051818  0  3.912007  0  0  -0.048  0  3.930639  0  -0.036316  0  -0.056073  -0.053972  0  3.899354  0
C  C56  1  0.35778325  0.31470581  0.74165782  1  0  -0.004089  0  3.787698  0  0  0.020098  0  4.019404  0  0  0.013193  0  4.044292  0  -0.049897  0  -0.004018  0.024358  0  4.002686  0
C  C57  1  0.64221684  0.81470480  0.25834218  1  0  -0.004087  0  3.787741  0  0  0.020094  0  4.01945  0  0  0.01319  0  4.044337  0  -0.049934  0  -0.004025  0.024354  0  4.00273  0
C  C58  1  0.85778330  0.31470581  0.75834172  1  0  -0.004067  0  3.787687  0  0  0.020114  0  4.019402  0  0  0.01321  0  4.044289  0  -0.049928  0  -0.00401  0.024373  0  4.002684  0
C  C59  1  0.14221553  0.81470602  0.24165782  1  0  -0.004054  0  3.787675  0  0  0.020133  0  4.019381  0  0  0.013229  0  4.044268  0  -0.049937  0  -0.004007  0.024392  0  4.002663  0
C  C60  1  0.42530512  0.46044761  0.71771922  1  0  0.110153  0  3.636845  0  0  0.072438  0  3.877892  0  0  0.079609  0  3.895716  0  0.487197  0  0.060359  0.067918  0  3.865771  0
C  C61  1  0.57469371  0.96044782  0.28228078  1  0  0.110159  0  3.63681  0  0  0.072444  0  3.877864  0  0  0.079615  0  3.895687  0  0.487239  0  0.060354  0.067919  0  3.865756  0
C  C62  1  0.92530643  0.46044761  0.78228078  1  0  0.110148  0  3.636838  0  0  0.072433  0  3.877886  0  0  0.079604  0  3.895709  0  0.487234  0  0.060347  0.067909  0  3.865777  0
C  C63  1  0.07469366  0.96044782  0.21771969  1  0  0.110167  0  3.636726  0  0  0.072448  0  3.877781  0  0  0.079619  0  3.895604  0  0.487217  0  0.060364  0.067922  0  3.865675  0
C  C64  1  0.33568484  0.28869093  0.80824717  1  0  0.101465  0  3.663483  0  0  0.067676  0  3.924146  0  0  0.074403  0  3.939241  0  0.651928  0  0.074862  0.063269  0  3.913941  0
C  C65  1  0.66431525  0.78869114  0.19175283  1  0  0.101377  0  3.663542  0  0  0.067597  0  3.924198  0  0  0.074324  0  3.939294  0  0.651924  0  0.074851  0.063191  0  3.913991  0
C  C66  1  0.83568489  0.28869093  0.69175283  1  0  0.10147  0  3.663499  0  0  0.067657  0  3.924149  0  0  0.074384  0  3.939243  0  0.651906  0  0.07487  0.063251  0  3.913945  0
C  C67  1  0.16431521  0.78869114  0.30824717  1  0  0.101368  0  3.663512  0  0  0.06756  0  3.924173  0  0  0.074286  0  3.939269  0  0.651932  0  0.074839  0.063153  0  3.913967  0
C  C68  1  0.45842308  0.41140503  0.95094776  1  0  0.119775  0  3.657715  0  0  0.082769  0  3.920919  0  0  0.090476  0  3.935113  0  0.595991  0  0.080002  0.077685  0  3.911381  0
C  C69  1  0.54157575  0.91140524  0.04905224  1  0  0.119797  0  3.657896  0  0  0.082795  0  3.921105  0  0  0.090503  0  3.9353  0  0.595985  0  0.080048  0.07771  0  3.911566  0
C  C70  1  0.95842313  0.41140503  0.54905270  1  0  0.119886  0  3.657825  0  0  0.082829  0  3.921022  0  0  0.090536  0  3.935217  0  0.595985  0  0.080059  0.077745  0  3.911484  0
C  C71  1  0.04157570  0.91140524  0.45094776  1  0  0.119788  0  3.65783  0  0  0.082788  0  3.921037  0  0  0.090497  0  3.935231  0  0.595987  0  0.080029  0.077703  0  3.911499  0
C  C72  1  0.35072504  0.31679634  0.13950381  1  0  0.126315  0  3.680971  0  0  0.092349  0  3.933289  0  0  0.099571  0  3.951077  0  0.388864  0  0.043473  0.087852  0  3.921238  0
C  C73  1  0.64927506  0.81679656  0.86049619  1  0  0.126287  0  3.680928  0  0  0.092365  0  3.933244  0  0  0.099587  0  3.951031  0  0.388895  0  0.043526  0.087863  0  3.92119  0
C  C74  1  0.85072382  0.31679512  0.36049619  1  0  0.126288  0  3.680971  0  0  0.092348  0  3.933289  0  0  0.099569  0  3.951082  0  0.388901  0  0.043507  0.087854  0  3.921238  0
C  C75  1  0.14927501  0.81679533  0.63950381  1  0  0.126292  0  3.680973  0  0  0.092328  0  3.933293  0  0  0.099549  0  3.951083  0  0.388892  0  0.043492  0.087839  0  3.921246  0
C  C76  1  0.50515899  0.38743542  0.12516906  1  0  -0.109252  0  3.717594  0  0  -0.119874  0  3.966708  0  0  -0.128123  0  3.989318  0  0.066392  0  -0.082217  -0.11466  0  3.951592  0
C  C77  1  0.49484110  0.88743564  0.87483047  1  0  -0.109222  0  3.717548  0  0  -0.119848  0  3.966677  0  0  -0.128094  0  3.989284  0  0.066389  0  -0.082207  -0.114635  0  3.951563  0
C  C78  1  0.00515895  0.38743542  0.37483047  1  0  -0.109282  0  3.717579  0  0  -0.119915  0  3.966747  0  0  -0.128163  0  3.989354  0  0.066404  0  -0.082225  -0.114701  0  3.951629  0
C  C79  1  0.99484115  0.88743564  0.62516953  1  0  -0.109238  0  3.717567  0  0  -0.119877  0  3.966712  0  0  -0.128124  0  3.98932  0  0.066394  0  -0.0822  -0.114662  0  3.951593  0
C  C80  1  0.54197832  0.42392500  0.06318020  1  0  -0.013187  0  3.663326  0  0  -0.042432  0  3.911571  0  0  -0.037688  0  3.928441  0  -0.074074  0  -0.054011  -0.045262  0  3.900147  0
C  C81  1  0.45802304  0.92392522  0.93681980  1  0  -0.013151  0  3.663271  0  0  -0.042402  0  3.911502  0  0  -0.037659  0  3.928373  0  -0.074055  0  -0.053996  -0.045233  0  3.900078  0
C  C82  1  0.04197701  0.42392500  0.43681980  1  0  -0.013123  0  3.663201  0  0  -0.042431  0  3.911418  0  0  -0.037687  0  3.928288  0  -0.074047  0  -0.053999  -0.045261  0  3.899995  0
C  C83  1  0.95802182  0.92392522  0.56318067  1  0  -0.013205  0  3.663312  0  0  -0.042424  0  3.911527  0  0  -0.03768  0  3.928396  0  -0.074058  0  -0.054027  -0.045254  0  3.900103  0
C  C84  1  0.42517893  0.38210694  0.01678077  1  0  -0.003534  0  3.787221  0  0  0.019869  0  4.019878  0  0  0.013272  0  4.043656  0  0.040099  0  -0.004276  0.023919  0  4.003975  0
C  C85  1  0.57482243  0.88210715  0.98321923  1  0  -0.003531  0  3.787242  0  0  0.019877  0  4.01988  0  0  0.01328  0  4.043658  0  0.040104  0  -0.004259  0.023927  0  4.003976  0
C  C86  1  0.92517771  0.38210694  0.48321969  1  0  -0.003604  0  3.78723  0  0  0.019954  0  4.01971  0  0  0.013358  0  4.043487  0  0.040108  0  -0.004278  0.024003  0  4.003807  0
C  C87  1  0.07482238  0.88210715  0.51678077  1  0  -0.003539  0  3.787235  0  0  0.019857  0  4.019889  0  0  0.01326  0  4.043666  0  0.040109  0  -0.004265  0.023907  0  4.003986  0
C  C88  1  0.27094436  0.31342506  0.03537044  1  0  0.105925  0  3.655992  0  0  0.066518  0  3.902401  0  0  0.074243  0  3.918256  0  0.482492  0  0.054589  0.061544  0  3.891784  0
C  C89  1  0.72905700  0.81342528  0.96462956  1  0  0.105848  0  3.655935  0  0  0.066506  0  3.902345  0  0  0.074231  0  3.9182  0  0.482458  0  0.054551  0.061533  0  3.891728  0
C  C90  1  0.77094315  0.31342506  0.46462956  1  0  0.105862  0  3.655946  0  0  0.066468  0  3.902327  0  0  0.074192  0  3.918182  0  0.482455  0  0.054558  0.061495  0  3.891711  0
C  C91  1  0.22905569  0.81342528  0.53537044  1  0  0.105906  0  3.655915  0  0  0.066532  0  3.902343  0  0  0.074256  0  3.918197  0  0.482455  0  0.054582  0.061558  0  3.891726  0
N  N92  1  0.44679400  0.48386553  0.65645457  1  0  -0.316997  0  3.34561  0  0  -0.229065  0  3.616618  0  0  -0.248965  0  3.634198  0  -1.261295  0  -0.332867  -0.215755  0  3.60453  0
N  N93  1  0.55320609  0.98386574  0.34354543  1  0  -0.317006  0  3.345601  0  0  -0.229074  0  3.616606  0  0  -0.248976  0  3.63419  0  -1.261296  0  -0.332865  -0.215765  0  3.604518  0
N  N94  1  0.94679405  0.48386553  0.84354543  1  0  -0.317036  0  3.345611  0  0  -0.229093  0  3.616615  0  0  -0.248992  0  3.634193  0  -1.261281  0  -0.332863  -0.215784  0  3.604526  0
N  N95  1  0.05320479  0.98386574  0.15645457  1  0  -0.317042  0  3.345483  0  0  -0.22911  0  3.616497  0  0  -0.24901  0  3.634076  0  -1.261281  0  -0.332892  -0.2158  0  3.604405  0
N  N96  1  0.41379214  0.37824392  0.84881704  1  0  -0.212602  0  3.030901  0  0  -0.18382  0  3.3209  0  0  -0.193334  0  3.339475  0  -0.767924  0  -0.214943  -0.177311  0  3.308143  0
N  N97  1  0.58620795  0.87824290  0.15118249  1  0  -0.2126  0  3.031095  0  0  -0.183822  0  3.321088  0  0  -0.193336  0  3.339663  0  -0.768074  0  -0.214976  -0.177312  0  3.308329  0
N  N98  1  0.91379093  0.37824269  0.65118296  1  0  -0.212619  0  3.030966  0  0  -0.183844  0  3.320975  0  0  -0.19336  0  3.339551  0  -0.768059  0  -0.21498  -0.177335  0  3.308218  0
N  N99  1  0.08620917  0.87824413  0.34881751  1  0  -0.212596  0  3.031071  0  0  -0.183817  0  3.321073  0  0  -0.193331  0  3.339649  0  -0.768077  0  -0.214983  -0.177307  0  3.308314  0
N  N100  1  0.37279947  0.33321237  0.90921170  1  0  -0.216364  0  3.063019  0  0  -0.183828  0  3.354676  0  0  -0.195287  0  3.373789  0  -0.765934  0  -0.213177  -0.175931  0  3.341515  0
N  N101  1  0.62719936  0.83321259  0.09078783  1  0  -0.216332  0  3.063332  0  0  -0.183791  0  3.354983  0  0  -0.195249  0  3.374098  0  -0.765783  0  -0.213175  -0.175894  0  3.341821  0
N  N102  1  0.87279952  0.33321237  0.59078783  1  0  -0.216386  0  3.063174  0  0  -0.183841  0  3.354842  0  0  -0.195298  0  3.373956  0  -0.765804  0  -0.213193  -0.175943  0  3.341681  0
N  N103  1  0.12720058  0.83321259  0.40921217  1  0  -0.216317  0  3.06323  0  0  -0.183775  0  3.354879  0  0  -0.195233  0  3.373993  0  -0.765782  0  -0.213148  -0.175877  0  3.341717  0
N  N104  1  0.23404427  0.28419793  0.09523138  1  0  -0.329393  0  3.349748  0  0  -0.242755  0  3.622111  0  0  -0.262241  0  3.638838  0  -1.255997  0  -0.338639  -0.229703  0  3.610541  0
N  N105  1  0.76595709  0.78419814  0.90476816  1  0  -0.329318  0  3.349615  0  0  -0.242735  0  3.622007  0  0  -0.262219  0  3.638732  0  -1.256025  0  -0.338646  -0.229683  0  3.61044  0
N  N106  1  0.73404305  0.28419793  0.40476816  1  0  -0.329314  0  3.34965  0  0  -0.242719  0  3.622045  0  0  -0.262207  0  3.638775  0  -1.256043  0  -0.338637  -0.229667  0  3.610474  0
N  N107  1  0.26595578  0.78419691  0.59523184  1  0  -0.329306  0  3.349637  0  0  -0.242726  0  3.622057  0  0  -0.262212  0  3.638784  0  -1.256025  0  -0.338635  -0.229673  0  3.610484  0
Cl  Cl108  1  0.58956985  0.86679939  0.69957991  1  0  -0.558584  0  0.947537  0  0  -0.49315  0  1.225311  0  0  -0.507918  0  1.201056  0  -0.667961  0  -0.301546  -0.482357  0  1.241893  0
Cl  Cl109  1  0.41042898  0.36679918  0.30042009  1  0  -0.558581  0  0.947546  0  0  -0.493149  0  1.225308  0  0  -0.507921  0  1.201056  0  -0.667972  0  -0.301542  -0.482355  0  1.241889  0
Cl  Cl110  1  0.08956980  0.86680061  0.80042009  1  0  -0.558577  0  0.947559  0  0  -0.493144  0  1.225325  0  0  -0.507911  0  1.201068  0  -0.667973  0  -0.301546  -0.482349  0  1.241906  0
Cl  Cl111  1  0.91042903  0.36680040  0.19958038  1  0  -0.558587  0  0.94754  0  0  -0.493152  0  1.225302  0  0  -0.507921  0  1.201047  0  -0.667977  0  -0.301551  -0.482358  0  1.241885  0
Cl  Cl112  1  0.63919568  0.68006767  0.52996656  1  0  -0.551269  0  0.981422  0  0  -0.485121  0  1.264027  0  0  -0.502182  0  1.242886  0  -0.656926  0  -0.300357  -0.472567  0  1.278322  0
Cl  Cl113  1  0.36080442  0.18006745  0.47003297  1  0  -0.551265  0  0.981427  0  0  -0.485116  0  1.26403  0  0  -0.502183  0  1.242894  0  -0.656925  0  -0.300353  -0.472563  0  1.278325  0
Cl  Cl114  1  0.13919563  0.68006767  0.97003297  1  0  -0.551253  0  0.981432  0  0  -0.4851  0  1.264035  0  0  -0.502162  0  1.242896  0  -0.656924  0  -0.300344  -0.472546  0  1.278329  0
Cl  Cl115  1  0.86080446  0.18006745  0.02996703  1  0  -0.551259  0  0.981423  0  0  -0.485116  0  1.264031  0  0  -0.502178  0  1.24289  0  -0.656925  0  -0.30035  -0.472562  0  1.278325  0
