# generated using pymatgen
data_Ag3H28C36S2N7O10
_symmetry_space_group_name_H-M   'P 1'
_cell_length_a   11.34270627
_cell_length_b   12.60325488
_cell_length_c   13.68703929
_cell_angle_alpha   97.90170256
_cell_angle_beta   89.99947735
_cell_angle_gamma   90.00059534
_symmetry_Int_Tables_number   1
_chemical_formula_structural   Ag3H28C36S2N7O10
_chemical_formula_sum   'Ag6 H56 C72 S4 N14 O20'
_cell_volume   1938.05348000
_cell_formula_units_Z   2
loop_
 _symmetry_equiv_pos_site_id
 _symmetry_equiv_pos_as_xyz
  1  'x, y, z'
loop_
 _atom_site_type_symbol
 _atom_site_label
 _atom_site_symmetry_multiplicity
 _atom_site_fract_x
 _atom_site_fract_y
 _atom_site_fract_z
 _atom_site_occupancy
 _atom_site_pbe_bader_charge
 _atom_site_pbe_bader_spin_density
 _atom_site_pbe_cm5_charge
 _atom_site_pbe_ddec_charge
 _atom_site_pbe_ddec_spin_density
 _atom_site_pbe_ddec_sum_bond_order
 _atom_site_pbe_magmom
Ag  Ag0  1  0.26617145  0.59745335  0.55722225  1  0.560062  0  0.472778  0.304221  0  1.926976  0
Ag  Ag1  1  0.73382600  0.09745228  0.05722022  1  0.560062  0  0.472768  0.304209  0  1.926939  0
Ag  Ag2  1  0.36959470  0.71840336  0.36790517  1  0.570132  0  0.475407  0.319358  0  1.975932  0
Ag  Ag3  1  0.63040871  0.21839376  0.86790010  1  0.570092  0  0.475417  0.31927  0  1.975857  0
Ag  Ag4  1  0.40871656  0.79232842  0.15717268  1  0.578134  0  0.467042  0.358975  0  1.923951  0
Ag  Ag5  1  0.59128117  0.29233389  0.65717603  1  0.578145  0  0.467044  0.358973  0  1.923911  0
H  H6  1  0.17362463  0.59273623  0.25098099  1  0.160182  0  0.124258  0.106576  0  0.991886  0
H  H7  1  0.82637332  0.09273404  0.75098107  1  0.160089  0  0.124264  0.106599  0  0.991888  0
H  H8  1  0.95555710  0.59033066  0.24285460  1  0.078546  0  0.117503  0.128342  0  0.978073  0
H  H9  1  0.04443738  0.09032087  0.74285170  1  0.078028  0  0.117562  0.128413  0  0.97798  0
H  H10  1  0.95439532  0.85224340  0.48335841  1  0.101653  0  0.118406  0.129353  0  0.977876  0
H  H11  1  0.04561279  0.35223824  0.98334940  1  0.101655  0  0.118406  0.129336  0  0.9779  0
H  H12  1  0.17278470  0.85031591  0.47582939  1  0.137174  0  0.121562  0.099169  0  0.992785  0
H  H13  1  0.82722523  0.35031519  0.97582449  1  0.137132  0  0.121477  0.099128  0  0.992749  0
H  H14  1  0.56514888  0.56056756  0.30461984  1  0.166341  0  0.118479  0.104154  0  1.026835  0
H  H15  1  0.43485076  0.06055387  0.80461435  1  0.16611  0  0.118413  0.104045  0  1.026786  0
H  H16  1  0.78201983  0.88715559  0.43186054  1  0.123985  0  0.119025  0.134754  0  0.977977  0
H  H17  1  0.21798659  0.38714867  0.93185006  1  0.12351  0  0.119037  0.134697  0  0.977866  0
H  H18  1  0.56666902  0.87707816  0.43690890  1  0.205767  0  0.1197  0.103591  0  1.051475  0
H  H19  1  0.43333811  0.37706747  0.93689715  1  0.205907  0  0.119679  0.10353  0  1.051657  0
H  H20  1  0.07037239  0.47376060  0.44748695  1  0.165379  0  0.118802  0.10863  0  1.01302  0
H  H21  1  0.92962957  0.97375534  0.94748703  1  0.165279  0  0.118811  0.108689  0  1.012948  0
H  H22  1  0.85140553  0.46330378  0.44498656  1  0.131706  0  0.106819  0.122122  0  1.038288  0
H  H23  1  0.14859545  0.96329439  0.94499351  1  0.13179  0  0.106872  0.12219  0  1.038306  0
H  H24  1  0.85111117  0.71726165  0.69415572  1  0.149694  0  0.112711  0.140622  0  1.025166  0
H  H25  1  0.14888265  0.21726426  0.19415113  1  0.149633  0  0.112679  0.140604  0  1.025324  0
H  H26  1  0.06871942  0.71344057  0.68779552  1  0.151691  0  0.114257  0.090334  0  1.02798  0
H  H27  1  0.93127531  0.21344429  0.18778958  1  0.151562  0  0.114204  0.090262  0  1.027932  0
H  H28  1  0.45756169  0.44022655  0.50166129  1  0.142944  0  0.112772  0.087528  0  1.036819  0
H  H29  1  0.54243590  0.94022786  0.00165909  1  0.142945  0  0.11279  0.087571  0  1.036774  0
H  H30  1  0.67530860  0.42731283  0.49966720  1  0.080738  0  0.104932  0.108068  0  1.046455  0
H  H31  1  0.32468873  0.92730796  0.99966745  1  0.080754  0  0.104922  0.108038  0  1.046455  0
H  H32  1  0.68508345  0.75865370  0.63567507  1  0.165295  0  0.110617  0.128524  0  1.041353  0
H  H33  1  0.31491325  0.25865369  0.13566824  1  0.165295  0  0.110597  0.128499  0  1.041321  0
H  H34  1  0.46736561  0.75897415  0.62719651  1  0.093457  0  0.118959  0.094677  0  0.990418  0
H  H35  1  0.53263030  0.25897439  0.12718881  1  0.093551  0  0.119004  0.094667  0  0.990423  0
H  H36  1  0.27077491  0.20036666  0.37076632  1  0.142888  0  0.109635  0.120295  0  1.000481  0
H  H37  1  0.72922650  0.70035491  0.87076723  1  0.142836  0  0.109624  0.12026  0  1.000472  0
H  H38  1  0.56667049  0.39206703  0.30217563  1  0.158206  0  0.108614  0.117468  0  1.036099  0
H  H39  1  0.43333386  0.89205907  0.80217475  1  0.158419  0  0.108621  0.117579  0  1.035835  0
H  H40  1  0.21065469  0.69740486  0.01852443  1  0.144234  0  0.121035  0.105527  0  0.996019  0
H  H41  1  0.78934345  0.19742066  0.51852225  1  0.144505  0  0.121064  0.105544  0  0.996161  0
H  H42  1  0.99340365  0.70755140  0.00398130  1  0.102449  0  0.11729  0.132116  0  0.979053  0
H  H43  1  0.00659477  0.20756285  0.50397868  1  0.102415  0  0.117319  0.132134  0  0.979095  0
H  H44  1  0.99652018  0.94967581  0.26148661  1  0.105881  0  0.114595  0.129185  0  0.978768  0
H  H45  1  0.00347910  0.44967861  0.76148969  1  0.105842  0  0.114625  0.12919  0  0.978846  0
H  H46  1  0.21380743  0.93586412  0.26078368  1  0.169557  0  0.114794  0.099025  0  1.038376  0
H  H47  1  0.78619082  0.43586891  0.76078843  1  0.169523  0  0.114801  0.099061  0  1.038333  0
H  H48  1  0.60103718  0.96036878  0.23294014  1  0.171233  0  0.118381  0.103578  0  1.017138  0
H  H49  1  0.39895725  0.46037120  0.73295047  1  0.171406  0  0.118434  0.103611  0  1.017238  0
H  H50  1  0.81537598  0.98265691  0.22323636  1  0.114808  0  0.108851  0.122706  0  1.023657  0
H  H51  1  0.18462057  0.48266213  0.72324199  1  0.114794  0  0.108829  0.122646  0  1.023833  0
H  H52  1  0.82812244  0.66192051  0.05769200  1  0.105325  0  0.109603  0.123157  0  1.016518  0
H  H53  1  0.17187840  0.16193337  0.55768901  1  0.105455  0  0.109573  0.123099  0  1.016621  0
H  H54  1  0.61460621  0.65326453  0.07840732  1  0.172559  0  0.113155  0.085633  0  1.063389  0
H  H55  1  0.38538901  0.15327138  0.57840943  1  0.17248  0  0.113127  0.085564  0  1.063398  0
H  H56  1  0.78350594  0.55387000  0.29732900  1  0.105322  0  0.112823  0.126385  0  1.002533  0
H  H57  1  0.21649458  0.05385927  0.79732544  1  0.10517  0  0.11279  0.126262  0  1.002589  0
H  H58  1  0.42910410  0.55183079  0.06840913  1  0.641644  0  0.283593  0.391012  0  0.936623  0
H  H59  1  0.57089448  0.05183683  0.56841050  1  0.641666  0  0.283602  0.391032  0  0.9366  0
H  H60  1  0.38113963  0.54856634  0.17573738  1  0.622324  0  0.27522  0.374012  0  0.967237  0
H  H61  1  0.61886127  0.04856393  0.67573606  1  0.622422  0  0.27518  0.373924  0  0.967312  0
C  C62  1  0.12163180  0.64963053  0.30047907  1  0.37491  0  0.051416  0.094964  0  3.912856  0
C  C63  1  0.87836979  0.14962455  0.80047033  1  0.37476  0  0.051387  0.094979  0  3.912559  0
C  C64  1  0.99935797  0.64840630  0.29720630  1  0.048118  0  -0.073593  -0.160494  0  3.925488  0
C  C65  1  0.00064011  0.14840254  0.79720435  1  0.048738  0  -0.073631  -0.160616  0  3.925683  0
C  C66  1  0.93446876  0.72121271  0.36323414  1  0.080733  0  0.014779  0.101887  0  3.980049  0
C  C67  1  0.06553209  0.22120369  0.86322385  1  0.0804  0  0.014694  0.101875  0  3.979936  0
C  C68  1  0.99880620  0.79453023  0.42907659  1  0.0288  0  -0.074958  -0.160206  0  3.926081  0
C  C69  1  0.00119919  0.29452707  0.92906738  1  0.029169  0  -0.074959  -0.160152  0  3.925868  0
C  C70  1  0.12107387  0.79243670  0.42715044  1  0.416121  0  0.047522  0.084277  0  3.949873  0
C  C71  1  0.87893504  0.29243559  0.92714439  1  0.412854  0  0.047654  0.084361  0  3.949889  0
C  C72  1  0.61823523  0.63015806  0.33243328  1  0.414174  0  0.04299  0.084379  0  3.922026  0
C  C73  1  0.38176227  0.13014780  0.83242416  1  0.415052  0  0.0429  0.084097  0  3.922086  0
C  C74  1  0.80452004  0.72041706  0.36479203  1  -0.114076  0  0.010429  0.090308  0  3.988451  0
C  C75  1  0.19548343  0.22041010  0.86478683  1  -0.114366  0  0.010524  0.090328  0  3.98849  0
C  C76  1  0.74008157  0.81107461  0.40472648  1  0.007985  0  -0.072272  -0.151828  0  3.895706  0
C  C77  1  0.25992603  0.31105917  0.90471262  1  0.009103  0  -0.07229  -0.151795  0  3.896052  0
C  C78  1  0.61788671  0.80694394  0.40730255  1  0.411642  0  0.050595  0.101243  0  3.890697  0
C  C79  1  0.38211641  0.30693206  0.90729253  1  0.411785  0  0.050537  0.101051  0  3.891075  0
C  C80  1  0.01723340  0.52573526  0.50058302  1  0.440343  0  0.040422  0.082568  0  3.915058  0
C  C81  1  0.98276561  0.02573155  0.00058105  1  0.440367  0  0.040438  0.082646  0  3.915083  0
C  C82  1  0.89486961  0.52050888  0.50054372  1  -0.063687  0  -0.081626  -0.169449  0  3.93271  0
C  C83  1  0.10513111  0.02050090  0.00054495  1  -0.063949  0  -0.081718  -0.16964  0  3.932729  0
C  C84  1  0.83059485  0.59030507  0.56950372  1  -0.045409  0  0.012971  0.102305  0  3.966725  0
C  C85  1  0.16940768  0.09030073  0.06950119  1  -0.045175  0  0.012963  0.10243  0  3.966356  0
C  C86  1  0.89482206  0.66092266  0.63809834  1  -0.038372  0  -0.07715  -0.158283  0  3.886734  0
C  C87  1  0.10517349  0.16092912  0.13810178  1  -0.038314  0  -0.077137  -0.158341  0  3.886566  0
C  C88  1  0.01706066  0.66091241  0.63411663  1  0.453056  0  0.042547  0.081886  0  3.934935  0
C  C89  1  0.98293317  0.16091180  0.13411132  1  0.45319  0  0.042675  0.082069  0  3.934985  0
C  C90  1  0.51153140  0.50862847  0.53095293  1  0.431325  0  0.039247  0.081832  0  3.939339  0
C  C91  1  0.48846885  0.00862766  0.03094984  1  0.431303  0  0.039154  0.081713  0  3.939334  0
C  C92  1  0.63363186  0.50216798  0.53067245  1  0.03002  0  -0.081185  -0.168265  0  3.954878  0
C  C93  1  0.36636832  0.00216459  0.03067146  1  0.029968  0  -0.081138  -0.168143  0  3.954625  0
C  C94  1  0.70052537  0.59189751  0.56925304  1  -0.02218  0  0.015142  0.109859  0  3.938072  0
C  C95  1  0.29946925  0.09189589  0.06925055  1  -0.022272  0  0.015183  0.109744  0  3.938234  0
C  C96  1  0.63882879  0.68554659  0.60565117  1  -0.011399  0  -0.077562  -0.15226  0  3.896812  0
C  C97  1  0.36116739  0.18554383  0.10564590  1  -0.011363  0  -0.077541  -0.152184  0  3.896883  0
C  C98  1  0.51664898  0.68634997  0.60180887  1  0.461217  0  0.043018  0.083847  0  3.949609  0
C  C99  1  0.48334549  0.18635548  0.10180501  1  0.461104  0  0.042945  0.083797  0  3.949375  0
C  C100  1  0.56893795  0.13492953  0.36981161  1  0.901597  0  0.108816  0.316436  0  4.13252  0
C  C101  1  0.43105390  0.63491784  0.86982060  1  0.901262  0  0.108976  0.31662  0  4.132816  0
C  C102  1  0.43995806  0.12921018  0.37894296  1  -0.193212  0  -0.040216  -0.216474  0  3.899204  0
C  C103  1  0.56004420  0.62920587  0.87894809  1  -0.193462  0  -0.040218  -0.216601  0  3.899313  0
C  C104  1  0.36551960  0.21067727  0.36223866  1  -0.022201  0  -0.081826  -0.073894  0  4.020755  0
C  C105  1  0.63448379  0.71066727  0.86224557  1  -0.022028  0  -0.081858  -0.073822  0  4.020459  0
C  C106  1  0.41070793  0.30713536  0.33507959  1  -0.132367  0  -0.045841  -0.132669  0  4.038827  0
C  C107  1  0.58929333  0.80713042  0.83508151  1  -0.132313  0  -0.045811  -0.132591  0  4.039005  0
C  C108  1  0.53068648  0.31903328  0.32414920  1  -0.096254  0  -0.091125  -0.136802  0  4.065464  0
C  C109  1  0.46932297  0.81902256  0.82415289  1  -0.0965  0  -0.091287  -0.137185  0  4.066016  0
C  C110  1  0.60895737  0.23612206  0.33871831  1  0.236478  0  0.046125  -0.085926  0  3.882138  0
C  C111  1  0.39104745  0.73611471  0.83872366  1  0.236681  0  0.046216  -0.085806  0  3.881941  0
C  C112  1  0.15983000  0.75378208  0.06966999  1  0.464654  0  0.045011  0.086322  0  3.927684  0
C  C113  1  0.84016647  0.25379190  0.56966682  1  0.464009  0  0.044867  0.086128  0  3.927504  0
C  C114  1  0.03780627  0.75839801  0.06359718  1  -0.066271  0  -0.077611  -0.166872  0  3.925279  0
C  C115  1  0.96219473  0.25840734  0.56359597  1  -0.066137  0  -0.077697  -0.166884  0  3.925394  0
C  C116  1  0.97395501  0.82722962  0.13412415  1  -0.035717  0  0.011771  0.097444  0  3.990022  0
C  C117  1  0.02604425  0.32723248  0.63412269  1  -0.035775  0  0.011785  0.097464  0  3.990077  0
C  C118  1  0.03945581  0.89384909  0.20466641  1  -0.002035  0  -0.081144  -0.168355  0  3.938753  0
C  C119  1  0.96054081  0.39385294  0.70466976  1  -0.001802  0  -0.081239  -0.168462  0  3.938869  0
C  C120  1  0.16162237  0.88655497  0.20503315  1  0.435458  0  0.040659  0.084461  0  3.92687  0
C  C121  1  0.83837592  0.38656016  0.70503609  1  0.435355  0  0.040741  0.084546  0  3.926848  0
C  C122  1  0.65455161  0.89749739  0.19238998  1  0.440659  0  0.044003  0.091204  0  3.923103  0
C  C123  1  0.34544607  0.39750083  0.69239642  1  0.440194  0  0.04403  0.091306  0  3.922958  0
C  C124  1  0.77629161  0.90863429  0.18673261  1  0.01136  0  -0.085826  -0.178276  0  3.940086  0
C  C125  1  0.22370714  0.40864227  0.68673897  1  0.012301  0  -0.08587  -0.178348  0  3.940157  0
C  C126  1  0.84398511  0.82434386  0.13746794  1  -0.06336  0  0.010238  0.102371  0  3.963538  0
C  C127  1  0.15601320  0.32435273  0.63746978  1  -0.064121  0  0.010233  0.102289  0  3.963426  0
C  C128  1  0.78341901  0.73185266  0.09635264  1  -0.005453  0  -0.080115  -0.159933  0  3.918007  0
C  C129  1  0.21657692  0.23185873  0.59635009  1  -0.005427  0  -0.080147  -0.159958  0  3.918015  0
C  C130  1  0.66206164  0.72621167  0.10636176  1  0.438702  0  0.041232  0.089566  0  3.933414  0
C  C131  1  0.33793764  0.22622138  0.60636598  1  0.439081  0  0.041324  0.089722  0  3.933573  0
C  C132  1  0.74036571  0.62831877  0.32777130  1  0.016171  0  -0.08036  -0.168444  0  3.938185  0
C  C133  1  0.25963446  0.12830664  0.82776143  1  0.015946  0  -0.080253  -0.168107  0  3.937841  0
S  S134  1  0.31076068  0.41230058  0.32089509  1  3.177539  0  0.494173  1.164637  0  6.220701  0
S  S135  1  0.68924194  0.91229172  0.82089732  1  3.1776  0  0.494188  1.164591  0  6.220811  0
S  S136  1  0.37626869  0.00916425  0.41143664  1  3.168225  0  0.4921  1.181971  0  6.200574  0
S  S137  1  0.62372743  0.50915566  0.91144012  1  3.168638  0  0.492091  1.182141  0  6.200383  0
N  N138  1  0.07816335  0.59526625  0.56573888  1  -1.207997  0  -0.353045  -0.188652  0  3.623723  0
N  N139  1  0.92183575  0.09526439  0.06573610  1  -1.208014  0  -0.353096  -0.188807  0  3.623939  0
N  N140  1  0.45306068  0.59926757  0.56569195  1  -1.213325  0  -0.35673  -0.196356  0  3.66391  0
N  N141  1  0.54693583  0.09926721  0.06568701  1  -1.213212  0  -0.356673  -0.196256  0  3.663638  0
N  N142  1  0.73100780  0.25544873  0.32327233  1  0.243395  0  0.024364  0.509983  0  4.232201  0
N  N143  1  0.26899300  0.75544265  0.82327506  1  0.243463  0  0.024327  0.509849  0  4.23245  0
N  N144  1  0.59760899  0.80788501  0.15269953  1  -1.206756  0  -0.349156  -0.191787  0  3.601438  0
N  N145  1  0.40238632  0.30788655  0.65270608  1  -1.20703  0  -0.349163  -0.191793  0  3.601624  0
N  N146  1  0.22134616  0.81608643  0.14007850  1  -1.207694  0  -0.347616  -0.19721  0  3.608173  0
N  N147  1  0.77865291  0.31609661  0.64007874  1  -1.207494  0  -0.347495  -0.197042  0  3.607638  0
N  N148  1  0.55752337  0.71773526  0.37172094  1  -1.223388  0  -0.349955  -0.179947  0  3.611087  0
N  N149  1  0.44247734  0.21771742  0.87170766  1  -1.22438  0  -0.349846  -0.179457  0  3.610919  0
N  N150  1  0.18213682  0.72040028  0.36466034  1  -1.212448  0  -0.35308  -0.194589  0  3.656025  0
N  N151  1  0.81786400  0.22040041  0.86465999  1  -1.208983  0  -0.35309  -0.194615  0  3.655643  0
O  O152  1  0.22556692  0.37327210  0.24369921  1  -1.339324  0  -0.356922  -0.602084  0  2.15692  0
O  O153  1  0.77444226  0.87325683  0.74370307  1  -1.339334  0  -0.356963  -0.602099  0  2.156808  0
O  O154  1  0.25502227  0.43760672  0.41867538  1  -1.338879  0  -0.357868  -0.6074  0  2.298126  0
O  O155  1  0.74497870  0.93759912  0.91867733  1  -1.338928  0  -0.357843  -0.607413  0  2.298277  0
O  O156  1  0.38459997  0.50108495  0.29447184  1  -1.347238  0  -0.347458  -0.628041  0  2.326714  0
O  O157  1  0.61540791  0.00107364  0.79446744  1  -1.347297  0  -0.347409  -0.62794  0  2.32681  0
O  O158  1  0.24877890  0.02861545  0.42054753  1  -1.331205  0  -0.362278  -0.614847  0  2.135022  0
O  O159  1  0.75122088  0.52860627  0.92054780  1  -1.331102  0  -0.3623  -0.614897  0  2.134907  0
O  O160  1  0.43068146  0.98960499  0.50545687  1  -1.338342  0  -0.353937  -0.617964  0  2.18106  0
O  O161  1  0.56931665  0.48959548  0.00546032  1  -1.338563  0  -0.353877  -0.61797  0  2.181088  0
O  O162  1  0.40656523  0.92535968  0.32892363  1  -1.334015  0  -0.358531  -0.63467  0  2.361646  0
O  O163  1  0.59343392  0.42535153  0.82892484  1  -1.334352  0  -0.358566  -0.634775  0  2.36166  0
O  O164  1  0.76477720  0.35076032  0.31939603  1  -0.56318  0  -0.199106  -0.431436  0  1.934125  0
O  O165  1  0.23522914  0.85075394  0.81939825  1  -0.562991  0  -0.199184  -0.431519  0  1.934334  0
O  O166  1  0.80235987  0.17879431  0.31335568  1  -0.497428  0  -0.162209  -0.386688  0  1.984814  0
O  O167  1  0.19764191  0.67878843  0.81335897  1  -0.497646  0  -0.162131  -0.38654  0  1.984946  0
O  O168  1  0.63510681  0.06059501  0.38874715  1  -1.121192  0  -0.310721  -0.467253  0  2.175566  0
O  O169  1  0.36489721  0.56059783  0.88875301  1  -1.120806  0  -0.310792  -0.467247  0  2.176302  0
O  O170  1  0.37389763  0.58726613  0.11805476  1  -1.257562  0  -0.610178  -0.775458  0  2.008845  0
O  O171  1  0.62610170  0.08726943  0.61805544  1  -1.257687  0  -0.610135  -0.775402  0  2.008828  0
