# generated using pymatgen
data_ZnH17C15N2O7
_symmetry_space_group_name_H-M   'P 1'
_cell_length_a   9.01570747
_cell_length_b   9.76359417
_cell_length_c   10.61459995
_cell_angle_alpha   101.27652738
_cell_angle_beta   95.63975666
_cell_angle_gamma   113.34460667
_symmetry_Int_Tables_number   1
_chemical_formula_structural   ZnH17C15N2O7
_chemical_formula_sum   'Zn2 H34 C30 N4 O14'
_cell_volume   825.12442251
_cell_formula_units_Z   2
loop_
 _symmetry_equiv_pos_site_id
 _symmetry_equiv_pos_as_xyz
  1  'x, y, z'
loop_
 _atom_site_type_symbol
 _atom_site_label
 _atom_site_symmetry_multiplicity
 _atom_site_fract_x
 _atom_site_fract_y
 _atom_site_fract_z
 _atom_site_occupancy
 _atom_site_hle17_bader_spin_density
 _atom_site_hle17_ddec_charge
 _atom_site_hle17_ddec_spin_density
 _atom_site_hle17_ddec_sum_bond_order
 _atom_site_hle17_magmom
 _atom_site_hse06_10hf_bader_spin_density
 _atom_site_hse06_10hf_ddec_charge
 _atom_site_hse06_10hf_ddec_spin_density
 _atom_site_hse06_10hf_ddec_sum_bond_order
 _atom_site_hse06_10hf_magmom
 _atom_site_hse06_bader_spin_density
 _atom_site_hse06_ddec_charge
 _atom_site_hse06_ddec_spin_density
 _atom_site_hse06_ddec_sum_bond_order
 _atom_site_hse06_magmom
 _atom_site_pbe_bader_spin_density
 _atom_site_pbe_cm5_charge
 _atom_site_pbe_ddec_charge
 _atom_site_pbe_ddec_spin_density
 _atom_site_pbe_ddec_sum_bond_order
 _atom_site_pbe_magmom
Zn  Zn0  1  0.10269405  0.34810529  0.64351903  1  0  1.103357  0  1.794879  0  0  0.920161  0  2.26593  0  0  0.968272  0  2.208  0  0  0.69061  0.886576  0  2.305317  0
Zn  Zn1  1  0.89730877  0.65189192  0.35648002  1  0  1.103384  0  1.794891  0  0  0.920161  0  2.26596  0  0  0.968282  0  2.208033  0  0  0.690616  0.886569  0  2.305356  0
H  H2  1  0.36806655  0.70374936  0.97680704  1  0  0.093507  0  0.92113  0  0  0.103507  0  0.984445  0  0  0.105117  0  0.983162  0  0  0.108782  0.102109  0  0.986216  0
H  H3  1  0.63193204  0.29625349  0.02319266  1  0  0.093453  0  0.921128  0  0  0.103476  0  0.98447  0  0  0.105089  0  0.983187  0  0  0.108754  0.102074  0  0.98624  0
H  H4  1  0.15317065  0.60079222  0.97171947  1  0  0.106125  0  0.942597  0  0  0.115006  0  1.009502  0  0  0.117129  0  1.008003  0  0  0.115447  0.113847  0  1.009889  0
H  H5  1  0.84683126  0.39921305  0.02828466  1  0  0.106128  0  0.942476  0  0  0.115046  0  1.009376  0  0  0.117171  0  1.007877  0  0  0.115451  0.113886  0  1.009759  0
H  H6  1  0.18090874  0.50839723  0.11569396  1  0  0.126437  0  0.995668  0  0  0.135828  0  1.057637  0  0  0.139775  0  1.054876  0  0  0.103577  0.133025  0  1.059583  0
H  H7  1  0.81908293  0.49159985  0.88430894  1  0  0.126354  0  0.995756  0  0  0.135694  0  1.057783  0  0  0.139636  0  1.055036  0  0  0.103605  0.132889  0  1.059734  0
H  H8  1  0.13502766  0.31585179  0.24509648  1  0  0.1043  0  0.951533  0  0  0.113422  0  1.015423  0  0  0.117164  0  1.013037  0  0  0.102278  0.110788  0  1.01733  0
H  H9  1  0.86495973  0.68414061  0.75490436  1  0  0.104224  0  0.951589  0  0  0.113383  0  1.015438  0  0  0.117126  0  1.013062  0  0  0.102264  0.110745  0  1.017348  0
H  H10  1  0.28083756  0.04270312  0.95571412  1  0  0.121693  0  0.978097  0  0  0.129797  0  1.042634  0  0  0.134172  0  1.038932  0  0  0.102784  0.126742  0  1.045608  0
H  H11  1  0.71915388  0.95729614  0.04428348  1  0  0.121723  0  0.978131  0  0  0.129832  0  1.042656  0  0  0.134207  0  1.038955  0  0  0.102813  0.126779  0  1.04563  0
H  H12  1  0.32336333  0.23345419  0.82495092  1  0  0.108075  0  0.946764  0  0  0.119755  0  1.004205  0  0  0.123188  0  1.002542  0  0  0.103823  0.117551  0  1.005286  0
H  H13  1  0.67663033  0.76654749  0.17505197  1  0  0.108136  0  0.946735  0  0  0.119815  0  1.004151  0  0  0.123247  0  1.002489  0  0  0.103848  0.117614  0  1.005233  0
H  H14  1  0.29859181  0.93240228  0.13206449  1  0  0.081765  0  0.91622  0  0  0.094942  0  0.975538  0  0  0.096738  0  0.973746  0  0  0.108077  0.092606  0  0.978723  0
H  H15  1  0.70140904  0.06760064  0.86793633  1  0  0.081759  0  0.916221  0  0  0.094954  0  0.975522  0  0  0.096749  0  0.973733  0  0  0.108087  0.092621  0  0.978705  0
H  H16  1  0.09904802  0.86866683  0.03697988  1  0  0.093268  0  0.946803  0  0  0.102517  0  1.014792  0  0  0.102786  0  1.016846  0  0  0.111266  0.102295  0  1.013558  0
H  H17  1  0.90095154  0.13132803  0.96301853  1  0  0.093271  0  0.946781  0  0  0.102514  0  1.0148  0  0  0.102785  0  1.016849  0  0  0.111274  0.102294  0  1.013564  0
H  H18  1  0.49836943  0.52143367  0.74402054  1  0  0.108175  0  0.97349  0  0  0.114672  0  1.037952  0  0  0.116566  0  1.038363  0  0  0.115765  0.113328  0  1.037506  0
H  H19  1  0.50163301  0.47856251  0.25598490  1  0  0.108164  0  0.973608  0  0  0.114718  0  1.037988  0  0  0.116612  0  1.038397  0  0  0.115803  0.113371  0  1.037544  0
H  H20  1  0.70089637  0.41147022  0.61681066  1  0  0.127354  0  0.937123  0  0  0.140438  0  0.991742  0  0  0.143083  0  0.990512  0  0  0.129719  0.138649  0  0.992528  0
H  H21  1  0.29910545  0.58852709  0.38319493  1  0  0.127323  0  0.937095  0  0  0.14043  0  0.991685  0  0  0.143075  0  0.990455  0  0  0.129725  0.13864  0  0.992469  0
H  H22  1  0.20676851  0.14590259  0.41836744  1  0  0.110389  0  0.955772  0  0  0.113968  0  1.026616  0  0  0.117977  0  1.021466  0  0  0.136625  0.110751  0  1.030839  0
H  H23  1  0.79323807  0.85410600  0.58162630  1  0  0.110378  0  0.955674  0  0  0.113958  0  1.026522  0  0  0.11797  0  1.021367  0  0  0.136606  0.110747  0  1.030741  0
H  H24  1  0.65436832  0.21219734  0.41707727  1  0  0.08104  0  0.95788  0  0  0.09405  0  1.025177  0  0  0.09557  0  1.023702  0  0  0.110971  0.092933  0  1.026208  0
H  H25  1  0.34563844  0.78781142  0.58292594  1  0  0.081117  0  0.957852  0  0  0.094117  0  1.025154  0  0  0.095638  0  1.023668  0  0  0.110997  0.093  0  1.026179  0
H  H26  1  0.46960158  0.14549764  0.30135777  1  0  0.08038  0  0.934813  0  0  0.094083  0  0.997822  0  0  0.094545  0  0.998096  0  0  0.110952  0.093515  0  0.997647  0
H  H27  1  0.53041125  0.85451234  0.69864328  1  0  0.080373  0  0.934826  0  0  0.094059  0  0.997833  0  0  0.094518  0  0.998109  0  0  0.110919  0.093491  0  0.997658  0
H  H28  1  0.32919259  0.93892831  0.41341796  1  0  0.074071  0  0.956948  0  0  0.092589  0  1.018769  0  0  0.092939  0  1.019956  0  0  0.092944  0.092132  0  1.017957  0
H  H29  1  0.67081808  0.06107930  0.58658064  1  0  0.074087  0  0.957  0  0  0.092658  0  1.018773  0  0  0.093007  0  1.019962  0  0  0.092947  0.092198  0  1.017979  0
H  H30  1  0.50252290  0.92524293  0.35848231  1  0  0.078557  0  0.923418  0  0  0.101136  0  0.974387  0  0  0.101522  0  0.975649  0  0  0.097868  0.10068  0  0.973668  0
H  H31  1  0.49748714  0.07476581  0.64151644  1  0  0.078567  0  0.923457  0  0  0.101146  0  0.974439  0  0  0.101534  0  0.975699  0  0  0.097855  0.100689  0  0.973725  0
H  H32  1  0.92075489  0.34782490  0.40892782  1  0  0.433713  0  0.872963  0  0  0.398645  0  0.941943  0  0  0.410741  0  0.924502  0  0  0.291835  0.389896  0  0.954608  0
H  H33  1  0.07925188  0.65217121  0.59106946  1  0  0.433718  0  0.872961  0  0  0.398601  0  0.942027  0  0  0.410698  0  0.924582  0  0  0.291756  0.389854  0  0.95469  0
H  H34  1  0.91773637  0.18344050  0.39857103  1  0  0.441621  0  0.797559  0  0  0.425019  0  0.847924  0  0  0.433731  0  0.837729  0  0  0.329707  0.41846  0  0.855794  0
H  H35  1  0.08226940  0.81655330  0.60142578  1  0  0.441606  0  0.797585  0  0  0.425019  0  0.847913  0  0  0.433728  0  0.837725  0  0  0.329721  0.418457  0  0.855784  0
C  C36  1  0.20723463  0.66958620  0.79832856  1  0  0.674307  0  3.8491  0  0  0.623641  0  4.153469  0  0  0.655964  0  4.14715  0  0  0.212404  0.601774  0  4.156519  0
C  C37  1  0.79276083  0.33041202  0.20167010  1  0  0.673995  0  3.849427  0  0  0.623503  0  4.153576  0  0  0.655822  0  4.147264  0  0  0.212348  0.601632  0  4.156628  0
C  C38  1  0.25160559  0.61442637  0.91476085  1  0  -0.07498  0  3.626047  0  0  -0.13225  0  3.884171  0  0  -0.129188  0  3.884731  0  0  -0.067971  -0.134692  0  3.88381  0
C  C39  1  0.74839095  0.38557422  0.08524208  1  0  -0.074802  0  3.625936  0  0  -0.132252  0  3.884159  0  0  -0.129192  0  3.88473  0  0  -0.067933  -0.134684  0  3.883795  0
C  C40  1  0.25341463  0.38142327  0.95979281  1  0  0.244552  0  3.796617  0  0  0.234894  0  4.057637  0  0  0.242717  0  4.076072  0  0  0.066331  0.229536  0  4.044776  0
C  C41  1  0.74657916  0.61857614  0.04021065  1  0  0.244728  0  3.796492  0  0  0.235007  0  4.057536  0  0  0.242836  0  4.075964  0  0  0.066418  0.229658  0  4.044672  0
C  C42  1  0.20316960  0.40734071  0.07931999  1  0  -0.188611  0  3.758398  0  0  -0.208149  0  4.008606  0  0  -0.211588  0  4.028515  0  0  -0.111392  -0.205592  0  3.994601  0
C  C43  1  0.79681988  0.59265399  0.92067951  1  0  -0.188484  0  3.758127  0  0  -0.207964  0  4.008367  0  0  -0.211398  0  4.028272  0  0  -0.111423  -0.205399  0  3.994353  0
C  C44  1  0.17831238  0.29959538  0.15340999  1  0  -0.157771  0  3.772977  0  0  -0.178208  0  4.031722  0  0  -0.181093  0  4.04986  0  0  -0.10684  -0.176428  0  4.019526  0
C  C45  1  0.82167435  0.70039812  0.84658910  1  0  -0.157746  0  3.772901  0  0  -0.17821  0  4.031604  0  0  -0.181106  0  4.049753  0  0  -0.106851  -0.176427  0  4.019398  0
C  C46  1  0.20495509  0.16791356  0.11034212  1  0  0.237627  0  3.831312  0  0  0.226034  0  4.098319  0  0  0.235407  0  4.115227  0  0  0.066326  0.219672  0  4.086676  0
C  C47  1  0.79503325  0.83208110  0.88965634  1  0  0.237622  0  3.831486  0  0  0.226074  0  4.098432  0  0  0.235449  0  4.11534  0  0  0.0663  0.21972  0  4.086781  0
C  C48  1  0.26084756  0.14498659  0.99278821  1  0  -0.186583  0  3.762394  0  0  -0.204921  0  4.013566  0  0  -0.208212  0  4.031526  0  0  -0.111963  -0.202883  0  4.001239  0
C  C49  1  0.73914339  0.85501154  0.00721010  1  0  -0.186689  0  3.762539  0  0  -0.205066  0  4.013705  0  0  -0.208355  0  4.031663  0  0  -0.112013  -0.203027  0  4.001381  0
C  C50  1  0.28479375  0.25233151  0.91839782  1  0  -0.141192  0  3.760442  0  0  -0.163507  0  4.016356  0  0  -0.165019  0  4.033924  0  0  -0.103918  -0.162448  0  4.004136  0
C  C51  1  0.71519945  0.74766905  0.08160674  1  0  -0.141324  0  3.760431  0  0  -0.163605  0  4.016337  0  0  -0.165115  0  4.0339  0  0  -0.10395  -0.162554  0  4.004125  0
C  C52  1  0.17290441  0.92145053  0.13731401  1  0  -0.066593  0  3.645609  0  0  -0.121096  0  3.904833  0  0  -0.118787  0  3.907893  0  0  -0.066702  -0.122714  0  3.903196  0
C  C53  1  0.82709504  0.07854661  0.86268477  1  0  -0.066468  0  3.645573  0  0  -0.121026  0  3.904808  0  0  -0.118712  0  3.907865  0  0  -0.066676  -0.122647  0  3.903179  0
C  C54  1  0.46788145  0.42922757  0.65692908  1  0  0.001805  0  3.761183  0  0  -0.037084  0  4.038777  0  0  -0.035472  0  4.060035  0  0  -0.005935  -0.038213  0  4.02429  0
C  C55  1  0.53211867  0.57076849  0.34307240  1  0  0.001796  0  3.761214  0  0  -0.037137  0  4.038799  0  0  -0.035528  0  4.060059  0  0  -0.005962  -0.038263  0  4.024312  0
C  C56  1  0.56930329  0.37683379  0.59518432  1  0  -0.057068  0  3.659458  0  0  -0.098908  0  3.920953  0  0  -0.097972  0  3.941016  0  0  0.005746  -0.099128  0  3.906827  0
C  C57  1  0.43070276  0.62316815  0.40482049  1  0  -0.056999  0  3.659451  0  0  -0.098854  0  3.920974  0  0  -0.097919  0  3.941038  0  0  0.005749  -0.099066  0  3.906838  0
C  C58  1  0.31104309  0.23489921  0.49077546  1  0  0.164742  0  3.634832  0  0  0.104238  0  3.90001  0  0  0.117892  0  3.912223  0  0  0.142289  0.095061  0  3.891645  0
C  C59  1  0.68896094  0.76510598  0.50922223  1  0  0.164764  0  3.634854  0  0  0.104262  0  3.900024  0  0  0.117917  0  3.912238  0  0  0.142284  0.095081  0  3.891664  0
C  C60  1  0.51998343  0.15457938  0.40246915  1  0  -0.004953  0  3.621998  0  0  -0.065475  0  3.878704  0  0  -0.061152  0  3.889239  0  0  -0.055518  -0.068232  0  3.870796  0
C  C61  1  0.48002736  0.84542595  0.59752907  1  0  -0.005001  0  3.621943  0  0  -0.065467  0  3.8786  0  0  -0.061131  0  3.889119  0  0  -0.0555  -0.068221  0  3.870689  0
C  C62  1  0.46443007  0.99605202  0.43038137  1  0  -0.12794  0  3.680282  0  0  -0.1707  0  3.942035  0  0  -0.172241  0  3.956493  0  0  -0.164832  -0.16922  0  3.931384  0
C  C63  1  0.53557718  0.00395549  0.56961507  1  0  -0.128072  0  3.6804  0  0  -0.170908  0  3.942172  0  0  -0.172452  0  3.956625  0  0  -0.16489  -0.169443  0  3.931543  0
C  C64  1  0.09773497  0.81042218  0.21948836  1  0  0.649159  0  3.926461  0  0  0.598995  0  4.233156  0  0  0.631631  0  4.226855  0  0  0.193552  0.576962  0  4.236584  0
C  C65  1  0.90226513  0.18957387  0.78051217  1  0  0.649033  0  3.92656  0  0  0.598952  0  4.233142  0  0  0.631589  0  4.22684  0  0  0.193561  0.576922  0  4.236571  0
N  N66  1  0.30727250  0.33949647  0.59089207  1  0  -0.417065  0  3.354823  0  0  -0.337222  0  3.660021  0  0  -0.358424  0  3.673678  0  0  -0.366668  -0.323681  0  3.650641  0
N  N67  1  0.69273109  0.66050762  0.40910821  1  0  -0.417097  0  3.35482  0  0  -0.337257  0  3.660038  0  0  -0.358464  0  3.673701  0  0  -0.366664  -0.323719  0  3.650668  0
N  N68  1  0.46842903  0.25504168  0.49042138  1  0  -0.054042  0  3.568382  0  0  0.040486  0  3.785472  0  0  0.02601  0  3.812274  0  0  -0.241081  0.050283  0  3.766072  0
N  N69  1  0.53157729  0.74496359  0.50957838  1  0  -0.054089  0  3.568629  0  0  0.040417  0  3.78574  0  0  0.025939  0  3.812538  0  0  -0.241101  0.050214  0  3.76634  0
O  O70  1  0.13897201  0.56839861  0.68453663  1  0  -0.676699  0  2.093221  0  0  -0.588728  0  2.353039  0  0  -0.619191  0  2.336413  0  0  -0.326402  -0.567425  0  2.363828  0
O  O71  1  0.86102581  0.43159736  0.31546183  1  0  -0.676559  0  2.093326  0  0  -0.588662  0  2.353055  0  0  -0.619119  0  2.336429  0  0  -0.326389  -0.567352  0  2.363844  0
O  O72  1  0.23163652  0.80686466  0.81638078  1  0  -0.593981  0  1.884661  0  0  -0.555598  0  2.104061  0  0  -0.578597  0  2.09667  0  0  -0.317146  -0.539529  0  2.10913  0
O  O73  1  0.76835616  0.19313234  0.18361652  1  0  -0.593876  0  1.884791  0  0  -0.555527  0  2.104086  0  0  -0.578529  0  2.0967  0  0  -0.317104  -0.539455  0  2.109157  0
O  O74  1  0.94788122  0.28154565  0.46186866  1  0  -0.839845  0  1.892105  0  0  -0.776924  0  2.112329  0  0  -0.796796  0  2.077082  0  0  -0.572916  -0.762849  0  2.137413  0
O  O75  1  0.05213438  0.71845286  0.53812687  1  0  -0.839833  0  1.892089  0  0  -0.776894  0  2.112375  0  0  -0.796769  0  2.07713  0  0  -0.57287  -0.762819  0  2.137455  0
O  O76  1  0.26687350  0.47302660  0.87260269  1  0  -0.30487  0  2.413491  0  0  -0.222814  0  2.649931  0  0  -0.240867  0  2.652924  0  0  -0.182626  -0.209523  0  2.647443  0
O  O77  1  0.73312416  0.52697401  0.12740032  1  0  -0.30494  0  2.413622  0  0  -0.222828  0  2.650107  0  0  -0.24089  0  2.65311  0  0  -0.182646  -0.209551  0  2.647629  0
O  O78  1  0.17274189  0.06738079  0.18922591  1  0  -0.271934  0  2.374009  0  0  -0.206129  0  2.615384  0  0  -0.222598  0  2.618196  0  0  -0.186632  -0.193647  0  2.612863  0
O  O79  1  0.82724873  0.93261395  0.81077462  1  0  -0.272014  0  2.374301  0  0  -0.206209  0  2.615664  0  0  -0.222682  0  2.618478  0  0  -0.186655  -0.193741  0  2.613156  0
O  O80  1  0.01939531  0.84721652  0.30588614  1  0  -0.652071  0  2.011528  0  0  -0.584763  0  2.276002  0  0  -0.613284  0  2.262371  0  0  -0.337033  -0.565164  0  2.284824  0
O  O81  1  0.98060474  0.15277947  0.69411155  1  0  -0.652037  0  2.011587  0  0  -0.584785  0  2.276059  0  0  -0.613307  0  2.262431  0  0  -0.337042  -0.565187  0  2.284878  0
O  O82  1  0.11105662  0.68536564  0.19603841  1  0  -0.629757  0  1.943703  0  0  -0.585245  0  2.183802  0  0  -0.610053  0  2.175897  0  0  -0.324056  -0.567702  0  2.188156  0
O  O83  1  0.88894562  0.31463274  0.80396269  1  0  -0.629734  0  1.943722  0  0  -0.58525  0  2.183787  0  0  -0.610057  0  2.175887  0  0  -0.324079  -0.56769  0  2.188105  0
