# generated using pymatgen
data_CdH13C18(NO)4
_symmetry_space_group_name_H-M   'P 1'
_cell_length_a   9.84599228
_cell_length_b   10.39906646
_cell_length_c   10.70127577
_cell_angle_alpha   61.28347408
_cell_angle_beta   65.06612579
_cell_angle_gamma   76.37437431
_symmetry_Int_Tables_number   1
_chemical_formula_structural   CdH13C18(NO)4
_chemical_formula_sum   'Cd2 H26 C36 N8 O8'
_cell_volume   870.61699546
_cell_formula_units_Z   2
loop_
 _symmetry_equiv_pos_site_id
 _symmetry_equiv_pos_as_xyz
  1  'x, y, z'
loop_
 _atom_site_type_symbol
 _atom_site_label
 _atom_site_symmetry_multiplicity
 _atom_site_fract_x
 _atom_site_fract_y
 _atom_site_fract_z
 _atom_site_occupancy
 _atom_site_hle17_bader_spin_density
 _atom_site_hle17_ddec_charge
 _atom_site_hle17_ddec_spin_density
 _atom_site_hle17_ddec_sum_bond_order
 _atom_site_hle17_magmom
 _atom_site_hse06_10hf_bader_spin_density
 _atom_site_hse06_10hf_ddec_charge
 _atom_site_hse06_10hf_ddec_spin_density
 _atom_site_hse06_10hf_ddec_sum_bond_order
 _atom_site_hse06_10hf_magmom
 _atom_site_hse06_bader_spin_density
 _atom_site_hse06_ddec_charge
 _atom_site_hse06_ddec_spin_density
 _atom_site_hse06_ddec_sum_bond_order
 _atom_site_hse06_magmom
 _atom_site_pbe_bader_spin_density
 _atom_site_pbe_cm5_charge
 _atom_site_pbe_ddec_charge
 _atom_site_pbe_ddec_spin_density
 _atom_site_pbe_ddec_sum_bond_order
 _atom_site_pbe_magmom
Cd  Cd0  1  0.61404378  0.99389295  0.63179932  1  0  1.130508  0  1.666471  0  0  0.937281  0  2.108799  0  0  0.993946  0  2.059081  0  0  0.780407  0.897384  0  2.142519  0
Cd  Cd1  1  0.38595716  0.00610632  0.36819949  1  0  1.130486  0  1.666475  0  0  0.937255  0  2.108796  0  0  0.993923  0  2.059082  0  0  0.780397  0.897357  0  2.14252  0
H  H2  1  0.97290329  0.92003235  0.83128183  1  0  0.12009  0  0.947724  0  0  0.12808  0  1.015108  0  0  0.131977  0  1.01235  0  0  0.111109  0.125277  0  1.017401  0
H  H3  1  0.02709198  0.07996921  0.16871995  1  0  0.120095  0  0.947753  0  0  0.128088  0  1.01513  0  0  0.131984  0  1.012372  0  0  0.111131  0.125286  0  1.017423  0
H  H4  1  0.10254395  0.56772214  0.19601922  1  0  0.124789  0  0.938392  0  0  0.136691  0  0.996322  0  0  0.140517  0  0.993281  0  0  0.117233  0.134205  0  0.998166  0
H  H5  1  0.89745468  0.43227938  0.80398129  1  0  0.124769  0  0.938395  0  0  0.136671  0  0.996328  0  0  0.140498  0  0.993287  0  0  0.117223  0.134184  0  0.998172  0
H  H6  1  0.72994449  0.52524035  0.10449579  1  0  0.122317  0  0.94019  0  0  0.132427  0  1.000351  0  0  0.136217  0  0.997727  0  0  0.113995  0.129836  0  1.001964  0
H  H7  1  0.27005531  0.47475896  0.89550531  1  0  0.122298  0  0.940205  0  0  0.132413  0  1.000361  0  0  0.136203  0  0.997738  0  0  0.113984  0.129821  0  1.001975  0
H  H8  1  0.14396308  0.83030922  0.17967176  1  0  0.121352  0  0.942336  0  0  0.132904  0  1.000277  0  0  0.135838  0  0.998664  0  0  0.127649  0.130708  0  1.00159  0
H  H9  1  0.85603673  0.16969008  0.82032841  1  0  0.121348  0  0.942306  0  0  0.132902  0  1.000244  0  0  0.135835  0  0.998633  0  0  0.127648  0.130705  0  1.001558  0
H  H10  1  0.40498091  0.98061595  0.99923701  1  0  0.102951  0  0.973222  0  0  0.112899  0  1.034208  0  0  0.115507  0  1.032571  0  0  0.116218  0.111051  0  1.035301  0
H  H11  1  0.59502126  0.01937893  0.00076527  1  0  0.102967  0  0.973196  0  0  0.11291  0  1.034183  0  0  0.115517  0  1.032547  0  0  0.116212  0.11106  0  1.03528  0
H  H12  1  0.27912588  0.87495546  0.72881425  1  0  0.101128  0  0.964354  0  0  0.105804  0  1.037529  0  0  0.108381  0  1.034271  0  0  0.134631  0.104154  0  1.039434  0
H  H13  1  0.72087393  0.12504385  0.27118685  1  0  0.101151  0  0.964397  0  0  0.105843  0  1.037547  0  0  0.108422  0  1.034285  0  0  0.134641  0.104195  0  1.03945  0
H  H14  1  0.09481416  0.33912130  0.33518021  1  0  0.127831  0  0.969337  0  0  0.136458  0  1.02988  0  0  0.139448  0  1.028299  0  0  0.123896  0.134397  0  1.031004  0
H  H15  1  0.90518558  0.66088021  0.66482080  1  0  0.127837  0  0.969332  0  0  0.136455  0  1.02989  0  0  0.139445  0  1.028309  0  0  0.123892  0.134394  0  1.031014  0
H  H16  1  0.95099375  0.08716965  0.56761804  1  0  0.114927  0  0.956259  0  0  0.122396  0  1.019859  0  0  0.125561  0  1.017587  0  0  0.118372  0.119806  0  1.022114  0
H  H17  1  0.04900710  0.91283186  0.43238442  1  0  0.114925  0  0.956241  0  0  0.122412  0  1.019817  0  0  0.125581  0  1.017545  0  0  0.118383  0.119824  0  1.022071  0
H  H18  1  0.65956074  0.35023677  0.33472114  1  0  0.101502  0  0.967796  0  0  0.107641  0  1.035402  0  0  0.109935  0  1.033083  0  0  0.133723  0.105674  0  1.037328  0
H  H19  1  0.34044022  0.64976142  0.66527911  1  0  0.101496  0  0.967793  0  0  0.107634  0  1.035403  0  0  0.109927  0  1.033084  0  0  0.133717  0.105667  0  1.03733  0
H  H20  1  0.63153739  0.43250833  0.67804539  1  0  0.093751  0  0.93611  0  0  0.108384  0  0.989008  0  0  0.11133  0  0.988092  0  0  0.100598  0.106132  0  0.989843  0
H  H21  1  0.36846467  0.56749092  0.32195207  1  0  0.093764  0  0.936114  0  0  0.108383  0  0.989028  0  0  0.111329  0  0.988112  0  0  0.100589  0.106138  0  0.989856  0
H  H22  1  0.55822370  0.72926819  0.25911822  1  0  0.091043  0  0.948522  0  0  0.105031  0  1.006155  0  0  0.10744  0  1.005814  0  0  0.098846  0.10319  0  1.006669  0
H  H23  1  0.44177720  0.27073218  0.74088008  1  0  0.091053  0  0.948524  0  0  0.10504  0  1.006159  0  0  0.107449  0  1.005817  0  0  0.098846  0.103203  0  1.006666  0
H  H24  1  0.77275270  0.75723328  0.30092929  1  0  0.112346  0  0.93384  0  0  0.125721  0  0.99616  0  0  0.127541  0  0.996851  0  0  0.100891  0.12428  0  0.996139  0
H  H25  1  0.22724936  0.24276598  0.69906910  1  0  0.112309  0  0.933837  0  0  0.125691  0  0.996163  0  0  0.127522  0  0.996842  0  0  0.100881  0.124249  0  0.99614  0
H  H26  1  0.81736039  0.62818531  0.46177456  1  0  0.106549  0  0.923891  0  0  0.120794  0  0.983188  0  0  0.123652  0  0.981397  0  0  0.098895  0.119373  0  0.983455  0
H  H27  1  0.18264278  0.37181393  0.53822341  1  0  0.10655  0  0.923881  0  0  0.120801  0  0.983186  0  0  0.12366  0  0.981395  0  0  0.098914  0.119379  0  0.983452  0
C  C28  1  0.84024451  0.72820101  0.96204839  1  0  -0.015043  0  3.748588  0  0  0.009943  0  3.983533  0  0  0.005458  0  4.004492  0  0  -0.010901  0.012669  0  3.969093  0
C  C29  1  0.15975301  0.27179943  0.03795398  1  0  -0.015056  0  3.748647  0  0  0.009932  0  3.983594  0  0  0.005447  0  4.004553  0  0  -0.010894  0.012657  0  3.969154  0
C  C30  1  0.95637666  0.81063730  0.92526135  1  0  -0.159969  0  3.714065  0  0  -0.199596  0  3.975762  0  0  -0.20172  0  3.995105  0  0  -0.088375  -0.198767  0  3.96334  0
C  C31  1  0.04362198  0.18936313  0.07474060  1  0  -0.16  0  3.714097  0  0  -0.199627  0  3.975783  0  0  -0.201748  0  3.995123  0  0  -0.088395  -0.198807  0  3.963381  0
C  C32  1  0.04982155  0.75041343  0.00957104  1  0  0.188248  0  3.804406  0  0  0.181907  0  4.058403  0  0  0.186792  0  4.080815  0  0  0.093737  0.17831  0  4.043961  0
C  C33  1  0.95017711  0.24958699  0.99042998  1  0  0.188324  0  3.804335  0  0  0.181986  0  4.058327  0  0  0.186871  0  4.080742  0  0  0.093755  0.178389  0  4.043886  0
C  C34  1  0.02673566  0.61203933  0.13333656  1  0  -0.212098  0  3.685501  0  0  -0.24495  0  3.944026  0  0  -0.248136  0  3.960192  0  0  -0.083505  -0.242553  0  3.933229  0
C  C35  1  0.97326296  0.38796219  0.86666395  1  0  -0.212083  0  3.685478  0  0  -0.244936  0  3.944001  0  0  -0.248124  0  3.960168  0  0  -0.083492  -0.242536  0  3.933203  0
C  C36  1  0.90916427  0.53138662  0.17032891  1  0  0.203329  0  3.782429  0  0  0.198767  0  4.030389  0  0  0.204505  0  4.052849  0  0  0.102896  0.194605  0  4.014875  0
C  C37  1  0.09083439  0.46861380  0.82967211  1  0  0.203323  0  3.782399  0  0  0.198769  0  4.030352  0  0  0.204509  0  4.052813  0  0  0.102888  0.194607  0  4.014837  0
C  C38  1  0.81818341  0.58794235  0.08279459  1  0  -0.161321  0  3.704243  0  0  -0.196668  0  3.95919  0  0  -0.199603  0  3.979132  0  0  -0.081908  -0.193194  0  3.943923  0
C  C39  1  0.18181637  0.41205804  0.91720414  1  0  -0.161291  0  3.704235  0  0  -0.196644  0  3.959183  0  0  -0.199578  0  3.979117  0  0  -0.081882  -0.193169  0  3.943914  0
C  C40  1  0.74033061  0.78933659  0.86885236  1  0  0.617908  0  3.97693  0  0  0.571752  0  4.269851  0  0  0.604695  0  4.264775  0  0  0.185763  0.549426  0  4.272538  0
C  C41  1  0.25966811  0.21066163  0.13114967  1  0  0.617928  0  3.976941  0  0  0.57177  0  4.26986  0  0  0.604712  0  4.264786  0  0  0.185748  0.549445  0  4.272548  0
C  C42  1  0.21290398  0.86009276  0.06050204  1  0  -0.05702  0  3.65289  0  0  -0.097519  0  3.909981  0  0  -0.096174  0  3.927633  0  0  0.003797  -0.098231  0  3.898043  0
C  C43  1  0.78709470  0.13990657  0.93950041  1  0  -0.057011  0  3.652849  0  0  -0.097508  0  3.909938  0  0  -0.096162  0  3.927592  0  0  0.003775  -0.098219  0  3.898001  0
C  C44  1  0.34289753  0.93469852  0.96848519  1  0  0.025295  0  3.737396  0  0  -0.012346  0  4.006641  0  0  -0.009421  0  4.026337  0  0  0.002117  -0.014304  0  3.993629  0
C  C45  1  0.65710111  0.06530191  0.03151676  1  0  0.025293  0  3.73739  0  0  -0.012343  0  4.006638  0  0  -0.009419  0  4.026336  0  0  0.002138  -0.014304  0  3.993627  0
C  C46  1  0.28004375  0.88595155  0.82401271  1  0  0.192116  0  3.622276  0  0  0.131852  0  3.881533  0  0  0.147071  0  3.89313  0  0  0.149137  0.121166  0  3.873858  0
C  C47  1  0.71995602  0.11404887  0.17598882  1  0  0.192127  0  3.622344  0  0  0.131867  0  3.881563  0  0  0.147087  0  3.893158  0  0  0.149174  0.121181  0  3.873888  0
C  C48  1  0.98223200  0.30763736  0.37235140  1  0  -0.065348  0  3.660148  0  0  -0.107977  0  3.922922  0  0  -0.107347  0  3.942333  0  0  -0.002892  -0.108796  0  3.9102  0
C  C49  1  0.01776771  0.69236524  0.62764911  1  0  -0.065376  0  3.66018  0  0  -0.108004  0  3.922957  0  0  -0.107373  0  3.942369  0  0  -0.002892  -0.108822  0  3.910235  0
C  C50  1  0.91130911  0.18095666  0.48497099  1  0  0.020376  0  3.728163  0  0  -0.013865  0  3.99472  0  0  -0.011165  0  4.014044  0  0  0.000658  -0.015401  0  3.981725  0
C  C51  1  0.08869062  0.81904486  0.51503096  1  0  0.020372  0  3.728182  0  0  -0.013873  0  3.994726  0  0  -0.01118  0  4.014055  0  0  0.000635  -0.01541  0  3.981732  0
C  C52  1  0.75883954  0.31211498  0.36456315  1  0  0.167928  0  3.662409  0  0  0.107321  0  3.930394  0  0  0.120932  0  3.944938  0  0  0.142416  0.098879  0  3.919658  0
C  C53  1  0.24116135  0.68788542  0.63543795  1  0  0.167921  0  3.662378  0  0  0.107318  0  3.930368  0  0  0.120927  0  3.944913  0  0  0.142435  0.098872  0  3.919636  0
C  C54  1  0.60904719  0.59297700  0.46344054  1  0  0.109556  0  3.767282  0  0  0.12651  0  4.008844  0  0  0.127631  0  4.032483  0  0  -0.01703  0.125831  0  3.992527  0
C  C55  1  0.39095368  0.40702447  0.53655726  1  0  0.109556  0  3.767303  0  0  0.126499  0  4.008896  0  0  0.127619  0  4.032537  0  0  -0.017005  0.125821  0  3.992579  0
C  C56  1  0.57422539  0.46294948  0.59909180  1  0  -0.115678  0  3.739762  0  0  -0.135082  0  3.987955  0  0  -0.137286  0  4.008116  0  0  -0.094474  -0.133343  0  3.974161  0
C  C57  1  0.42577552  0.53705089  0.40090651  1  0  -0.115781  0  3.739847  0  0  -0.135175  0  3.988055  0  0  -0.137379  0  4.008215  0  0  -0.094519  -0.133441  0  3.974258  0
C  C58  1  0.53300801  0.62843573  0.36517012  1  0  -0.124056  0  3.76308  0  0  -0.145389  0  4.019082  0  0  -0.148041  0  4.040609  0  0  -0.095683  -0.14367  0  4.004037  0
C  C59  1  0.46699290  0.37156464  0.63482819  1  0  -0.124137  0  3.763141  0  0  -0.145472  0  4.019173  0  0  -0.148125  0  4.040699  0  0  -0.095723  -0.143757  0  4.004124  0
C  C60  1  0.72364019  0.69204654  0.42546003  1  0  -0.306386  0  3.710445  0  0  -0.348786  0  3.956534  0  0  -0.354857  0  3.964196  0  0  -0.162932  -0.344611  0  3.951113  0
C  C61  1  0.27636299  0.30795270  0.57453794  1  0  -0.306274  0  3.710355  0  0  -0.348713  0  3.956498  0  0  -0.354792  0  3.964158  0  0  -0.16293  -0.344537  0  3.951075  0
C  C62  1  0.66513505  0.80274081  0.49420249  1  0  0.698036  0  3.864129  0  0  0.65109  0  4.160415  0  0  0.684815  0  4.154546  0  0  0.198063  0.627994  0  4.163807  0
C  C63  1  0.33486923  0.19725951  0.50579362  1  0  0.697986  0  3.864163  0  0  0.651049  0  4.160434  0  0  0.684774  0  4.154569  0  0  0.198054  0.627953  0  4.163827  0
N  N64  1  0.38382464  0.94955494  0.82187062  1  0  -0.393064  0  3.261099  0  0  -0.31223  0  3.542377  0  0  -0.33464  0  3.559488  0  0  -0.356016  -0.297455  0  3.531475  0
N  N65  1  0.61617634  0.05044216  0.17813108  1  0  -0.393128  0  3.261156  0  0  -0.312301  0  3.542431  0  0  -0.334712  0  3.559543  0  0  -0.356076  -0.297527  0  3.531533  0
N  N66  1  0.17399291  0.83004622  0.96695401  1  0  -0.095  0  3.599381  0  0  -0.002787  0  3.807344  0  0  -0.017575  0  3.832442  0  0  -0.224995  0.007183  0  3.790555  0
N  N67  1  0.82600686  0.16995419  0.03304751  1  0  -0.09503  0  3.599356  0  0  -0.002831  0  3.807333  0  0  -0.017619  0  3.832431  0  0  -0.224998  0.00714  0  3.790546  0
N  N68  1  0.77256544  0.18539526  0.47882151  1  0  -0.3862  0  3.26174  0  0  -0.306496  0  3.539923  0  0  -0.328168  0  3.557849  0  0  -0.355764  -0.291319  0  3.526202  0
N  N69  1  0.22743436  0.81460405  0.52118052  1  0  -0.386174  0  3.261742  0  0  -0.306478  0  3.539933  0  0  -0.32815  0  3.557862  0  0  -0.355767  -0.291302  0  3.526215  0
N  N70  1  0.88457960  0.39061631  0.29572927  1  0  -0.096875  0  3.59764  0  0  -0.006343  0  3.805276  0  0  -0.022522  0  3.833281  0  0  -0.224884  0.004322  0  3.786786  0
N  N71  1  0.11542017  0.60938410  0.70427225  1  0  -0.096858  0  3.597619  0  0  -0.006322  0  3.805253  0  0  -0.022501  0  3.833257  0  0  -0.224879  0.004344  0  3.786763  0
O  O72  1  0.73615593  0.93053818  0.79503122  1  0  -0.667298  0  1.992383  0  0  -0.598583  0  2.242233  0  0  -0.629317  0  2.234046  0  0  -0.345869  -0.577215  0  2.246966  0
O  O73  1  0.26384055  0.06946007  0.20497072  1  0  -0.667317  0  1.992353  0  0  -0.598603  0  2.242202  0  0  -0.629336  0  2.23402  0  0  -0.345874  -0.577232  0  2.246936  0
O  O74  1  0.67230365  0.70262588  0.86746764  1  0  -0.612964  0  1.857836  0  0  -0.571812  0  2.061712  0  0  -0.594193  0  2.054069  0  0  -0.344729  -0.556357  0  2.066757  0
O  O75  1  0.32769622  0.29737123  0.13253355  1  0  -0.612931  0  1.857857  0  0  -0.571782  0  2.061736  0  0  -0.594163  0  2.054098  0  0  -0.344695  -0.556326  0  2.06678  0
O  O76  1  0.76379011  0.86459190  0.49247359  1  0  -0.641775  0  1.966313  0  0  -0.576623  0  2.213437  0  0  -0.605766  0  2.204711  0  0  -0.332297  -0.556315  0  2.219163  0
O  O77  1  0.23621180  0.13541283  0.50752133  1  0  -0.641761  0  1.966273  0  0  -0.576596  0  2.213364  0  0  -0.605739  0  2.20464  0  0  -0.332279  -0.556288  0  2.219092  0
O  O78  1  0.52513980  0.83076021  0.54723645  1  0  -0.683705  0  2.002537  0  0  -0.614531  0  2.252641  0  0  -0.643193  0  2.242748  0  0  -0.332758  -0.594247  0  2.259087  0
O  O79  1  0.47486451  0.16923794  0.45276347  1  0  -0.683747  0  2.002636  0  0  -0.614549  0  2.252715  0  0  -0.643212  0  2.24282  0  0  -0.332796  -0.594267  0  2.259164  0
