# generated using pymatgen
data_Mn3CrH21C15(N2O)6
_symmetry_space_group_name_H-M   'P 1'
_cell_length_a   7.74697828
_cell_length_b   13.18397780
_cell_length_c   13.17380193
_cell_angle_alpha   120.01449930
_cell_angle_beta   90.01298339
_cell_angle_gamma   90.01162776
_symmetry_Int_Tables_number   1
_chemical_formula_structural   Mn3CrH21C15(N2O)6
_chemical_formula_sum   'Mn6 Cr2 H42 C30 N24 O12'
_cell_volume   1165.08349955
_cell_formula_units_Z   2
loop_
 _symmetry_equiv_pos_site_id
 _symmetry_equiv_pos_as_xyz
  1  'x, y, z'
loop_
 _atom_site_type_symbol
 _atom_site_label
 _atom_site_symmetry_multiplicity
 _atom_site_fract_x
 _atom_site_fract_y
 _atom_site_fract_z
 _atom_site_occupancy
 _atom_site_pbe_bader_charge
 _atom_site_pbe_bader_spin_density
 _atom_site_pbe_cm5_charge
 _atom_site_pbe_ddec_charge
 _atom_site_pbe_ddec_spin_density
 _atom_site_pbe_ddec_sum_bond_order
 _atom_site_pbe_magmom
Mn  Mn0  1  0.44480158  0.96663649  0.65719028  1  1.590116  4.051897  0.731518  0.980183  4.182636  2.754424  4.015
Mn  Mn1  1  0.44542116  0.69099777  0.03324297  1  1.58782  4.065326  0.728553  0.978162  4.19658  2.742846  4.028
Mn  Mn2  1  0.44588211  0.34259917  0.30896486  1  1.587248  4.06083  0.729994  0.978425  4.191016  2.748064  4.023
Mn  Mn3  1  0.94448548  0.03273196  0.34198070  1  1.584524  4.073766  0.726696  0.976093  4.204465  2.738351  4.035
Mn  Mn4  1  0.94436605  0.30914323  0.96680450  1  1.58526  4.076694  0.726256  0.975621  4.208978  2.736831  4.038
Mn  Mn5  1  0.94646512  0.65788568  0.69158339  1  1.584054  4.077772  0.725947  0.976085  4.207371  2.735863  4.039
Cr  Cr6  1  0.07790877  0.66638824  0.33315090  1  1.336035  -1.310075  0.657373  0.519765  -1.428985  4.638063  -1.33
Cr  Cr7  1  0.57475300  0.33295568  0.66599604  1  1.337272  -1.333071  0.657359  0.525214  -1.454292  4.619851  -1.353
H  H8  1  0.08411821  0.14781123  0.74246596  1  0.436679  0.002248  0.298471  0.28612  0.000809  0.954352  0.001
H  H9  1  0.06283164  0.08458988  0.82039255  1  0.463378  0.00179  0.304156  0.302686  0.000639  0.942166  0.001
H  H10  1  0.78839565  0.14849726  0.70904735  1  0.107312  0.001868  0.121023  0.093571  0.001651  1.013188  0.0
H  H11  1  0.69778531  0.85567275  0.50188912  1  0.431123  0.00282  0.302773  0.289434  0.001401  0.933328  0.002
H  H12  1  0.69982807  0.99007615  0.52720105  1  0.441276  0.002904  0.294996  0.28109  0.001447  0.980045  0.003
H  H13  1  0.96294585  0.95571682  0.59407826  1  0.060075  0.002996  0.106313  0.087153  0.001486  0.983312  0.001
H  H14  1  0.84936147  0.90582723  0.67709414  1  0.07763  0.000592  0.114191  0.098633  -0.000458  0.992956  0.0
H  H15  1  0.08494193  0.59395394  0.85223706  1  0.430497  0.00226  0.298241  0.285834  0.000817  0.954747  0.002
H  H16  1  0.06547496  0.73522249  0.91649493  1  0.464463  0.001806  0.303603  0.302638  0.000644  0.94445  0.001
H  H17  1  0.78964009  0.56093078  0.85213177  1  0.131378  0.001783  0.120994  0.094156  0.001574  1.011488  0.0
H  H18  1  0.69889515  0.64744530  0.14512687  1  0.436862  0.002773  0.302624  0.289542  0.001408  0.934594  0.002
H  H19  1  0.70123748  0.53805871  0.01068543  1  0.454209  0.002802  0.294729  0.28113  0.001414  0.980638  0.003
H  H20  1  0.96417315  0.63997643  0.04559587  1  0.092221  0.003058  0.105841  0.08614  0.001563  0.9844  0.001
H  H21  1  0.84974279  0.77235235  0.09461126  1  0.105777  0.000583  0.113932  0.098481  -0.000466  0.993891  0.0
H  H22  1  0.08514035  0.25744791  0.40586097  1  0.440837  0.002273  0.298428  0.286198  0.000844  0.95402  0.001
H  H23  1  0.06529791  0.18007328  0.26453574  1  0.468141  0.001735  0.303583  0.302367  0.000622  0.944193  0.001
H  H24  1  0.78995302  0.29096876  0.43896592  1  0.083204  0.001877  0.120532  0.093822  0.00163  1.012259  0.0
H  H25  1  0.70140447  0.49775238  0.35287605  1  0.427323  0.002819  0.30213  0.289187  0.001425  0.935048  0.002
H  H26  1  0.70289252  0.47239518  0.46198435  1  0.414644  0.002926  0.294545  0.280344  0.001375  0.980088  0.003
H  H27  1  0.96574783  0.40475127  0.35994119  1  0.044461  0.003212  0.105685  0.086076  0.001613  0.984405  0.001
H  H28  1  0.85096145  0.32171435  0.22748070  1  0.048349  0.000599  0.113867  0.098095  -0.000469  0.994492  0.0
H  H29  1  0.58517302  0.85245718  0.25856586  1  0.433028  0.002295  0.297738  0.285515  0.000881  0.95488  0.001
H  H30  1  0.56545707  0.91655217  0.18132945  1  0.465389  0.001714  0.302906  0.301945  0.000617  0.945954  0.001
H  H31  1  0.29023455  0.85218501  0.29164485  1  0.08886  0.00188  0.121006  0.093798  0.001635  1.013796  0.0
H  H32  1  0.19873604  0.14472830  0.49795775  1  0.430201  0.002827  0.301962  0.289124  0.001448  0.935508  0.002
H  H33  1  0.20120213  0.01037792  0.47257982  1  0.44702  0.0028  0.294278  0.280305  0.001396  0.980621  0.003
H  H34  1  0.46379683  0.04595414  0.40567348  1  0.09297  0.003142  0.105402  0.08565  0.001627  0.986237  0.001
H  H35  1  0.34870673  0.09433756  0.32194885  1  0.067997  0.000616  0.113917  0.098257  -0.000456  0.993366  0.0
H  H36  1  0.58440476  0.40650319  0.14850866  1  0.429027  0.002309  0.298734  0.286051  0.000862  0.953176  0.002
H  H37  1  0.56526568  0.26512565  0.08426980  1  0.469287  0.00176  0.30335  0.302007  0.000617  0.944868  0.001
H  H38  1  0.28950200  0.43917668  0.14761571  1  0.13011  0.001826  0.120909  0.094027  0.001633  1.013848  0.0
H  H39  1  0.19990926  0.35207954  0.85444364  1  0.434148  0.002762  0.301528  0.288489  0.001436  0.936395  0.002
H  H40  1  0.20244363  0.46158095  0.98868098  1  0.458048  0.002703  0.294237  0.280278  0.001361  0.980853  0.003
H  H41  1  0.46442727  0.35881094  0.95402412  1  0.050908  0.003247  0.105396  0.085655  0.001632  0.986143  0.001
H  H42  1  0.34874642  0.22697209  0.90567363  1  0.106425  0.000595  0.113506  0.09746  -0.000469  0.994285  0.0
H  H43  1  0.58621539  0.74200869  0.59377452  1  0.434653  0.002311  0.29814  0.285791  0.000876  0.954349  0.001
H  H44  1  0.56713691  0.81951497  0.73517581  1  0.468811  0.001722  0.303113  0.301817  0.000621  0.946141  0.001
H  H45  1  0.29153169  0.70839381  0.56085935  1  0.083074  0.00188  0.120993  0.093631  0.001618  1.01263  0.0
H  H46  1  0.20150193  0.50297036  0.64831115  1  0.433571  0.002782  0.301899  0.289064  0.001454  0.935869  0.002
H  H47  1  0.20379179  0.52776025  0.53881970  1  0.414861  0.002914  0.294189  0.280618  0.001338  0.980443  0.003
H  H48  1  0.46613527  0.59565669  0.64185963  1  0.035066  0.00324  0.10554  0.085847  0.001634  0.985514  0.001
H  H49  1  0.35035438  0.67955636  0.77365526  1  0.100642  0.000591  0.113573  0.097748  -0.000466  0.995359  0.0
C  C50  1  0.43859271  0.21008561  0.67535802  1  0.648272  0.06842  -0.023775  -0.117665  0.065024  3.756914  0.072
C  C51  1  0.22900567  0.79495102  0.44049309  1  0.687195  0.075496  -0.01106  -0.072229  0.071093  3.768223  0.072
C  C52  1  0.70445496  0.11466191  0.84096768  1  1.583868  0.016106  0.2406  0.592148  0.016602  4.071582  0.015
C  C53  1  0.83503609  0.09409734  0.74522426  1  0.270714  0.005691  0.004374  0.002733  0.004474  3.870262  0.003
C  C54  1  0.84370212  0.96750756  0.64428418  1  0.285576  0.003277  -0.068342  -0.023663  0.002283  3.877735  0.001
C  C55  1  0.43926947  0.46541607  0.78913607  1  0.665257  0.067642  -0.023238  -0.116567  0.064551  3.757224  0.071
C  C56  1  0.22872616  0.64532055  0.20434614  1  0.681444  0.074636  -0.010808  -0.073131  0.070347  3.766972  0.072
C  C57  1  0.70621179  0.72654636  0.88550816  1  1.578804  0.016255  0.241414  0.593164  0.016743  4.071274  0.015
C  C58  1  0.83647051  0.65147848  0.90638294  1  0.244291  0.005666  0.004667  0.003217  0.004442  3.870255  0.003
C  C59  1  0.84471551  0.67777263  0.03324446  1  0.226842  0.003352  -0.068698  -0.024081  0.002306  3.878509  0.001
C  C60  1  0.44017168  0.32426031  0.53359189  1  0.649572  0.07043  -0.02418  -0.117598  0.066529  3.757058  0.073
C  C61  1  0.22922788  0.55904397  0.35429719  1  0.681438  0.07476  -0.010834  -0.072584  0.070506  3.768168  0.072
C  C62  1  0.70607536  0.15885563  0.27316614  1  1.575889  0.016185  0.241608  0.593312  0.01667  4.070222  0.015
C  C63  1  0.83682573  0.25446941  0.34835909  1  0.30201  0.005627  0.004694  0.002743  0.004464  3.870691  0.003
C  C64  1  0.84594292  0.35498624  0.32213079  1  0.32226  0.00326  -0.06924  -0.023833  0.002315  3.878667  0.001
C  C65  1  0.94174917  0.78945070  0.32431480  1  0.653592  0.067956  -0.023773  -0.114845  0.06456  3.757348  0.071
C  C66  1  0.72559416  0.20405156  0.55817549  1  0.678372  0.074971  -0.010368  -0.074238  0.070443  3.764834  0.072
C  C67  1  0.20595415  0.88485505  0.15906000  1  1.588341  0.016364  0.241026  0.591851  0.016834  4.070949  0.015
C  C68  1  0.33658364  0.90627219  0.25504536  1  0.310773  0.005581  0.00463  0.004084  0.004418  3.871821  0.003
C  C69  1  0.34422968  0.03317997  0.35543743  1  0.233542  0.003504  -0.068958  -0.023772  0.002431  3.878637  0.001
C  C70  1  0.94194615  0.53407742  0.21015566  1  0.668945  0.068568  -0.023593  -0.115246  0.065189  3.757601  0.072
C  C71  1  0.72499761  0.35386316  0.79524319  1  0.672368  0.074799  -0.010104  -0.072862  0.070096  3.764459  0.072
C  C72  1  0.20555569  0.27383610  0.11483396  1  1.580371  0.016025  0.240951  0.592768  0.016559  4.073191  0.015
C  C73  1  0.33615203  0.34856482  0.09374837  1  0.244782  0.005755  0.004192  0.001969  0.004503  3.869444  0.003
C  C74  1  0.34451450  0.32165859  0.96668015  1  0.26634  0.00324  -0.068611  -0.022439  0.002281  3.877112  0.001
C  C75  1  0.94313022  0.67588035  0.46593658  1  0.658798  0.06815  -0.023267  -0.113451  0.064887  3.756647  0.071
C  C76  1  0.72698889  0.44089545  0.64567510  1  0.676199  0.073689  -0.009797  -0.073247  0.069415  3.763035  0.071
C  C77  1  0.20700815  0.84107057  0.72599179  1  1.583563  0.016403  0.240552  0.591188  0.016924  4.070804  0.015
C  C78  1  0.33805175  0.74538266  0.65161697  1  0.303386  0.005526  0.004873  0.005808  0.004399  3.868465  0.003
C  C79  1  0.34627485  0.64555763  0.67885344  1  0.275424  0.003404  -0.069411  -0.024298  0.002421  3.879363  0.001
N  N80  1  0.00219700  0.14209060  0.80057815  1  -1.154177  0.045917  -0.611813  -0.586115  0.034746  3.334434  0.022
N  N81  1  0.69108923  0.94102280  0.56794860  1  -1.155388  0.051395  -0.623274  -0.574859  0.038809  3.369969  0.02
N  N82  1  0.36638466  0.13139614  0.67749187  1  -1.424452  -0.018812  -0.395906  -0.397049  -0.022725  3.319893  -0.047
N  N83  1  0.31958881  0.87660258  0.49984519  1  -1.45046  -0.009141  -0.413025  -0.406448  -0.018443  3.375568  -0.044
N  N84  1  0.00393372  0.65838975  0.85850773  1  -1.150283  0.046038  -0.612213  -0.586851  0.034924  3.335573  0.023
N  N85  1  0.69222962  0.62783431  0.05963019  1  -1.175124  0.052785  -0.623589  -0.576007  0.039854  3.369256  0.022
N  N86  1  0.36767152  0.54634828  0.86810170  1  -1.444023  -0.017938  -0.395941  -0.397133  -0.022399  3.32093  -0.047
N  N87  1  0.31922959  0.62345300  0.12280129  1  -1.443626  -0.009367  -0.412217  -0.405248  -0.018737  3.374455  -0.044
N  N88  1  0.00386895  0.19927980  0.34151099  1  -1.166732  0.046857  -0.612026  -0.587709  0.03568  3.3336  0.024
N  N89  1  0.69390360  0.43173134  0.37216539  1  -1.126375  0.054154  -0.623288  -0.57624  0.041258  3.36651  0.023
N  N90  1  0.36842020  0.32224692  0.45259132  1  -1.42587  -0.019173  -0.397438  -0.396301  -0.023437  3.325492  -0.048
N  N91  1  0.31995333  0.49982971  0.37658492  1  -1.443329  -0.008901  -0.41218  -0.405504  -0.018112  3.373082  -0.044
N  N92  1  0.50411593  0.85860032  0.20028212  1  -1.155011  0.048093  -0.611337  -0.58807  0.036688  3.331259  0.025
N  N93  1  0.19180228  0.05939606  0.43185415  1  -1.158559  0.054315  -0.623178  -0.576648  0.041189  3.367306  0.023
N  N94  1  0.86914335  0.86805605  0.32228327  1  -1.430887  -0.017971  -0.396984  -0.399088  -0.022287  3.325453  -0.047
N  N95  1  0.81552637  0.12226512  0.49843540  1  -1.441617  -0.00971  -0.411054  -0.403964  -0.0188  3.374113  -0.045
N  N96  1  0.50350068  0.34191528  0.14203783  1  -1.15278  0.045281  -0.611467  -0.585083  0.034379  3.332864  0.022
N  N97  1  0.19255004  0.37185258  0.93996983  1  -1.178567  0.055165  -0.623082  -0.576074  0.041788  3.36404  0.024
N  N98  1  0.86924158  0.45342239  0.13146070  1  -1.448517  -0.017216  -0.398152  -0.399082  -0.022171  3.327955  -0.047
N  N99  1  0.81440204  0.37595165  0.87733839  1  -1.433532  -0.009499  -0.411037  -0.405268  -0.018445  3.372691  -0.044
N  N100  1  0.50534108  0.80028545  0.65828472  1  -1.166016  0.048704  -0.611343  -0.587785  0.037278  3.332128  0.025
N  N101  1  0.19423680  0.56872045  0.62862368  1  -1.131147  0.054005  -0.623052  -0.576842  0.040974  3.366945  0.023
N  N102  1  0.87144652  0.67809932  0.54701278  1  -1.43722  -0.017714  -0.397513  -0.399432  -0.022291  3.326908  -0.047
N  N103  1  0.81799426  0.50071583  0.62442263  1  -1.436897  -0.008826  -0.409583  -0.403838  -0.0178  3.369018  -0.043
O  O104  1  0.56615850  0.05494351  0.81420805  1  -1.169252  0.053205  -0.299726  -0.504354  0.035785  2.334257  0.021
O  O105  1  0.73667340  0.19467646  0.94531290  1  -1.167715  0.062904  -0.284681  -0.499572  0.045083  2.284072  0.033
O  O106  1  0.56785934  0.75972130  0.94507406  1  -1.169094  0.053188  -0.299701  -0.504661  0.03574  2.332102  0.021
O  O107  1  0.73886515  0.75057809  0.80531506  1  -1.160109  0.062441  -0.285448  -0.500574  0.0446  2.285494  0.033
O  O108  1  0.56815344  0.18553147  0.23982950  1  -1.169103  0.053765  -0.300106  -0.505307  0.036307  2.331037  0.022
O  O109  1  0.73790059  0.05458323  0.24915332  1  -1.158543  0.06317  -0.286104  -0.500386  0.045145  2.284527  0.033
O  O110  1  0.06773215  0.94440129  0.18512623  1  -1.17238  0.053128  -0.299074  -0.503446  0.035721  2.331134  0.021
O  O111  1  0.23804576  0.80405974  0.05492655  1  -1.166479  0.061993  -0.285891  -0.499846  0.044255  2.289424  0.032
O  O112  1  0.06762200  0.24018835  0.05478408  1  -1.169398  0.053581  -0.299973  -0.505425  0.036127  2.331407  0.022
O  O113  1  0.23751639  0.25053892  0.19562089  1  -1.162736  0.063113  -0.285786  -0.50078  0.045277  2.28635  0.034
O  O114  1  0.07002751  0.81502715  0.76072162  1  -1.170574  0.053577  -0.298823  -0.50389  0.036241  2.328276  0.022
O  O115  1  0.23759727  0.94490907  0.74791947  1  -1.158525  0.061977  -0.286188  -0.499685  0.044069  2.290833  0.032
