# generated using pymatgen
data_CdH14C20(NO)4
_symmetry_space_group_name_H-M   'P 1'
_cell_length_a   8.48596911
_cell_length_b   17.99533918
_cell_length_c   18.60513433
_cell_angle_alpha   89.99983506
_cell_angle_beta   89.99994109
_cell_angle_gamma   89.99957292
_symmetry_Int_Tables_number   1
_chemical_formula_structural   CdH14C20(NO)4
_chemical_formula_sum   'Cd4 H56 C80 N16 O16'
_cell_volume   2841.15085005
_cell_formula_units_Z   4
loop_
 _symmetry_equiv_pos_site_id
 _symmetry_equiv_pos_as_xyz
  1  'x, y, z'
loop_
 _atom_site_type_symbol
 _atom_site_label
 _atom_site_symmetry_multiplicity
 _atom_site_fract_x
 _atom_site_fract_y
 _atom_site_fract_z
 _atom_site_occupancy
 _atom_site_pbe_bader_charge
 _atom_site_pbe_bader_spin_density
 _atom_site_pbe_cm5_charge
 _atom_site_pbe_ddec_charge
 _atom_site_pbe_ddec_spin_density
 _atom_site_pbe_ddec_sum_bond_order
 _atom_site_pbe_magmom
Cd  Cd0  1  0.00284281  0.31309870  0.46980805  1  1.228621  0  0.770182  0.845716  0  2.20865  0
Cd  Cd1  1  0.99716000  0.81310250  0.53019313  1  1.228732  0  0.770138  0.845662  0  2.208633  0
Cd  Cd2  1  0.99715416  0.31310127  0.96981226  1  1.228654  0  0.770177  0.845642  0  2.208758  0
Cd  Cd3  1  0.00283805  0.81309604  0.03018892  1  1.228638  0  0.770178  0.845654  0  2.208615  0
H  H4  1  0.31479498  0.34909621  0.58581192  1  0.172957  0  0.145589  0.120438  0  0.98232  0
H  H5  1  0.68519900  0.84908696  0.41418808  1  0.173009  0  0.145582  0.120481  0  0.982337  0
H  H6  1  0.68521992  0.34909132  0.08581490  1  0.173216  0  0.145621  0.120503  0  0.982291  0
H  H7  1  0.31477995  0.84908574  0.91418348  1  0.173326  0  0.14561  0.120514  0  0.982323  0
H  H8  1  0.87432875  0.25177721  0.63057913  1  0.111251  0  0.121413  0.119999  0  1.009391  0
H  H9  1  0.12568331  0.75178112  0.36942114  1  0.111382  0  0.121423  0.119994  0  1.009347  0
H  H10  1  0.12568999  0.25178034  0.13058723  1  0.111206  0  0.121424  0.120081  0  1.009316  0
H  H11  1  0.87430085  0.75177799  0.86941681  1  0.111158  0  0.121383  0.119988  0  1.009378  0
H  H12  1  0.05206071  0.25196348  0.75629571  1  0.158047  0  0.131834  0.143718  0  1.002474  0
H  H13  1  0.94794781  0.75196273  0.24370564  1  0.158052  0  0.131764  0.143643  0  1.002576  0
H  H14  1  0.94795186  0.25196047  0.25630071  1  0.157839  0  0.131765  0.143653  0  1.00253  0
H  H15  1  0.05203898  0.75195518  0.74370278  1  0.15788  0  0.13173  0.143615  0  1.002576  0
H  H16  1  0.20224201  0.33220001  0.82436655  1  0.080496  0  0.106875  0.115082  0  1.021556  0
H  H17  1  0.79776167  0.83220553  0.17563618  1  0.080428  0  0.106871  0.11513  0  1.02147  0
H  H18  1  0.79773848  0.33219529  0.32437002  1  0.080328  0  0.106898  0.115085  0  1.021689  0
H  H19  1  0.20224046  0.83219747  0.67563164  1  0.080485  0  0.106877  0.115066  0  1.021592  0
H  H20  1  0.42670532  0.33929633  0.91035082  1  0.126224  0  0.101303  0.104107  0  1.054067  0
H  H21  1  0.57330178  0.83930177  0.08964813  1  0.126134  0  0.101299  0.104065  0  1.054137  0
H  H22  1  0.57326661  0.33928738  0.41034902  1  0.126466  0  0.101339  0.104241  0  1.053885  0
H  H23  1  0.42671574  0.83929906  0.58965155  1  0.126313  0  0.101359  0.104171  0  1.054005  0
H  H24  1  0.75354647  0.30581903  0.73709915  1  0.066017  0  0.101525  0.101685  0  1.034432  0
H  H25  1  0.24645882  0.80580840  0.26289614  1  0.066086  0  0.101487  0.101718  0  1.034383  0
H  H26  1  0.24645231  0.30581341  0.23708676  1  0.066033  0  0.101541  0.101683  0  1.034439  0
H  H27  1  0.75354119  0.80581235  0.76290960  1  0.065894  0  0.101528  0.101721  0  1.034399  0
H  H28  1  0.53054561  0.29454940  0.65038229  1  0.098107  0  0.105258  0.11518  0  1.022583  0
H  H29  1  0.46945751  0.79453497  0.34961410  1  0.098106  0  0.105214  0.115126  0  1.022653  0
H  H30  1  0.46947004  0.29454135  0.15037732  1  0.097894  0  0.105211  0.115169  0  1.022558  0
H  H31  1  0.53052365  0.79453412  0.84961853  1  0.097988  0  0.10524  0.115159  0  1.022565  0
H  H32  1  0.69107792  0.42722760  0.49469118  1  0.170366  0  0.14382  0.12125  0  0.994141  0
H  H33  1  0.30893364  0.92723159  0.50531237  1  0.170312  0  0.143812  0.121198  0  0.994075  0
H  H34  1  0.30892774  0.42722862  0.99469787  1  0.170213  0  0.143859  0.121306  0  0.994146  0
H  H35  1  0.69106614  0.92722724  0.00530299  1  0.170095  0  0.143861  0.121311  0  0.994094  0
H  H36  1  0.10782196  0.47320234  0.38000571  1  0.114591  0  0.123986  0.121784  0  0.993287  0
H  H37  1  0.89218885  0.97320456  0.62000255  1  0.11469  0  0.123975  0.12176  0  0.993277  0
H  H38  1  0.89220678  0.47319137  0.87999116  1  0.114628  0  0.123986  0.121813  0  0.993169  0
H  H39  1  0.10780639  0.97319774  0.11999398  1  0.11477  0  0.123991  0.121832  0  0.993301  0
H  H40  1  0.91764594  0.59963536  0.37802093  1  0.121884  0  0.125918  0.12295  0  1.017173  0
H  H41  1  0.08236860  0.09963529  0.62199159  1  0.12243  0  0.125896  0.122862  0  1.017127  0
H  H42  1  0.08238310  0.59962438  0.87800248  1  0.122372  0  0.125863  0.122819  0  1.017369  0
H  H43  1  0.91762554  0.09963183  0.12198210  1  0.121853  0  0.125881  0.122877  0  1.017195  0
H  H44  1  0.79088190  0.67052158  0.46983316  1  0.075755  0  0.10655  0.115787  0  1.021086  0
H  H45  1  0.20913031  0.17052579  0.53018239  1  0.075881  0  0.106565  0.115874  0  1.021146  0
H  H46  1  0.20911515  0.67051738  0.96982001  1  0.075793  0  0.106579  0.115884  0  1.021046  0
H  H47  1  0.79087230  0.17052054  0.03016866  1  0.075848  0  0.106556  0.115848  0  1.021122  0
H  H48  1  0.56894422  0.75791066  0.49436503  1  0.118403  0  0.101226  0.105234  0  1.052914  0
H  H49  1  0.43106774  0.25791308  0.50564920  1  0.118101  0  0.101224  0.105265  0  1.052864  0
H  H50  1  0.43104664  0.75790960  0.99435285  1  0.118094  0  0.101212  0.105172  0  1.053007  0
H  H51  1  0.56893822  0.25791192  0.00563988  1  0.118408  0  0.101178  0.105179  0  1.052966  0
H  H52  1  0.23822803  0.57802967  0.47535394  1  0.118692  0  0.102953  0.10592  0  1.018303  0
H  H53  1  0.76177508  0.07803202  0.52465381  1  0.118637  0  0.102945  0.105905  0  1.018365  0
H  H54  1  0.76177405  0.57803304  0.97534483  1  0.118669  0  0.102969  0.105953  0  1.018362  0
H  H55  1  0.23822080  0.07803421  0.02464626  1  0.118679  0  0.10296  0.105933  0  1.018392  0
H  H56  1  0.45743061  0.49079842  0.44485436  1  0.128004  0  0.106609  0.11875  0  1.014752  0
H  H57  1  0.54258699  0.99080314  0.55515868  1  0.128405  0  0.106591  0.118705  0  1.014779  0
H  H58  1  0.54258592  0.49080087  0.94484321  1  0.128345  0  0.106622  0.118758  0  1.014678  0
H  H59  1  0.45741518  0.99080014  0.05514511  1  0.128017  0  0.106587  0.118708  0  1.014738  0
C  C60  1  0.21913373  0.32213324  0.61426166  1  0.979399  0  0.151074  0.104049  0  3.898409  0
C  C61  1  0.78086540  0.82212764  0.38574003  1  0.979436  0  0.151088  0.10391  0  3.898484  0
C  C62  1  0.78088155  0.32213024  0.11426513  1  0.979411  0  0.151065  0.10396  0  3.898279  0
C  C63  1  0.21911405  0.82212675  0.88573495  1  0.97909  0  0.151016  0.103899  0  3.898008  0
C  C64  1  0.99311525  0.27145654  0.64028608  1  0.398321  0  -0.003413  -0.039048  0  4.021272  0
C  C65  1  0.00689295  0.77145643  0.35971468  1  0.39821  0  -0.003452  -0.038996  0  4.021188  0
C  C66  1  0.00690080  0.27145507  0.14029261  1  0.398131  0  -0.003536  -0.039351  0  4.02132  0
C  C67  1  0.99309091  0.77145512  0.85971029  1  0.398076  0  -0.003545  -0.039277  0  4.02135  0
C  C68  1  0.07977106  0.27093231  0.70246752  1  0.296995  0  0.006933  -0.09832  0  3.893747  0
C  C69  1  0.92023715  0.77093206  0.29753377  1  0.297001  0  0.00703  -0.098339  0  3.89382  0
C  C70  1  0.92024250  0.27092940  0.20247308  1  0.297362  0  0.007045  -0.098164  0  3.893674  0
C  C71  1  0.07974568  0.77092719  0.79752875  1  0.297445  0  0.007125  -0.098149  0  3.893525  0
C  C72  1  0.35324801  0.31211635  0.73285525  1  0.251435  0  0.096001  0.170608  0  4.022402  0
C  C73  1  0.64675954  0.81211212  0.26714378  1  0.251573  0  0.095978  0.170461  0  4.022488  0
C  C74  1  0.64675304  0.31211104  0.23285556  1  0.251565  0  0.095894  0.170414  0  4.022514  0
C  C75  1  0.35323565  0.81210688  0.76714293  1  0.251537  0  0.095943  0.170442  0  4.022394  0
C  C76  1  0.32311219  0.32570204  0.80554162  1  0.003315  0  -0.090666  -0.164741  0  3.967885  0
C  C77  1  0.67689160  0.82570236  0.19445683  1  0.004947  0  -0.090686  -0.164803  0  3.967774  0
C  C78  1  0.67687669  0.32569161  0.30554407  1  0.003288  0  -0.090608  -0.164713  0  3.967965  0
C  C79  1  0.32310942  0.82569444  0.69445599  1  0.004069  0  -0.090677  -0.164717  0  3.967978  0
C  C80  1  0.44872179  0.33088920  0.85326443  1  -0.031863  0  -0.082786  -0.077971  0  3.968337  0
C  C81  1  0.55128309  0.83088732  0.14673293  1  -0.033533  0  -0.082799  -0.077876  0  3.968089  0
C  C82  1  0.55125629  0.33087643  0.35326372  1  -0.031539  0  -0.082873  -0.078038  0  3.968205  0
C  C83  1  0.44872737  0.83088398  0.64673795  1  -0.032621  0  -0.082847  -0.078015  0  3.968193  0
C  C84  1  0.60394752  0.32298471  0.82883835  1  -0.026442  0  -0.019511  -0.032984  0  3.969654  0
C  C85  1  0.39605395  0.82297772  0.17115850  1  -0.026466  0  -0.019588  -0.033127  0  3.969678  0
C  C86  1  0.39603664  0.32297247  0.32883288  1  -0.025934  0  -0.019524  -0.033173  0  3.969498  0
C  C87  1  0.60395188  0.82297718  0.67116612  1  -0.025805  0  -0.019463  -0.033014  0  3.969407  0
C  C88  1  0.63233456  0.31148068  0.75547152  1  0.065467  0  -0.081961  -0.072513  0  3.970872  0
C  C89  1  0.36767182  0.81146802  0.24452536  1  0.065549  0  -0.081929  -0.072638  0  3.970846  0
C  C90  1  0.36765938  0.31146853  0.25546283  1  0.065397  0  -0.08186  -0.072326  0  3.970308  0
C  C91  1  0.63232814  0.81146960  0.74453513  1  0.065725  0  -0.081975  -0.07262  0  3.970431  0
C  C92  1  0.50777139  0.30585339  0.70709727  1  -0.081535  0  -0.092296  -0.173413  0  3.977635  0
C  C93  1  0.49223508  0.80584183  0.29290124  1  -0.08149  0  -0.092243  -0.173199  0  3.977634  0
C  C94  1  0.49223570  0.30584471  0.20709229  1  -0.081548  0  -0.092397  -0.17351  0  3.977631  0
C  C95  1  0.50775662  0.80584051  0.79290568  1  -0.081511  0  -0.09238  -0.173358  0  3.977523  0
C  C96  1  0.73738301  0.32425529  0.88144745  1  1.539626  0  0.186589  0.55481  0  4.237948  0
C  C97  1  0.26262433  0.82424891  0.11854832  1  1.539821  0  0.186626  0.555013  0  4.237868  0
C  C98  1  0.26260455  0.32424461  0.38144096  1  1.538317  0  0.18657  0.554916  0  4.237789  0
C  C99  1  0.73738630  0.82424959  0.61855911  1  1.538945  0  0.18657  0.554815  0  4.238253  0
C  C100  1  0.77827814  0.45615388  0.46261825  1  0.98987  0  0.150441  0.104552  0  3.891017  0
C  C101  1  0.22173060  0.95615641  0.53738522  1  0.990047  0  0.150447  0.104736  0  3.890848  0
C  C102  1  0.22173774  0.45615186  0.96261961  1  0.98975  0  0.15043  0.104529  0  3.890845  0
C  C103  1  0.77826746  0.95615231  0.03737633  1  0.989929  0  0.150459  0.104547  0  3.890807  0
C  C104  1  0.99257997  0.48277938  0.40336355  1  0.413196  0  0.000887  -0.030709  0  4.012944  0
C  C105  1  0.00742598  0.98278302  0.59664038  1  0.413591  0  0.000978  -0.030662  0  4.012799  0
C  C106  1  0.00743796  0.48277532  0.90336071  1  0.412881  0  0.000904  -0.030608  0  4.013034  0
C  C107  1  0.99257034  0.98277875  0.09663193  1  0.412884  0  0.000866  -0.030819  0  4.013041  0
C  C108  1  0.90070309  0.54545966  0.40216059  1  0.315764  0  0.00583  -0.094814  0  3.907605  0
C  C109  1  0.09930879  0.04546072  0.59784832  1  0.31545  0  0.005861  -0.09456  0  3.907485  0
C  C110  1  0.09931382  0.54545306  0.90215287  1  0.315541  0  0.005832  -0.094772  0  3.907969  0
C  C111  1  0.90069099  0.04545676  0.09783830  1  0.316264  0  0.005939  -0.094577  0  3.907767  0
C  C112  1  0.63656088  0.57643417  0.45468213  1  0.301937  0  0.095124  0.169784  0  4.021021  0
C  C113  1  0.36345050  0.07643614  0.54533207  1  0.301542  0  0.095242  0.169835  0  4.021136  0
C  C114  1  0.36344716  0.57643000  0.95467053  1  0.301601  0  0.095181  0.169776  0  4.021232  0
C  C115  1  0.63654772  0.07643419  0.04531949  1  0.302075  0  0.095148  0.169841  0  4.021098  0
C  C116  1  0.66917174  0.65119067  0.46857657  1  -0.03083  0  -0.092015  -0.166206  0  3.974988  0
C  C117  1  0.33083607  0.15119057  0.53143957  1  -0.029767  0  -0.092072  -0.166372  0  3.975328  0
C  C118  1  0.33082799  0.65118717  0.96856337  1  -0.030494  0  -0.092141  -0.166471  0  3.975067  0
C  C119  1  0.66916568  0.15118907  0.03142912  1  -0.030575  0  -0.092055  -0.166384  0  3.975233  0
C  C120  1  0.54541292  0.69962562  0.48260922  1  0.024686  0  -0.084811  -0.085609  0  3.979002  0
C  C121  1  0.45460116  0.19962737  0.51740356  1  0.024343  0  -0.084728  -0.08555  0  3.978816  0
C  C122  1  0.45458362  0.69962504  0.98259972  1  0.02481  0  -0.084729  -0.085458  0  3.978881  0
C  C123  1  0.54540807  0.19962740  0.01739425  1  0.024275  0  -0.084742  -0.085506  0  3.97874  0
C  C124  1  0.39000012  0.67342632  0.48484094  1  -0.07255  0  -0.018892  -0.02953  0  3.967613  0
C  C125  1  0.61000968  0.17342810  0.51516762  1  -0.072552  0  -0.019089  -0.029604  0  3.967778  0
C  C126  1  0.60999685  0.67342910  0.98483297  1  -0.072613  0  -0.019021  -0.029564  0  3.96759  0
C  C127  1  0.38999528  0.17342811  0.01516376  1  -0.072629  0  -0.018978  -0.029516  0  3.967511  0
C  C128  1  0.35943500  0.59791128  0.47276105  1  -0.027592  0  -0.080757  -0.074128  0  3.968395  0
C  C129  1  0.64057013  0.09791459  0.52724503  1  -0.027449  0  -0.080731  -0.074265  0  3.968485  0
C  C130  1  0.64056558  0.59791284  0.97275361  1  -0.027598  0  -0.080755  -0.074286  0  3.968395  0
C  C131  1  0.35942895  0.09791359  0.02723688  1  -0.027589  0  -0.080821  -0.074315  0  3.968616  0
C  C132  1  0.48199537  0.54917848  0.45642151  1  -0.073474  0  -0.091708  -0.173834  0  3.975375  0
C  C133  1  0.51801409  0.04918160  0.54359169  1  -0.07391  0  -0.09163  -0.173546  0  3.975251  0
C  C134  1  0.51801193  0.54917768  0.95641144  1  -0.073838  0  -0.091676  -0.173691  0  3.975275  0
C  C135  1  0.48198222  0.04918074  0.04357918  1  -0.07355  0  -0.0916  -0.173615  0  3.975264  0
C  C136  1  0.25885614  0.72690315  0.49967336  1  1.518481  0  0.184532  0.549331  0  4.251011  0
C  C137  1  0.74114926  0.22690564  0.50033182  1  1.51871  0  0.18445  0.549109  0  4.251277  0
C  C138  1  0.74113640  0.72690548  0.99966856  1  1.518915  0  0.184502  0.549265  0  4.251057  0
C  C139  1  0.25885250  0.22690831  0.00033071  1  1.518726  0  0.184592  0.54925  0  4.251026  0
N  N140  1  0.08098469  0.30364317  0.58606681  1  -1.227496  0  -0.359104  -0.289926  0  3.565606  0
N  N141  1  0.91901709  0.80364091  0.41393385  1  -1.227845  0  -0.359042  -0.2898  0  3.565556  0
N  N142  1  0.91903213  0.30364137  0.08607183  1  -1.227613  0  -0.358936  -0.289638  0  3.565376  0
N  N143  1  0.08096259  0.80363938  0.91392991  1  -1.227422  0  -0.3589  -0.289563  0  3.565045  0
N  N144  1  0.22375791  0.30303540  0.68518297  1  -1.259192  0  -0.221148  0.014819  0  3.795631  0
N  N145  1  0.77624506  0.80303059  0.31481770  1  -1.259134  0  -0.221108  0.014995  0  3.795539  0
N  N146  1  0.77625281  0.30303076  0.18518644  1  -1.25932  0  -0.221127  0.014933  0  3.795358  0
N  N147  1  0.22373956  0.80302634  0.81481261  1  -1.259465  0  -0.221114  0.014939  0  3.795209  0
N  N148  1  0.91500055  0.42792859  0.44131123  1  -1.233394  0  -0.359032  -0.288394  0  3.570585  0
N  N149  1  0.08500511  0.92793263  0.55869070  1  -1.233794  0  -0.359092  -0.288534  0  3.570359  0
N  N150  1  0.08501112  0.42792538  0.94131212  1  -1.232972  0  -0.359008  -0.288536  0  3.570456  0
N  N151  1  0.91498865  0.92792751  0.05868336  1  -1.233377  0  -0.359075  -0.288448  0  3.570265  0
N  N152  1  0.76446065  0.52776026  0.43977016  1  -1.263736  0  -0.220231  0.017923  0  3.793434  0
N  N153  1  0.23555034  0.02776207  0.56023773  1  -1.264414  0  -0.220341  0.017649  0  3.79346  0
N  N154  1  0.23555293  0.52775486  0.93976452  1  -1.263715  0  -0.220286  0.018033  0  3.793313  0
N  N155  1  0.76444746  0.02775857  0.06022777  1  -1.263911  0  -0.220313  0.017805  0  3.793447  0
O  O156  1  0.87011058  0.29705082  0.86112350  1  -1.15045  0  -0.344402  -0.563243  0  2.173189  0
O  O157  1  0.12989013  0.79704929  0.13887235  1  -1.150392  0  -0.344429  -0.56334  0  2.173115  0
O  O158  1  0.12987393  0.29704005  0.36111493  1  -1.149986  0  -0.344381  -0.563263  0  2.173006  0
O  O159  1  0.87011736  0.79704562  0.63888361  1  -1.150625  0  -0.344357  -0.563227  0  2.173342  0
O  O160  1  0.71454739  0.35080933  0.94398607  1  -1.184978  0  -0.340663  -0.572649  0  2.137156  0
O  O161  1  0.28546188  0.85079806  0.05600909  1  -1.185219  0  -0.340631  -0.572695  0  2.137191  0
O  O162  1  0.28543253  0.35079747  0.44397850  1  -1.184726  0  -0.340673  -0.572684  0  2.137249  0
O  O163  1  0.71455906  0.85080437  0.55602096  1  -1.184704  0  -0.340678  -0.572617  0  2.137229  0
O  O164  1  0.28211987  0.79566704  0.48766743  1  -1.171683  0  -0.341202  -0.578139  0  2.154468  0
O  O165  1  0.71788204  0.29566902  0.51233326  1  -1.171879  0  -0.341104  -0.577986  0  2.154691  0
O  O166  1  0.71787039  0.79566667  0.98766210  1  -1.172128  0  -0.341134  -0.578002  0  2.154622  0
O  O167  1  0.28211857  0.29566939  0.01233697  1  -1.171826  0  -0.341163  -0.577992  0  2.154663  0
O  O168  1  0.12790605  0.70083714  0.52310674  1  -1.152759  0  -0.347831  -0.557336  0  2.153635  0
O  O169  1  0.87209977  0.20083870  0.47690012  1  -1.152841  0  -0.347817  -0.557238  0  2.1536  0
O  O170  1  0.87208677  0.70083884  0.02310480  1  -1.152627  0  -0.347832  -0.557318  0  2.153518  0
O  O171  1  0.12790019  0.20084089  0.97689723  1  -1.15271  0  -0.34789  -0.557345  0  2.153501  0
