# generated using pymatgen
data_H3PbC7NO4
_symmetry_space_group_name_H-M   'P 1'
_cell_length_a   12.44286046
_cell_length_b   12.44288423
_cell_length_c   12.44288975
_cell_angle_alpha   65.72808431
_cell_angle_beta   79.75444972
_cell_angle_gamma   114.27186535
_symmetry_Int_Tables_number   1
_chemical_formula_structural   H3PbC7NO4
_chemical_formula_sum   'H24 Pb8 C56 N8 O32'
_cell_volume   1454.83691867
_cell_formula_units_Z   8
loop_
 _symmetry_equiv_pos_site_id
 _symmetry_equiv_pos_as_xyz
  1  'x, y, z'
loop_
 _atom_site_type_symbol
 _atom_site_label
 _atom_site_symmetry_multiplicity
 _atom_site_fract_x
 _atom_site_fract_y
 _atom_site_fract_z
 _atom_site_occupancy
 _atom_site_hle17_bader_spin_density
 _atom_site_hle17_ddec_charge
 _atom_site_hle17_ddec_spin_density
 _atom_site_hle17_ddec_sum_bond_order
 _atom_site_hle17_magmom
 _atom_site_hse06_10hf_bader_charge
 _atom_site_hse06_10hf_bader_spin_density
 _atom_site_hse06_10hf_ddec_charge
 _atom_site_hse06_10hf_ddec_spin_density
 _atom_site_hse06_10hf_ddec_sum_bond_order
 _atom_site_hse06_10hf_magmom
 _atom_site_hse06_bader_spin_density
 _atom_site_hse06_ddec_charge
 _atom_site_hse06_ddec_spin_density
 _atom_site_hse06_ddec_sum_bond_order
 _atom_site_hse06_magmom
 _atom_site_pbe_bader_spin_density
 _atom_site_pbe_cm5_charge
 _atom_site_pbe_ddec_charge
 _atom_site_pbe_ddec_spin_density
 _atom_site_pbe_ddec_sum_bond_order
 _atom_site_pbe_magmom
H  H0  1  0.35470672  0.03202341  0.88472500  1  0  0.119223  0  0.934852  0  0.140718  0  0.126973  0  0.998851  0  0  0.13069  0  0.996207  0  0  0.113028  0.124191  0  1.000956  0
H  H1  1  0.11527526  0.26056997  0.91674732  1  0  0.119287  0  0.93488  0  0.135625  0  0.127027  0  0.998884  0  0  0.130744  0  0.996239  0  0  0.113047  0.124246  0  1.000984  0
H  H2  1  0.08325113  0.46797692  0.17731835  1  0  0.119209  0  0.934888  0  0.13716  0  0.126974  0  0.998864  0  0  0.130691  0  0.99622  0  0  0.113015  0.124191  0  1.000968  0
H  H3  1  0.82268252  0.23943104  0.64529435  1  0  0.119274  0  0.934908  0  0.145321  0  0.127019  0  0.998903  0  0  0.130736  0  0.996258  0  0  0.113051  0.124237  0  1.001004  0
H  H4  1  0.64529374  0.96797580  0.11527435  1  0  0.119273  0  0.93491  0  0.140699  0  0.127023  0  0.998899  0  0  0.130741  0  0.996251  0  0  0.113043  0.124242  0  1.001001  0
H  H5  1  0.88472519  0.73943121  0.08325116  1  0  0.119212  0  0.934867  0  0.135518  0  0.126979  0  0.998842  0  0  0.130698  0  0.996195  0  0  0.113018  0.124198  0  1.000944  0
H  H6  1  0.91675029  0.53202410  0.82268148  1  0  0.119278  0  0.934918  0  0.137164  0  0.12703  0  0.998902  0  0  0.130747  0  0.996258  0  0  0.113043  0.124247  0  1.001004  0
H  H7  1  0.17731696  0.76056884  0.35470630  1  0  0.119194  0  0.934908  0  0.145345  0  0.126956  0  0.998893  0  0  0.130674  0  0.996247  0  0  0.113019  0.124174  0  1.000994  0
H  H8  1  0.26385833  0.86914472  0.12720488  1  0  0.095195  0  0.974267  0  0.076205  0  0.106523  0  1.036968  0  0  0.108648  0  1.037142  0  0  0.106471  0.104928  0  1.037093  0
H  H9  1  0.87279471  0.10893683  0.99634925  1  0  0.09518  0  0.974213  0  0.077819  0  0.106517  0  1.036911  0  0  0.108639  0  1.037088  0  0  0.10648  0.104922  0  1.037037  0
H  H10  1  0.00365175  0.63085722  0.10528450  1  0  0.095169  0  0.974243  0  0.098507  0  0.106497  0  1.036948  0  0  0.108631  0  1.037111  0  0  0.106454  0.104904  0  1.037072  0
H  H11  1  0.89471357  0.39106313  0.73614245  1  0  0.095173  0  0.974283  0  0.079617  0  0.106514  0  1.036972  0  0  0.108634  0  1.037153  0  0  0.106482  0.104919  0  1.037099  0
H  H12  1  0.73614115  0.13085552  0.87279488  1  0  0.095173  0  0.974288  0  0.076198  0  0.106493  0  1.036997  0  0  0.108633  0  1.037153  0  0  0.106467  0.1049  0  1.037119  0
H  H13  1  0.12720574  0.89106361  0.00365099  1  0  0.0952  0  0.974257  0  0.077817  0  0.10653  0  1.036951  0  0  0.108663  0  1.037117  0  0  0.106497  0.104936  0  1.037075  0
H  H14  1  0.99634870  0.36914359  0.89471486  1  0  0.095193  0  0.974277  0  0.098504  0  0.106517  0  1.036983  0  0  0.108656  0  1.037139  0  0  0.106474  0.104924  0  1.037104  0
H  H15  1  0.10528688  0.60893731  0.26385779  1  0  0.095176  0  0.974276  0  0.079627  0  0.106503  0  1.036982  0  0  0.108629  0  1.037156  0  0  0.106489  0.10491  0  1.037105  0
H  H16  1  0.33515807  0.70332160  0.21471623  1  0  0.086058  0  0.961018  0  0.130224  0  0.092065  0  1.029715  0  0  0.095148  0  1.026433  0  0  0.117453  0.089765  0  1.032168  0
H  H17  1  0.78528497  0.95012594  0.91803756  1  0  0.086075  0  0.960995  0  0.154356  0  0.092086  0  1.029687  0  0  0.095168  0  1.026408  0  0  0.117468  0.089784  0  1.032145  0
H  H18  1  0.08196245  0.79667745  0.86816369  1  0  0.086076  0  0.960988  0  0.125667  0  0.092083  0  1.029685  0  0  0.095165  0  1.026402  0  0  0.11747  0.089782  0  1.032141  0
H  H19  1  0.13183548  0.54987343  0.66484155  1  0  0.086078  0  0.961002  0  0.124127  0  0.09209  0  1.029693  0  0  0.095172  0  1.026412  0  0  0.11747  0.089786  0  1.032156  0
H  H20  1  0.66484238  0.29667805  0.78528400  1  0  0.086048  0  0.961026  0  0.130223  0  0.092056  0  1.029727  0  0  0.095139  0  1.026445  0  0  0.117453  0.089756  0  1.03218  0
H  H21  1  0.21471548  0.04987451  0.08196268  1  0  0.086074  0  0.961011  0  0.154351  0  0.092091  0  1.029699  0  0  0.095173  0  1.026417  0  0  0.117459  0.08979  0  1.032154  0
H  H22  1  0.91803703  0.20332199  0.13183607  1  0  0.086057  0  0.961005  0  0.125674  0  0.092068  0  1.0297  0  0  0.09515  0  1.026419  0  0  0.117453  0.089765  0  1.032159  0
H  H23  1  0.86816400  0.45012638  0.33515733  1  0  0.086064  0  0.960998  0  0.124118  0  0.092083  0  1.02968  0  0  0.095169  0  1.026401  0  0  0.117444  0.089779  0  1.032142  0
Pb  Pb24  1  0.70315425  0.07937951  0.43061840  1  0  1.385203  0  1.381454  0  1.505333  0  1.199839  0  1.776318  0  0  1.259378  0  1.732673  0  0  0.669885  1.156299  0  1.807194  0
Pb  Pb25  1  0.56938095  0.36622681  0.50999846  1  0  1.385233  0  1.381427  0  1.505998  0  1.199869  0  1.77628  0  0  1.259404  0  1.73264  0  0  0.669985  1.156333  0  1.807152  0
Pb  Pb26  1  0.49000183  0.42062020  0.87622559  1  0  1.385206  0  1.381445  0  1.506229  0  1.199836  0  1.776303  0  0  1.259374  0  1.73266  0  0  0.669887  1.1563  0  1.80718  0
Pb  Pb27  1  0.12377423  0.13377238  0.29684586  1  0  1.3852  0  1.381447  0  1.505851  0  1.199827  0  1.776308  0  0  1.259372  0  1.732665  0  0  0.669913  1.156294  0  1.807183  0
Pb  Pb28  1  0.29684621  0.92062050  0.56938096  1  0  1.385214  0  1.381437  0  1.505333  0  1.19986  0  1.776293  0  0  1.2594  0  1.732648  0  0  0.669896  1.156323  0  1.807163  0
Pb  Pb29  1  0.43061562  0.63377283  0.48999987  1  0  1.385215  0  1.381448  0  1.505978  0  1.199846  0  1.776316  0  0  1.259384  0  1.732673  0  0  0.66997  1.156311  0  1.807191  0
Pb  Pb30  1  0.50999862  0.57937945  0.12377465  1  0  1.385247  0  1.381425  0  1.506223  0  1.199886  0  1.776281  0  0  1.259427  0  1.732636  0  0  0.669911  1.156349  0  1.807162  0
Pb  Pb31  1  0.87622622  0.86622727  0.70315438  1  0  1.38523  0  1.381426  0  1.505851  0  1.199865  0  1.776285  0  0  1.259406  0  1.732643  0  0  0.669934  1.156332  0  1.80716  0
C  C32  1  0.52645904  0.05308804  0.70261296  1  0  0.699518  0  3.914923  0  1.684504  0  0.638643  0  4.221441  0  0  0.676545  0  4.208903  0  0  0.221071  0.612637  0  4.229246  0
C  C33  1  0.29738838  0.27092870  0.75570057  1  0  0.699672  0  3.914701  0  1.693365  0  0.638723  0  4.221335  0  0  0.676626  0  4.208796  0  0  0.22108  0.612716  0  4.229137  0
C  C34  1  0.24430078  0.44691299  0.02662791  1  0  0.699667  0  3.914692  0  1.687097  0  0.638743  0  4.221283  0  0  0.676643  0  4.208748  0  0  0.221101  0.612736  0  4.229086  0
C  C35  1  0.97337234  0.22907088  0.47354086  1  0  0.699625  0  3.914719  0  1.680975  0  0.638725  0  4.221275  0  0  0.676625  0  4.208741  0  0  0.22109  0.612719  0  4.229079  0
C  C36  1  0.47354044  0.94691185  0.29738768  1  0  0.699627  0  3.914796  0  1.68452  0  0.638711  0  4.221374  0  0  0.676612  0  4.208838  0  0  0.221073  0.612705  0  4.22918  0
C  C37  1  0.70261207  0.72907255  0.24429968  1  0  0.699609  0  3.914799  0  1.693322  0  0.638692  0  4.221375  0  0  0.676594  0  4.208836  0  0  0.22107  0.612688  0  4.229178  0
C  C38  1  0.75569967  0.55308746  0.97337233  1  0  0.699694  0  3.914727  0  1.687088  0  0.638756  0  4.22133  0  0  0.676657  0  4.208795  0  0  0.221112  0.612748  0  4.229132  0
C  C39  1  0.02662714  0.77092820  0.52645979  1  0  0.699557  0  3.914833  0  1.680979  0  0.638706  0  4.221314  0  0  0.676607  0  4.208778  0  0  0.221074  0.6127  0  4.229118  0
C  C40  1  0.50926962  0.85860863  0.90402954  1  0  0.083264  0  3.697051  0  0.536949  0  0.078626  0  3.938258  0  0  0.080562  0  3.956287  0  0  0.115476  0.077065  0  3.926415  0
C  C41  1  0.09597191  0.08670093  0.76263833  1  0  0.083077  0  3.697208  0  0.545053  0  0.078533  0  3.938307  0  0  0.080474  0  3.956341  0  0  0.115414  0.07697  0  3.926468  0
C  C42  1  0.23736201  0.64139095  0.84933943  1  0  0.08322  0  3.697099  0  0.514258  0  0.078603  0  3.938283  0  0  0.080544  0  3.956315  0  0  0.115482  0.077048  0  3.926429  0
C  C43  1  0.15066016  0.41329755  0.49073095  1  0  0.083239  0  3.697054  0  0.527616  0  0.078552  0  3.938314  0  0  0.080489  0  3.956343  0  0  0.11546  0.076999  0  3.926459  0
C  C44  1  0.49073180  0.14139239  0.09597029  1  0  0.083371  0  3.6969  0  0.537041  0  0.078616  0  3.938225  0  0  0.080557  0  3.956258  0  0  0.115524  0.077062  0  3.926371  0
C  C45  1  0.90402854  0.91329871  0.23736191  1  0  0.08326  0  3.697068  0  0.545053  0  0.078575  0  3.938315  0  0  0.080516  0  3.95635  0  0  0.115433  0.077017  0  3.926465  0
C  C46  1  0.76263844  0.35860986  0.15065993  1  0  0.083184  0  3.697095  0  0.514253  0  0.078578  0  3.938258  0  0  0.080519  0  3.956289  0  0  0.115508  0.077023  0  3.926406  0
C  C47  1  0.84933835  0.58670133  0.50926921  1  0  0.083154  0  3.697119  0  0.527584  0  0.078548  0  3.938285  0  0  0.080487  0  3.956315  0  0  0.115423  0.076989  0  3.926441  0
C  C48  1  0.47171297  0.95209221  0.84669253  1  0  -0.072732  0  3.669028  0  -0.075549  0  -0.056044  0  3.904731  0  0  -0.06235  0  3.922643  0  0  0.006908  -0.052338  0  3.893243  0
C  C49  1  0.15330776  0.18159672  0.79878513  1  0  -0.072675  0  3.668927  0  -0.014345  0  -0.056001  0  3.904639  0  0  -0.06231  0  3.922551  0  0  0.006842  -0.052294  0  3.893151  0
C  C50  1  0.20121608  0.54790805  0.98038122  1  0  -0.072729  0  3.668907  0  -0.017173  0  -0.05604  0  3.904629  0  0  -0.062344  0  3.92254  0  0  0.006895  -0.052334  0  3.893138  0
C  C51  1  0.01961979  0.31840329  0.52828886  1  0  -0.072686  0  3.668863  0  -0.015137  0  -0.055975  0  3.904589  0  0  -0.062277  0  3.922499  0  0  0.006879  -0.052273  0  3.8931  0
C  C52  1  0.52828845  0.04790764  0.15330818  1  0  -0.07272  0  3.668872  0  -0.075653  0  -0.05598  0  3.904613  0  0  -0.062282  0  3.922523  0  0  0.006914  -0.052276  0  3.893126  0
C  C53  1  0.84669172  0.81840317  0.20121551  1  0  -0.072715  0  3.668907  0  -0.014342  0  -0.056005  0  3.90463  0  0  -0.062309  0  3.92254  0  0  0.006879  -0.0523  0  3.893142  0
C  C54  1  0.79878437  0.45209276  0.01961814  1  0  -0.072702  0  3.668947  0  -0.017178  0  -0.056006  0  3.904667  0  0  -0.062311  0  3.922577  0  0  0.006862  -0.052301  0  3.893176  0
C  C55  1  0.98037969  0.68159616  0.47171090  1  0  -0.072685  0  3.668918  0  -0.015138  0  -0.056018  0  3.904624  0  0  -0.062324  0  3.922538  0  0  0.006874  -0.052313  0  3.893137  0
C  C56  1  0.38115502  0.95591372  0.92772104  1  0  -0.027767  0  3.666647  0  0.048722  0  -0.054654  0  3.917932  0  0  -0.051969  0  3.934496  0  0  -0.064636  -0.056243  0  3.906868  0
C  C57  1  0.07227877  0.19112551  0.88363363  1  0  -0.027831  0  3.666709  0  -0.105112  0  -0.054717  0  3.918006  0  0  -0.052031  0  3.93457  0  0  -0.064631  -0.056303  0  3.906938  0
C  C58  1  0.11636637  0.54408778  0.07475921  1  0  -0.027762  0  3.66665  0  -0.085951  0  -0.054657  0  3.917927  0  0  -0.051968  0  3.934487  0  0  -0.064642  -0.056247  0  3.906872  0
C  C59  1  0.92524000  0.30887426  0.61884743  1  0  -0.027829  0  3.666652  0  -0.052576  0  -0.054714  0  3.917941  0  0  -0.05203  0  3.934498  0  0  -0.064645  -0.056305  0  3.906887  0
C  C60  1  0.61884641  0.04408569  0.07227879  1  0  -0.027863  0  3.666697  0  0.048768  0  -0.054759  0  3.917983  0  0  -0.052079  0  3.934553  0  0  -0.064663  -0.056348  0  3.906921  0
C  C61  1  0.92772168  0.80887530  0.11636573  1  0  -0.027756  0  3.666608  0  -0.104807  0  -0.054653  0  3.917882  0  0  -0.051966  0  3.934442  0  0  -0.064619  -0.05624  0  3.906816  0
C  C62  1  0.88363408  0.45591303  0.92524015  1  0  -0.027822  0  3.666664  0  -0.085948  0  -0.054717  0  3.91796  0  0  -0.052032  0  3.934523  0  0  -0.064643  -0.056308  0  3.906905  0
C  C63  1  0.07475948  0.69112526  0.38115410  1  0  -0.027751  0  3.666592  0  -0.05291  0  -0.054648  0  3.917881  0  0  -0.051961  0  3.934438  0  0  -0.064614  -0.05624  0  3.906823  0
C  C64  1  0.62092313  0.86300363  0.82596695  1  0  0.615116  0  3.939724  0  1.644447  0  0.562625  0  4.236189  0  0  0.597422  0  4.22831  0  0  0.211189  0.53901  0  4.240604  0
C  C65  1  0.17403678  0.05311217  0.68897080  1  0  0.615168  0  3.939902  0  1.628514  0  0.562657  0  4.236348  0  0  0.59744  0  4.228489  0  0  0.211166  0.539044  0  4.240762  0
C  C66  1  0.31102946  0.63699289  0.74208218  1  0  0.61512  0  3.93985  0  1.631892  0  0.562637  0  4.236288  0  0  0.597421  0  4.228429  0  0  0.21119  0.539023  0  4.2407  0
C  C67  1  0.25791818  0.44688760  0.37907785  1  0  0.615051  0  3.939871  0  1.619343  0  0.5626  0  4.236295  0  0  0.59739  0  4.228424  0  0  0.211176  0.538984  0  4.240709  0
C  C68  1  0.37907926  0.13699642  0.17403424  1  0  0.615106  0  3.939684  0  1.644334  0  0.562681  0  4.236101  0  0  0.597459  0  4.228249  0  0  0.211204  0.539066  0  4.240516  0
C  C69  1  0.82596367  0.94688748  0.31102944  1  0  0.615143  0  3.939759  0  1.62852  0  0.562705  0  4.236158  0  0  0.597481  0  4.228313  0  0  0.211166  0.53909  0  4.240575  0
C  C70  1  0.68897003  0.36300692  0.25791669  1  0  0.615111  0  3.939856  0  1.63207  0  0.562616  0  4.236306  0  0  0.597402  0  4.228444  0  0  0.211175  0.539002  0  4.240718  0
C  C71  1  0.74208130  0.55311148  0.62092279  1  0  0.615134  0  3.939825  0  1.619418  0  0.562641  0  4.236273  0  0  0.59743  0  4.228406  0  0  0.211193  0.539025  0  4.24069  0
C  C72  1  0.33120245  0.86650273  0.06097873  1  0  -0.109117  0  3.743628  0  -0.071626  0  -0.12441  0  4.001138  0  0  -0.12975  0  4.022019  0  0  -0.08353  -0.120941  0  3.987176  0
C  C73  1  0.93902131  0.10781847  0.92748094  1  0  -0.10916  0  3.743692  0  0.022654  0  -0.124451  0  4.001202  0  0  -0.12979  0  4.022089  0  0  -0.083507  -0.120982  0  3.98724  0
C  C74  1  0.07251915  0.63349836  0.03529932  1  0  -0.109135  0  3.743722  0  0.009929  0  -0.124428  0  4.001244  0  0  -0.129778  0  4.022125  0  0  -0.083554  -0.120961  0  3.98728  0
C  C75  1  0.96469849  0.39218138  0.66879765  1  0  -0.109152  0  3.74366  0  -0.017989  0  -0.124447  0  4.001166  0  0  -0.129784  0  4.022054  0  0  -0.08355  -0.120978  0  3.987204  0
C  C76  1  0.66879801  0.13349728  0.93902063  1  0  -0.109095  0  3.743608  0  -0.071552  0  -0.12437  0  4.001122  0  0  -0.129719  0  4.021996  0  0  -0.083533  -0.120901  0  3.98716  0
C  C77  1  0.06097915  0.89218038  0.07251930  1  0  -0.109154  0  3.743655  0  0.022452  0  -0.124443  0  4.001182  0  0  -0.129791  0  4.022063  0  0  -0.083512  -0.120975  0  3.987219  0
C  C78  1  0.92748130  0.36650245  0.96470004  1  0  -0.109126  0  3.743643  0  0.0099  0  -0.124411  0  4.001162  0  0  -0.129763  0  4.02204  0  0  -0.083562  -0.120942  0  3.987199  0
C  C79  1  0.03530002  0.60781830  0.33120251  1  0  -0.10909  0  3.743612  0  -0.01766  0  -0.124376  0  4.001127  0  0  -0.129717  0  4.022013  0  0  -0.083527  -0.120906  0  3.987163  0
C  C80  1  0.36983955  0.77286387  0.11072642  1  0  0.130305  0  3.706978  0  0.495506  0  0.094683  0  3.970133  0  0  0.102541  0  3.985703  0  0  0.049547  0.089366  0  3.959629  0
C  C81  1  0.88927349  0.01943333  0.88359018  1  0  0.130338  0  3.707008  0  0.473752  0  0.094715  0  3.970173  0  0  0.102572  0  3.985747  0  0  0.0495  0.089398  0  3.959668  0
C  C82  1  0.11640942  0.72713643  0.90302373  1  0  0.130314  0  3.706915  0  0.496388  0  0.094696  0  3.970076  0  0  0.102555  0  3.985646  0  0  0.049512  0.08938  0  3.959573  0
C  C83  1  0.09697577  0.48056658  0.63016044  1  0  0.130316  0  3.706908  0  0.501181  0  0.094692  0  3.970069  0  0  0.102549  0  3.985641  0  0  0.049501  0.089372  0  3.959567  0
C  C84  1  0.63016090  0.22713614  0.88927294  1  0  0.13033  0  3.706924  0  0.495494  0  0.094703  0  3.970075  0  0  0.102559  0  3.98565  0  0  0.04955  0.089385  0  3.959572  0
C  C85  1  0.11072696  0.98056668  0.11640918  1  0  0.130304  0  3.706871  0  0.473887  0  0.094672  0  3.970033  0  0  0.10253  0  3.985605  0  0  0.049494  0.089354  0  3.95953  0
C  C86  1  0.88359006  0.27286382  0.09697603  1  0  0.130323  0  3.706864  0  0.496403  0  0.094699  0  3.970021  0  0  0.102557  0  3.985596  0  0  0.049547  0.089382  0  3.959518  0
C  C87  1  0.90302468  0.51943423  0.36983892  1  0  0.13032  0  3.706936  0  0.501168  0  0.094689  0  3.970088  0  0  0.102541  0  3.985667  0  0  0.049527  0.089372  0  3.959586  0
N  N88  1  0.45613072  0.76911430  0.03389168  1  0  -0.330927  0  3.225869  0  -1.267703  0  -0.263048  0  3.480557  0  0  -0.280899  0  3.500878  0  0  -0.287737  -0.250661  0  3.466674  0
N  N89  1  0.96611026  0.00997821  0.80300579  1  0  -0.330883  0  3.225881  0  -1.278256  0  -0.263036  0  3.480547  0  0  -0.280889  0  3.500874  0  0  -0.287721  -0.250648  0  3.466663  0
N  N90  1  0.19699485  0.73088467  0.81298235  1  0  -0.330912  0  3.225842  0  -1.268564  0  -0.263047  0  3.480531  0  0  -0.280899  0  3.500852  0  0  -0.287703  -0.250663  0  3.466647  0
N  N91  1  0.18701558  0.49002240  0.54386959  1  0  -0.330886  0  3.225757  0  -1.269597  0  -0.262999  0  3.480473  0  0  -0.280848  0  3.500793  0  0  -0.287698  -0.250612  0  3.466588  0
N  N92  1  0.54386974  0.23088572  0.96610768  1  0  -0.330966  0  3.225801  0  -1.267691  0  -0.263049  0  3.480529  0  0  -0.280898  0  3.500849  0  0  -0.287742  -0.250663  0  3.466644  0
N  N93  1  0.03389019  0.99002304  0.19699445  1  0  -0.330905  0  3.225805  0  -1.278387  0  -0.263014  0  3.480509  0  0  -0.280864  0  3.500831  0  0  -0.287705  -0.250627  0  3.466624  0
N  N94  1  0.80300464  0.26911478  0.18701741  1  0  -0.33095  0  3.225803  0  -1.268561  0  -0.263074  0  3.48048  0  0  -0.280927  0  3.500802  0  0  -0.287759  -0.250688  0  3.466596  0
N  N95  1  0.81298390  0.50997784  0.45613017  1  0  -0.330935  0  3.225862  0  -1.269633  0  -0.263064  0  3.480551  0  0  -0.280916  0  3.500876  0  0  -0.287729  -0.250678  0  3.466669  0
O  O96  1  0.49231598  0.00352009  0.63502699  1  0  -0.702066  0  2.056122  0  -1.225574  0  -0.631623  0  2.310141  0  0  -0.664064  0  2.301829  0  0  -0.297601  -0.608234  0  2.31493  0
O  O97  1  0.36497288  0.37265670  0.63854963  1  0  -0.702124  0  2.056022  0  -1.230042  0  -0.631655  0  2.310077  0  0  -0.66409  0  2.301763  0  0  -0.297575  -0.608282  0  2.314908  0
O  O98  1  0.36145128  0.49647961  0.01120557  1  0  -0.702118  0  2.05606  0  -1.225207  0  -0.631658  0  2.310103  0  0  -0.664097  0  2.301792  0  0  -0.297636  -0.608277  0  2.314911  0
O  O99  1  0.98879430  0.12734186  0.50768565  1  0  -0.702104  0  2.056091  0  -1.222602  0  -0.631646  0  2.310119  0  0  -0.664086  0  2.301809  0  0  -0.297575  -0.608268  0  2.314931  0
O  O100  1  0.50768544  0.99647932  0.36497284  1  0  -0.702092  0  2.056049  0  -1.225584  0  -0.631638  0  2.310092  0  0  -0.664077  0  2.30178  0  0  -0.297594  -0.608254  0  2.314894  0
O  O101  1  0.63502854  0.62734315  0.36145108  1  0  -0.702097  0  2.056018  0  -1.230067  0  -0.631638  0  2.310051  0  0  -0.664076  0  2.30174  0  0  -0.297589  -0.60825  0  2.314844  0
O  O102  1  0.63855014  0.50352177  0.98879338  1  0  -0.70209  0  2.056033  0  -1.225186  0  -0.631631  0  2.310083  0  0  -0.664064  0  2.30177  0  0  -0.297615  -0.60826  0  2.31492  0
O  O103  1  0.01120616  0.87265815  0.49231370  1  0  -0.702076  0  2.05612  0  -1.222584  0  -0.631634  0  2.310123  0  0  -0.664072  0  2.301813  0  0  -0.297566  -0.608253  0  2.314931  0
O  O104  1  0.59817544  0.18144074  0.66333002  1  0  -0.645616  0  1.959376  0  -1.20237  0  -0.579905  0  2.203271  0  0  -0.610286  0  2.193767  0  0  -0.294747  -0.558024  0  2.20892  0
O  O105  1  0.33667031  0.23849530  0.84477139  1  0  -0.645662  0  1.959299  0  -1.203796  0  -0.579919  0  2.203227  0  0  -0.610304  0  2.193722  0  0  -0.294769  -0.558045  0  2.20889  0
O  O106  1  0.15522933  0.31855896  0.08326517  1  0  -0.645679  0  1.959247  0  -1.20503  0  -0.579952  0  2.203171  0  0  -0.610334  0  2.193668  0  0  -0.294784  -0.558077  0  2.208836  0
O  O107  1  0.91673438  0.26150443  0.40182564  1  0  -0.645632  0  1.959261  0  -1.201137  0  -0.579927  0  2.203192  0  0  -0.610314  0  2.193692  0  0  -0.294765  -0.558041  0  2.208831  0
O  O108  1  0.40182307  0.81855975  0.33667014  1  0  -0.645667  0  1.959377  0  -1.202395  0  -0.579936  0  2.203289  0  0  -0.610318  0  2.193783  0  0  -0.29474  -0.558056  0  2.208939  0
O  O109  1  0.66332917  0.76150503  0.15523014  1  0  -0.645652  0  1.959366  0  -1.203777  0  -0.579925  0  2.203282  0  0  -0.610311  0  2.193776  0  0  -0.294765  -0.558049  0  2.208934  0
O  O110  1  0.84477112  0.68144148  0.91673507  1  0  -0.645708  0  1.959245  0  -1.20505  0  -0.579977  0  2.203176  0  0  -0.610362  0  2.193671  0  0  -0.294797  -0.558102  0  2.208843  0
O  O111  1  0.08326510  0.73849465  0.59817500  1  0  -0.645622  0  1.959317  0  -1.201146  0  -0.579935  0  2.203225  0  0  -0.61032  0  2.193723  0  0  -0.294767  -0.558049  0  2.208861  0
O  O112  1  0.69086153  0.96145396  0.70874664  1  0  -0.649743  0  1.971795  0  -1.21691  0  -0.591475  0  2.203775  0  0  -0.620981  0  2.19974  0  0  -0.298625  -0.570557  0  2.205813  0
O  O113  1  0.29125481  0.10039335  0.67020085  1  0  -0.649722  0  1.971907  0  -1.202708  0  -0.591461  0  2.203901  0  0  -0.620959  0  2.199875  0  0  -0.29858  -0.570541  0  2.205936  0
O  O114  1  0.32979888  0.53854531  0.77059411  1  0  -0.649717  0  1.971937  0  -1.199297  0  -0.591453  0  2.203912  0  0  -0.620956  0  2.19989  0  0  -0.298624  -0.570534  0  2.205947  0
O  O115  1  0.22940605  0.39960643  0.30914021  1  0  -0.64974  0  1.97187  0  -1.200479  0  -0.59148  0  2.203832  0  0  -0.620985  0  2.199806  0  0  -0.298619  -0.570561  0  2.205868  0
O  O116  1  0.30914086  0.03854609  0.29125456  1  0  -0.649773  0  1.971803  0  -1.216941  0  -0.591523  0  2.203765  0  0  -0.621023  0  2.19974  0  0  -0.298661  -0.570604  0  2.205801  0
O  O117  1  0.70874467  0.89960537  0.32980067  1  0  -0.64977  0  1.971905  0  -1.202703  0  -0.591518  0  2.203865  0  0  -0.621018  0  2.199847  0  0  -0.298625  -0.570599  0  2.205902  0
O  O118  1  0.67020060  0.46145531  0.22940477  1  0  -0.649732  0  1.971941  0  -1.199298  0  -0.591467  0  2.203923  0  0  -0.620973  0  2.199903  0  0  -0.298626  -0.570547  0  2.205957  0
O  O119  1  0.77059343  0.60039382  0.69085955  1  0  -0.649737  0  1.97184  0  -1.200488  0  -0.591472  0  2.20382  0  0  -0.620976  0  2.199793  0  0  -0.298606  -0.57055  0  2.205855  0
O  O120  1  0.64414696  0.76919046  0.88705476  1  0  -0.675958  0  2.078323  0  -1.202131  0  -0.598872  0  2.323753  0  0  -0.630683  0  2.315145  0  0  -0.284169  -0.576311  0  2.328704  0
O  O121  1  0.11294741  0.96879879  0.65624665  1  0  -0.675954  0  2.078314  0  -1.202582  0  -0.598864  0  2.323744  0  0  -0.630683  0  2.315177  0  0  -0.28416  -0.576305  0  2.328695  0
O  O122  1  0.34375438  0.73080720  0.62504486  1  0  -0.675959  0  2.078314  0  -1.207023  0  -0.59887  0  2.323727  0  0  -0.630682  0  2.315145  0  0  -0.284152  -0.576312  0  2.328681  0
O  O123  1  0.37495595  0.53120166  0.35585208  1  0  -0.675919  0  2.078358  0  -1.204397  0  -0.598839  0  2.323771  0  0  -0.630658  0  2.315198  0  0  -0.284149  -0.57628  0  2.328724  0
O  O124  1  0.35585252  0.23080745  0.11294677  1  0  -0.675969  0  2.078327  0  -1.202078  0  -0.59887  0  2.323698  0  0  -0.630689  0  2.315136  0  0  -0.284159  -0.57631  0  2.32865  0
O  O125  1  0.88705304  0.03120166  0.34375359  1  0  -0.675964  0  2.078285  0  -1.202574  0  -0.598888  0  2.323685  0  0  -0.630691  0  2.315089  0  0  -0.284146  -0.576328  0  2.328638  0
O  O126  1  0.65624510  0.26919224  0.37495490  1  0  -0.675916  0  2.078294  0  -1.207192  0  -0.598818  0  2.323705  0  0  -0.630632  0  2.315125  0  0  -0.28412  -0.57626  0  2.328658  0
O  O127  1  0.62504451  0.46879835  0.64414727  1  0  -0.67593  0  2.078347  0  -1.204394  0  -0.598838  0  2.323762  0  0  -0.630648  0  2.315173  0  0  -0.284139  -0.576278  0  2.328715  0
