# generated using pymatgen
data_LiBH12C6O3F4
_symmetry_space_group_name_H-M   'P 1'
_cell_length_a   8.18977153
_cell_length_b   8.83649664
_cell_length_c   13.77601604
_cell_angle_alpha   94.38756440
_cell_angle_beta   90.00068039
_cell_angle_gamma   89.99981912
_symmetry_Int_Tables_number   1
_chemical_formula_structural   LiBH12C6O3F4
_chemical_formula_sum   'Li4 B4 H48 C24 O12 F16'
_cell_volume   994.03327461
_cell_formula_units_Z   4
loop_
 _symmetry_equiv_pos_site_id
 _symmetry_equiv_pos_as_xyz
  1  'x, y, z'
loop_
 _atom_site_type_symbol
 _atom_site_label
 _atom_site_symmetry_multiplicity
 _atom_site_fract_x
 _atom_site_fract_y
 _atom_site_fract_z
 _atom_site_occupancy
 _atom_site_hle17_bader_spin_density
 _atom_site_hle17_ddec_charge
 _atom_site_hle17_ddec_spin_density
 _atom_site_hle17_ddec_sum_bond_order
 _atom_site_hle17_magmom
 _atom_site_hse06_10hf_bader_spin_density
 _atom_site_hse06_10hf_ddec_charge
 _atom_site_hse06_10hf_ddec_spin_density
 _atom_site_hse06_10hf_ddec_sum_bond_order
 _atom_site_hse06_10hf_magmom
 _atom_site_hse06_bader_spin_density
 _atom_site_hse06_ddec_charge
 _atom_site_hse06_ddec_spin_density
 _atom_site_hse06_ddec_sum_bond_order
 _atom_site_hse06_magmom
 _atom_site_pbe_bader_spin_density
 _atom_site_pbe_cm5_charge
 _atom_site_pbe_ddec_charge
 _atom_site_pbe_ddec_spin_density
 _atom_site_pbe_ddec_sum_bond_order
 _atom_site_pbe_magmom
Li  Li0  1  0.94378811  0.14263530  0.73408452  1  0  0.858496  0  0.382115  0  0  0.8012  0  0.507016  0  0  0.813206  0  0.487016  0  0  0.49697  0.792582  0  0.521387  0
Li  Li1  1  0.44378633  0.35735849  0.76591580  1  0  0.858507  0  0.382073  0  0  0.801224  0  0.506956  0  0  0.813234  0  0.486948  0  0  0.496956  0.792602  0  0.52133  0
Li  Li2  1  0.05621647  0.85736181  0.26590634  1  0  0.85853  0  0.382059  0  0  0.801238  0  0.506959  0  0  0.813236  0  0.48697  0  0  0.496988  0.792624  0  0.521323  0
Li  Li3  1  0.55622314  0.64263512  0.23409158  1  0  0.858545  0  0.382024  0  0  0.801291  0  0.506933  0  0  0.813235  0  0.486955  0  0  0.496967  0.792615  0  0.52133  0
B  B4  1  0.65339182  0.10412590  0.85616715  1  0  1.258803  0  2.826153  0  0  1.085655  0  3.220558  0  0  1.126104  0  3.168167  0  0  0.04533  1.057443  0  3.25661  0
B  B5  1  0.15337522  0.39586964  0.64382980  1  0  1.258597  0  2.826515  0  0  1.085393  0  3.221074  0  0  1.125843  0  3.168685  0  0  0.045297  1.057183  0  3.257117  0
B  B6  1  0.34662620  0.89587230  0.14383176  1  0  1.258594  0  2.826681  0  0  1.085517  0  3.221005  0  0  1.125854  0  3.16882  0  0  0.045238  1.057213  0  3.257212  0
B  B7  1  0.84663304  0.60413648  0.35617314  1  0  1.258716  0  2.826285  0  0  1.085594  0  3.220661  0  0  1.126026  0  3.168311  0  0  0.045337  1.057387  0  3.256695  0
H  H8  1  0.55123501  0.33983348  0.52389375  1  0  0.052878  0  0.91629  0  0  0.066726  0  0.981311  0  0  0.067574  0  0.979805  0  0  0.102251  0.065492  0  0.983053  0
H  H9  1  0.05123573  0.16016791  0.97610860  1  0  0.05289  0  0.916258  0  0  0.066759  0  0.981269  0  0  0.067606  0  0.979767  0  0  0.102246  0.065524  0  0.98301  0
H  H10  1  0.44875981  0.66017489  0.47611294  1  0  0.052876  0  0.916234  0  0  0.066734  0  0.981255  0  0  0.06758  0  0.979748  0  0  0.102223  0.065498  0  0.982995  0
H  H11  1  0.94875909  0.83982234  0.02388917  1  0  0.052939  0  0.916171  0  0  0.066754  0  0.981168  0  0  0.067598  0  0.979662  0  0  0.10223  0.065523  0  0.982904  0
H  H12  1  0.76969416  0.33389917  0.52889308  1  0  0.074958  0  0.919102  0  0  0.087529  0  0.984772  0  0  0.088509  0  0.983753  0  0  0.111081  0.086753  0  0.985485  0
H  H13  1  0.26969475  0.16610177  0.97110858  1  0  0.074937  0  0.919183  0  0  0.087519  0  0.984856  0  0  0.088499  0  0.983834  0  0  0.111087  0.086742  0  0.98557  0
H  H14  1  0.23030189  0.66610698  0.47110405  1  0  0.074937  0  0.919101  0  0  0.087551  0  0.984754  0  0  0.088524  0  0.983741  0  0  0.111105  0.08677  0  0.985476  0
H  H15  1  0.73030129  0.83389074  0.02889148  1  0  0.074959  0  0.919301  0  0  0.087531  0  0.984915  0  0  0.088501  0  0.983911  0  0  0.111093  0.086751  0  0.98564  0
H  H16  1  0.54785287  0.09929923  0.61663545  1  0  0.061197  0  0.923585  0  0  0.07247  0  0.992788  0  0  0.074068  0  0.990417  0  0  0.108537  0.071303  0  0.994664  0
H  H17  1  0.04784844  0.40069763  0.88336664  1  0  0.061177  0  0.923598  0  0  0.07244  0  0.992795  0  0  0.074036  0  0.99042  0  0  0.108545  0.071274  0  0.99467  0
H  H18  1  0.45214805  0.90070916  0.38336761  1  0  0.061125  0  0.923545  0  0  0.072405  0  0.992768  0  0  0.073991  0  0.990413  0  0  0.108522  0.071234  0  0.994666  0
H  H19  1  0.95214393  0.59929487  0.11663633  1  0  0.061107  0  0.923602  0  0  0.072393  0  0.992816  0  0  0.073988  0  0.990437  0  0  0.108532  0.071233  0  0.994689  0
H  H20  1  0.62334339  0.08129377  0.49416894  1  0  0.039374  0  0.94235  0  0  0.052814  0  1.013624  0  0  0.052357  0  1.014091  0  0  0.098897  0.053193  0  1.013219  0
H  H21  1  0.12334711  0.41870734  0.00583147  1  0  0.039346  0  0.942409  0  0  0.052786  0  1.013653  0  0  0.052328  0  1.014116  0  0  0.098898  0.053166  0  1.013245  0
H  H22  1  0.37664899  0.91871349  0.50583261  1  0  0.039367  0  0.942356  0  0  0.052798  0  1.013645  0  0  0.052314  0  1.014131  0  0  0.098914  0.053178  0  1.013242  0
H  H23  1  0.87664649  0.58128288  0.99417210  1  0  0.039294  0  0.942448  0  0  0.052723  0  1.01375  0  0  0.052241  0  1.014235  0  0  0.098868  0.053108  0  1.013342  0
H  H24  1  0.72376634  0.86045794  0.63759917  1  0  0.061437  0  0.932337  0  0  0.074227  0  0.998656  0  0  0.075056  0  0.997808  0  0  0.102641  0.073725  0  0.999023  0
H  H25  1  0.22375749  0.63954219  0.86240031  1  0  0.061535  0  0.932537  0  0  0.074334  0  0.998804  0  0  0.075167  0  0.997953  0  0  0.102685  0.073829  0  0.999173  0
H  H26  1  0.27622604  0.13953916  0.36239314  1  0  0.061521  0  0.932398  0  0  0.074262  0  0.998709  0  0  0.075095  0  0.997858  0  0  0.102677  0.073764  0  0.999077  0
H  H27  1  0.77623489  0.36045031  0.13760265  1  0  0.061542  0  0.932336  0  0  0.074275  0  0.998671  0  0  0.075106  0  0.997822  0  0  0.102681  0.073773  0  0.999042  0
H  H28  1  0.77586173  0.87235497  0.51182270  1  0  0.06367  0  0.929226  0  0  0.077497  0  0.994737  0  0  0.078149  0  0.993767  0  0  0.105553  0.076827  0  0.99587  0
H  H29  1  0.27586158  0.62764847  0.98817369  1  0  0.063766  0  0.929273  0  0  0.077567  0  0.994771  0  0  0.07822  0  0.9938  0  0  0.105584  0.076894  0  0.995908  0
H  H30  1  0.22413309  0.12765008  0.48816857  1  0  0.063708  0  0.929124  0  0  0.077473  0  0.994668  0  0  0.078128  0  0.993694  0  0  0.105523  0.076806  0  0.995805  0
H  H31  1  0.72413079  0.37234631  0.01182794  1  0  0.063675  0  0.929127  0  0  0.077418  0  0.994702  0  0  0.078073  0  0.993725  0  0  0.105502  0.076751  0  0.995833  0
H  H32  1  0.99576888  0.74199587  0.60201188  1  0  0.076581  0  0.928908  0  0  0.087485  0  0.995727  0  0  0.08827  0  0.994681  0  0  0.10609  0.086777  0  0.996739  0
H  H33  1  0.49576035  0.75800937  0.89798685  1  0  0.076549  0  0.928977  0  0  0.087489  0  0.99575  0  0  0.088275  0  0.994699  0  0  0.106123  0.086776  0  0.996769  0
H  H34  1  0.00422350  0.25799783  0.39797808  1  0  0.076582  0  0.928861  0  0  0.087539  0  0.995703  0  0  0.088328  0  0.994653  0  0  0.106122  0.086835  0  0.996707  0
H  H35  1  0.50422714  0.24199220  0.10201658  1  0  0.076613  0  0.928882  0  0  0.087496  0  0.995729  0  0  0.088286  0  0.994673  0  0  0.106114  0.08679  0  0.996729  0
H  H36  1  0.06497044  0.91066982  0.55162932  1  0  0.058152  0  0.9535  0  0  0.069915  0  1.021828  0  0  0.0706  0  1.021639  0  0  0.105002  0.069346  0  1.022125  0
H  H37  1  0.56496455  0.58933292  0.94836774  1  0  0.058208  0  0.953441  0  0  0.069972  0  1.021745  0  0  0.070652  0  1.021566  0  0  0.105022  0.069402  0  1.022037  0
H  H38  1  0.93502560  0.08932500  0.44836433  1  0  0.058133  0  0.953496  0  0  0.069931  0  1.021893  0  0  0.070615  0  1.021705  0  0  0.105022  0.069366  0  1.022185  0
H  H39  1  0.43502783  0.41066865  0.05163642  1  0  0.058225  0  0.95349  0  0  0.069998  0  1.021786  0  0  0.07068  0  1.021604  0  0  0.105038  0.06943  0  1.022075  0
H  H40  1  0.27171979  0.97834474  0.68242825  1  0  0.056135  0  0.919421  0  0  0.067872  0  0.989585  0  0  0.069424  0  0.987089  0  0  0.104845  0.066396  0  0.991932  0
H  H41  1  0.77170659  0.52166206  0.81757699  1  0  0.056026  0  0.919322  0  0  0.067793  0  0.989519  0  0  0.069341  0  0.98703  0  0  0.104798  0.06632  0  0.991859  0
H  H42  1  0.72827381  0.02165458  0.31757143  1  0  0.055968  0  0.919343  0  0  0.067764  0  0.989494  0  0  0.069308  0  0.987009  0  0  0.104787  0.066281  0  0.991855  0
H  H43  1  0.22829189  0.47835198  0.18242926  1  0  0.056062  0  0.919372  0  0  0.067793  0  0.98958  0  0  0.06934  0  0.987098  0  0  0.104808  0.066317  0  0.991916  0
H  H44  1  0.22730899  0.79176228  0.71948965  1  0  0.080778  0  0.934293  0  0  0.095853  0  0.993971  0  0  0.096533  0  0.993316  0  0  0.107162  0.095324  0  0.994444  0
H  H45  1  0.72730050  0.70824236  0.78051372  1  0  0.080656  0  0.934295  0  0  0.095773  0  0.993999  0  0  0.09645  0  0.99334  0  0  0.107127  0.095238  0  0.994484  0
H  H46  1  0.77269315  0.20823707  0.28050713  1  0  0.080698  0  0.934332  0  0  0.095777  0  0.994045  0  0  0.096456  0  0.993387  0  0  0.10711  0.095247  0  0.994512  0
H  H47  1  0.27269065  0.29176716  0.21949085  1  0  0.080728  0  0.934398  0  0  0.0958  0  0.994097  0  0  0.096482  0  0.993438  0  0  0.107093  0.095264  0  0.99457  0
H  H48  1  0.12399740  0.90773793  0.87900315  1  0  0.049661  0  0.918412  0  0  0.063963  0  0.984729  0  0  0.065016  0  0.982879  0  0  0.101204  0.063335  0  0.98586  0
H  H49  1  0.62399461  0.59226467  0.62099650  1  0  0.049641  0  0.918406  0  0  0.063969  0  0.984715  0  0  0.065021  0  0.982868  0  0  0.1012  0.063342  0  0.985852  0
H  H50  1  0.87600109  0.09225914  0.12099425  1  0  0.049667  0  0.918443  0  0  0.063976  0  0.984773  0  0  0.065035  0  0.982921  0  0  0.101185  0.063351  0  0.985908  0
H  H51  1  0.37600631  0.40773690  0.37900766  1  0  0.04966  0  0.918378  0  0  0.063964  0  0.984702  0  0  0.065018  0  0.982851  0  0  0.101201  0.063341  0  0.985839  0
H  H52  1  0.33067931  0.96473142  0.85992325  1  0  0.073087  0  0.93431  0  0  0.08558  0  1.001027  0  0  0.08618  0  1.000314  0  0  0.107946  0.08498  0  1.001697  0
H  H53  1  0.83067711  0.53527412  0.64008379  1  0  0.073087  0  0.934272  0  0  0.085584  0  1.001007  0  0  0.086187  0  1.000293  0  0  0.107978  0.084986  0  1.001677  0
H  H54  1  0.66932040  0.03526452  0.14007336  1  0  0.073109  0  0.934415  0  0  0.085596  0  1.001143  0  0  0.086191  0  1.00045  0  0  0.107963  0.084982  0  1.001846  0
H  H55  1  0.16932504  0.46473993  0.35992174  1  0  0.073154  0  0.934287  0  0  0.085612  0  1.001041  0  0  0.086219  0  1.000318  0  0  0.107978  0.085011  0  1.001723  0
C  C56  1  0.65687215  0.30151241  0.56571623  1  0  0.06461  0  3.649438  0  0  0.00511  0  3.921743  0  0  0.011154  0  3.927721  0  0  -0.061263  0.001122  0  3.917992  0
C  C57  1  0.15687677  0.19849329  0.93428852  1  0  0.064484  0  3.649411  0  0  0.004876  0  3.921829  0  0  0.010925  0  3.927797  0  0  -0.061384  0.000887  0  3.91808  0
C  C58  1  0.34313000  0.69849484  0.43428749  1  0  0.064468  0  3.649275  0  0  0.004898  0  3.921723  0  0  0.010962  0  3.92768  0  0  -0.061369  0.000918  0  3.917974  0
C  C59  1  0.84311927  0.80150036  0.06571015  1  0  0.064234  0  3.64948  0  0  0.004884  0  3.921656  0  0  0.010934  0  3.927622  0  0  -0.061348  0.000895  0  3.91792  0
C  C60  1  0.64817992  0.13146694  0.56871863  1  0  0.065141  0  3.664484  0  0  0.005306  0  3.938827  0  0  0.011486  0  3.945084  0  0  -0.061868  0.001102  0  3.934411  0
C  C61  1  0.14818145  0.36853994  0.93128177  1  0  0.065226  0  3.664497  0  0  0.005453  0  3.938767  0  0  0.011654  0  3.944992  0  0  -0.061829  0.001244  0  3.934351  0
C  C62  1  0.35181734  0.86853805  0.43128280  1  0  0.065275  0  3.664327  0  0  0.005435  0  3.938748  0  0  0.011652  0  3.944969  0  0  -0.061868  0.001211  0  3.934355  0
C  C63  1  0.85181581  0.63145598  0.06871847  1  0  0.065551  0  3.664367  0  0  0.00564  0  3.938753  0  0  0.01186  0  3.944972  0  0  -0.061783  0.001413  0  3.934355  0
C  C64  1  0.80899278  0.91110633  0.58726936  1  0  0.049456  0  3.656376  0  0  -0.012682  0  3.933825  0  0  -0.006756  0  3.939572  0  0  -0.069291  -0.016756  0  3.930025  0
C  C65  1  0.30897780  0.58889590  0.91272865  1  0  0.049177  0  3.65666  0  0  -0.012936  0  3.934049  0  0  -0.007007  0  3.939785  0  0  -0.069363  -0.017006  0  3.930248  0
C  C66  1  0.19100570  0.08890212  0.41272281  1  0  0.049485  0  3.656025  0  0  -0.012423  0  3.933355  0  0  -0.006496  0  3.939089  0  0  -0.069186  -0.016508  0  3.929573  0
C  C67  1  0.69100847  0.41110001  0.08727304  1  0  0.049373  0  3.656208  0  0  -0.012602  0  3.933524  0  0  -0.006672  0  3.939256  0  0  -0.069263  -0.016683  0  3.929736  0
C  C68  1  0.98317373  0.86625149  0.60630783  1  0  0.060085  0  3.636229  0  0  0.002192  0  3.906995  0  0  0.008277  0  3.912497  0  0  -0.068377  -0.001788  0  3.90328  0
C  C69  1  0.48316188  0.63375264  0.89369076  1  0  0.06014  0  3.636219  0  0  0.002219  0  3.90694  0  0  0.008303  0  3.912438  0  0  -0.068382  -0.00176  0  3.903224  0
C  C70  1  0.01682475  0.13374333  0.39368509  1  0  0.060035  0  3.636238  0  0  0.00187  0  3.907318  0  0  0.007958  0  3.912815  0  0  -0.06847  -0.002117  0  3.903613  0
C  C71  1  0.51682806  0.36624668  0.10631038  1  0  0.059874  0  3.636269  0  0  0.001949  0  3.90704  0  0  0.008043  0  3.912522  0  0  -0.068464  -0.002034  0  3.903331  0
C  C72  1  0.19218091  0.91219782  0.72837733  1  0  0.055458  0  3.649338  0  0  -0.004734  0  3.922905  0  0  0.001265  0  3.928449  0  0  -0.06698  -0.008499  0  3.918978  0
C  C73  1  0.69217632  0.58781030  0.77162380  1  0  0.055908  0  3.648756  0  0  -0.004444  0  3.922598  0  0  0.001554  0  3.928148  0  0  -0.066891  -0.008208  0  3.918678  0
C  C74  1  0.80782123  0.08780267  0.27161661  1  0  0.055812  0  3.649038  0  0  -0.004423  0  3.922698  0  0  0.001583  0  3.928253  0  0  -0.066861  -0.008182  0  3.918767  0
C  C75  1  0.30782339  0.41219808  0.22837998  1  0  0.055701  0  3.649352  0  0  -0.004517  0  3.922953  0  0  0.001482  0  3.928497  0  0  -0.066843  -0.008268  0  3.919028  0
C  C76  1  0.20474022  0.97291249  0.83314713  1  0  0.059042  0  3.664228  0  0  -0.004337  0  3.944788  0  0  0.00191  0  3.950389  0  0  -0.065714  -0.008241  0  3.940505  0
C  C77  1  0.70473371  0.52708765  0.66685586  1  0  0.058913  0  3.664201  0  0  -0.004483  0  3.944935  0  0  0.00175  0  3.950539  0  0  -0.065824  -0.008405  0  3.94068  0
C  C78  1  0.79525582  0.02708346  0.16684731  1  0  0.05895  0  3.664187  0  0  -0.004423  0  3.944868  0  0  0.001796  0  3.950512  0  0  -0.065721  -0.008358  0  3.940646  0
C  C79  1  0.29526600  0.47291846  0.33314854  1  0  0.058861  0  3.664268  0  0  -0.004463  0  3.944862  0  0  0.00179  0  3.950455  0  0  -0.065796  -0.008403  0  3.940631  0
O  O80  1  0.80032623  0.07386869  0.60157467  1  0  -0.357934  0  2.296622  0  0  -0.288204  0  2.554909  0  0  -0.303086  0  2.554593  0  0  -0.244802  -0.277824  0  2.554899  0
O  O81  1  0.30032080  0.42613221  0.89842503  1  0  -0.357832  0  2.296526  0  0  -0.288126  0  2.554778  0  0  -0.303016  0  2.554454  0  0  -0.244801  -0.277747  0  2.554766  0
O  O82  1  0.19967347  0.92613065  0.39842212  1  0  -0.35803  0  2.296371  0  0  -0.288306  0  2.554601  0  0  -0.303186  0  2.554264  0  0  -0.244864  -0.277922  0  2.554604  0
O  O83  1  0.69967280  0.57386143  0.10157727  1  0  -0.357941  0  2.296513  0  0  -0.288186  0  2.554713  0  0  -0.303087  0  2.554422  0  0  -0.244807  -0.277821  0  2.554757  0
O  O84  1  0.02444089  0.93110953  0.70167616  1  0  -0.378867  0  2.325867  0  0  -0.308239  0  2.582181  0  0  -0.322968  0  2.580898  0  0  -0.28413  -0.297949  0  2.582653  0
O  O85  1  0.52442713  0.56889782  0.79832159  1  0  -0.379039  0  2.325819  0  0  -0.308345  0  2.582182  0  0  -0.323068  0  2.580888  0  0  -0.284152  -0.298057  0  2.582656  0
O  O86  1  0.97555515  0.06888300  0.29831955  1  0  -0.378886  0  2.325887  0  0  -0.308207  0  2.582297  0  0  -0.322934  0  2.581009  0  0  -0.284138  -0.297919  0  2.582764  0
O  O87  1  0.47556891  0.43110262  0.20168106  1  0  -0.37888  0  2.325853  0  0  -0.30822  0  2.582152  0  0  -0.322957  0  2.580874  0  0  -0.284139  -0.297939  0  2.582632  0
O  O88  1  0.15319937  0.12816948  0.83734539  1  0  -0.352484  0  2.302692  0  0  -0.285096  0  2.564245  0  0  -0.299842  0  2.564461  0  0  -0.237922  -0.274923  0  2.563991  0
O  O89  1  0.65320014  0.37183626  0.66265426  1  0  -0.352475  0  2.302924  0  0  -0.28512  0  2.564497  0  0  -0.299847  0  2.564703  0  0  -0.237921  -0.274943  0  2.564248  0
O  O90  1  0.84680034  0.87182759  0.16265273  1  0  -0.352412  0  2.302697  0  0  -0.285096  0  2.56418  0  0  -0.299851  0  2.564436  0  0  -0.237893  -0.274933  0  2.563965  0
O  O91  1  0.34681056  0.62816986  0.33734795  1  0  -0.352393  0  2.302805  0  0  -0.285018  0  2.564311  0  0  -0.299797  0  2.564568  0  0  -0.237869  -0.274846  0  2.564095  0
F  F92  1  0.79627337  0.19260370  0.83816230  1  0  -0.558023  0  1.03317  0  0  -0.501969  0  1.22668  0  0  -0.514054  0  1.201061  0  0  -0.18598  -0.49317  0  1.244715  0
F  F93  1  0.29626476  0.30739267  0.66183495  1  0  -0.558019  0  1.033173  0  0  -0.501949  0  1.226679  0  0  -0.514032  0  1.201057  0  0  -0.186029  -0.493147  0  1.244716  0
F  F94  1  0.20373610  0.80739910  0.16182377  1  0  -0.5579  0  1.033227  0  0  -0.50185  0  1.226712  0  0  -0.513968  0  1.201158  0  0  -0.185926  -0.493086  0  1.244799  0
F  F95  1  0.70373861  0.69260546  0.33817411  1  0  -0.557963  0  1.033116  0  0  -0.501928  0  1.226612  0  0  -0.514026  0  1.20103  0  0  -0.185943  -0.493132  0  1.244671  0
F  F96  1  0.51681969  0.17615692  0.81413027  1  0  -0.549566  0  1.062727  0  0  -0.490626  0  1.25862  0  0  -0.504572  0  1.234755  0  0  -0.183381  -0.481204  0  1.275665  0
F  F97  1  0.01680907  0.32383322  0.68586690  1  0  -0.54957  0  1.062899  0  0  -0.490575  0  1.258765  0  0  -0.504518  0  1.234904  0  0  -0.183358  -0.481153  0  1.275812  0
F  F98  1  0.48318612  0.82383895  0.18587868  1  0  -0.549577  0  1.062851  0  0  -0.490968  0  1.258979  0  0  -0.504511  0  1.234848  0  0  -0.183338  -0.481158  0  1.275765  0
F  F99  1  0.98318941  0.67617408  0.31412811  1  0  -0.549631  0  1.062803  0  0  -0.490647  0  1.258652  0  0  -0.504595  0  1.234801  0  0  -0.183428  -0.481223  0  1.275699  0
F  F100  1  0.63137880  0.10044420  0.95631092  1  0  -0.508295  0  1.030714  0  0  -0.449058  0  1.21465  0  0  -0.463703  0  1.192547  0  0  -0.138258  -0.438764  0  1.230048  0
F  F101  1  0.13136015  0.39954457  0.54368625  1  0  -0.508243  0  1.030814  0  0  -0.449055  0  1.21481  0  0  -0.46367  0  1.192679  0  0  -0.13826  -0.438757  0  1.23021  0
F  F102  1  0.36866120  0.89954944  0.04369065  1  0  -0.508276  0  1.030872  0  0  -0.449079  0  1.214837  0  0  -0.463703  0  1.192747  0  0  -0.138308  -0.438824  0  1.230299  0
F  F103  1  0.86866520  0.60046383  0.45631463  1  0  -0.508266  0  1.030819  0  0  -0.449116  0  1.214833  0  0  -0.463687  0  1.19266  0  0  -0.138307  -0.438832  0  1.230236  0
F  F104  1  0.67111932  0.95763966  0.81018265  1  0  -0.513762  0  1.020526  0  0  -0.456335  0  1.199019  0  0  -0.470072  0  1.176488  0  0  -0.135469  -0.446456  0  1.214626  0
F  F105  1  0.17109754  0.54235151  0.68981383  1  0  -0.513679  0  1.020603  0  0  -0.456183  0  1.199039  0  0  -0.469967  0  1.176554  0  0  -0.135426  -0.446307  0  1.214652  0
F  F106  1  0.32889748  0.04235287  0.18981524  1  0  -0.513741  0  1.02066  0  0  -0.456184  0  1.199016  0  0  -0.470011  0  1.176596  0  0  -0.135449  -0.446345  0  1.214678  0
F  F107  1  0.82890949  0.45765232  0.31019190  1  0  -0.513736  0  1.020532  0  0  -0.456268  0  1.198967  0  0  -0.470033  0  1.176468  0  0  -0.13544  -0.446389  0  1.214571  0
