# generated using pymatgen
data_Al2H13C26O10F3
_symmetry_space_group_name_H-M   'P 1'
_cell_length_a   6.64413798
_cell_length_b   11.13759670
_cell_length_c   17.75757630
_cell_angle_alpha   84.34789924
_cell_angle_beta   78.76054617
_cell_angle_gamma   73.08615868
_symmetry_Int_Tables_number   1
_chemical_formula_structural   Al2H13C26O10F3
_chemical_formula_sum   'Al2 H13 C26 O10 F3'
_cell_volume   1231.87935472
_cell_formula_units_Z   1
loop_
 _symmetry_equiv_pos_site_id
 _symmetry_equiv_pos_as_xyz
  1  'x, y, z'
loop_
 _atom_site_type_symbol
 _atom_site_label
 _atom_site_symmetry_multiplicity
 _atom_site_fract_x
 _atom_site_fract_y
 _atom_site_fract_z
 _atom_site_occupancy
 _atom_site_pbe_bader_charge
 _atom_site_pbe_bader_spin_density
 _atom_site_pbe_cm5_charge
 _atom_site_pbe_ddec_charge
 _atom_site_pbe_ddec_spin_density
 _atom_site_pbe_ddec_sum_bond_order
 _atom_site_pbe_magmom
Al  Al0  1  0.51330426  0.49619096  0.49353111  1  2.505301  0  0.399104  1.643985  0  2.579443  0
Al  Al1  1  0.01299066  0.49466920  0.49509603  1  2.502761  0  0.396699  1.64228  0  2.580926  0
H  H2  1  0.29503672  0.36224969  0.55894747  1  0.624711  0  0.352818  0.429159  0  0.859401  0
H  H3  1  0.73306837  0.63231249  0.43402107  1  0.639058  0  0.354955  0.435791  0  0.849723  0
H  H4  1  0.67283064  0.52037275  0.26109268  1  0.101342  0  0.111562  0.120706  0  0.996592  0
H  H5  1  0.73170330  0.53602853  0.11726774  1  0.111571  0  0.108637  0.116906  0  0.997169  0
H  H6  1  0.09162210  0.41975180  0.26528403  1  0.151455  0  0.119898  0.14886  0  0.982133  0
H  H7  1  0.91430686  0.58110001  0.72694956  1  0.127749  0  0.117915  0.146951  0  0.985815  0
H  H8  1  0.32948267  0.49008839  0.72264369  1  0.092451  0  0.109985  0.119683  0  0.999638  0
H  H9  1  0.24514056  0.48801703  0.86649112  1  0.105945  0  0.107517  0.117266  0  1.002878  0
H  H10  1  0.70793546  0.11644408  0.42893782  1  0.126559  0  0.119402  0.147248  0  0.981557  0
H  H11  1  0.23101906  0.09986837  0.62729498  1  0.037722  0  0.098632  0.106748  0  0.97822  0
H  H12  1  0.40927573  0.11186910  0.53929205  1  0.048324  0  0.09514  0.105535  0  1.009113  0
H  H13  1  0.52999136  0.87599642  0.53460676  1  0.08622  0  0.096176  0.112295  0  1.008422  0
H  H14  1  0.35064076  0.86444176  0.62203701  1  0.065933  0  0.101569  0.114061  0  0.973095  0
C  C15  1  0.86556062  0.27009253  0.49722271  1  1.587866  0  0.273242  0.65103  0  4.089513  0
C  C16  1  0.68580042  0.52175539  0.63128594  1  1.588815  0  0.263528  0.63241  0  4.113627  0
C  C17  1  0.16302800  0.72113214  0.48721236  1  1.55887  0  0.272197  0.669453  0  4.096136  0
C  C18  1  0.33392382  0.47296522  0.35730857  1  1.542132  0  0.265551  0.634749  0  4.106939  0
C  C19  1  0.37861380  0.47078899  0.27174849  1  0.033562  0  -0.011237  -0.017452  0  3.980209  0
C  C20  1  0.56027940  0.50166103  0.22984737  1  -0.030039  0  -0.084388  -0.10652  0  3.988788  0
C  C21  1  0.59229781  0.51092724  0.15019392  1  -0.052205  0  -0.074335  -0.095307  0  3.939305  0
C  C22  1  0.44383221  0.48897418  0.10973270  1  0.139174  0  -0.003377  0.033595  0  4.12294  0
C  C23  1  0.26752198  0.45354406  0.15366116  1  0.387728  0  0.106321  0.246144  0  4.026721  0
C  C24  1  0.23200886  0.44478812  0.23308414  1  0.091657  0  -0.088725  -0.217833  0  3.974241  0
C  C25  1  0.47017064  0.50386135  0.02900049  1  -0.357493  0  -0.03398  -0.072935  0  4.114867  0
C  C26  1  0.49786775  0.51957624  0.95918504  1  0.037346  0  -0.036602  -0.079515  0  4.118225  0
C  C27  1  0.53344933  0.53071038  0.87829588  1  0.118465  0  -0.002377  0.037775  0  4.125194  0
C  C28  1  0.71776787  0.56021550  0.83653530  1  0.454467  0  0.106083  0.24625  0  4.02375  0
C  C29  1  0.76764415  0.56107465  0.75720665  1  0.015739  0  -0.090685  -0.222151  0  3.981012  0
C  C30  1  0.62733634  0.53341552  0.71625259  1  -0.069832  0  -0.013379  -0.018221  0  3.986961  0
C  C31  1  0.43711858  0.50974499  0.75578533  1  -0.008059  0  -0.087092  -0.112  0  3.997607  0
C  C32  1  0.39083294  0.50815800  0.83542252  1  0.019302  0  -0.076133  -0.098868  0  3.945888  0
C  C33  1  0.94567690  0.13137081  0.49297844  1  0.001034  0  -0.0042  -0.051464  0  3.988005  0
C  C34  1  0.09086687  0.86040310  0.48606996  1  0.052485  0  -0.015028  -0.196543  0  3.962533  0
C  C35  1  0.12212232  0.05967694  0.52427531  1  -0.074598  0  -0.006697  0.045188  0  3.88976  0
C  C36  1  0.91629219  0.93543569  0.45279593  1  0.420169  0  0.108595  0.276547  0  4.03684  0
C  C37  1  0.19029803  0.92908201  0.52101390  1  0.043257  0  0.002427  0.087357  0  3.889807  0
C  C38  1  0.84377152  0.06540560  0.45607935  1  0.061516  0  -0.092995  -0.238251  0  3.989349  0
C  C39  1  0.29176339  0.06374594  0.56936773  1  0.015328  0  -0.14996  -0.19471  0  3.870457  0
C  C40  1  0.36805424  0.91562896  0.56609444  1  -0.055048  0  -0.148057  -0.196421  0  3.855489  0
O  O41  1  0.67659938  0.32266527  0.48491779  1  -1.259958  0  -0.23021  -0.582204  0  2.325576  0
O  O42  1  0.86659094  0.53595868  0.59866146  1  -1.255772  0  -0.239133  -0.58878  0  2.331417  0
O  O43  1  0.03258800  0.66318018  0.47654923  1  -1.254715  0  -0.231578  -0.596897  0  2.370434  0
O  O44  1  0.47183149  0.49848850  0.38922745  1  -1.258753  0  -0.237801  -0.598255  0  2.354445  0
O  O45  1  0.35193089  0.66990052  0.50022130  1  -1.255036  0  -0.228096  -0.577003  0  2.312634  0
O  O46  1  0.15845805  0.45349455  0.39174999  1  -1.257918  0  -0.23851  -0.587971  0  2.335843  0
O  O47  1  0.99277433  0.32598130  0.51373139  1  -1.261091  0  -0.230674  -0.589901  0  2.331808  0
O  O48  1  0.55200507  0.49425198  0.59821894  1  -1.264736  0  -0.239062  -0.60289  0  2.368102  0
O  O49  1  0.27001406  0.44340391  0.53163559  1  -1.429209  0  -0.449466  -0.995616  0  2.208779  0
O  O50  1  0.75750137  0.54808507  0.45742883  1  -1.438756  0  -0.449389  -0.99577  0  2.196495  0
F  F51  1  0.12495848  0.42901645  0.11589407  1  -0.637352  0  -0.097973  -0.145229  0  1.346335  0
F  F52  1  0.85428844  0.58610759  0.87660085  1  -0.638131  0  -0.097956  -0.145281  0  1.345624  0
F  F53  1  0.81111475  0.88036822  0.41393946  1  -0.637313  0  -0.098861  -0.143985  0  1.342111  0
