# generated using pymatgen
data_Cu3H16C28(NO7)2
_symmetry_space_group_name_H-M   'P 1'
_cell_length_a   7.84827669
_cell_length_b   8.72025470
_cell_length_c   9.35615053
_cell_angle_alpha   84.97330500
_cell_angle_beta   85.18349639
_cell_angle_gamma   85.79881902
_symmetry_Int_Tables_number   1
_chemical_formula_structural   Cu3H16C28(NO7)2
_chemical_formula_sum   'Cu3 H16 C28 N2 O14'
_cell_volume   634.20780250
_cell_formula_units_Z   1
loop_
 _symmetry_equiv_pos_site_id
 _symmetry_equiv_pos_as_xyz
  1  'x, y, z'
loop_
 _atom_site_type_symbol
 _atom_site_label
 _atom_site_symmetry_multiplicity
 _atom_site_fract_x
 _atom_site_fract_y
 _atom_site_fract_z
 _atom_site_occupancy
 _atom_site_pbe_cm5_charge
 _atom_site_pbe_ddec_charge
 _atom_site_pbe_ddec_spin_density
 _atom_site_pbe_ddec_sum_bond_order
 _atom_site_pbe_magmom
Cu  Cu0  1  0.00000116  0.49999916  0.99999926  1  0.685331  0.990971  0.772872  2.118597  0.614
Cu  Cu1  1  0.87841368  0.84526904  0.89999921  1  0.694715  0.966238  0.740537  2.161007  0.592
Cu  Cu2  1  0.12158475  0.15472905  0.10000083  1  0.694731  0.96625  0.740533  2.161017  0.592
H  H3  1  0.74637928  0.66230202  0.06428125  1  0.271467  0.361113  0.000639  0.986662  0.0
H  H4  1  0.25362043  0.33769608  0.93571976  1  0.271466  0.361119  0.000638  0.986661  0.0
H  H5  1  0.04752950  0.83541442  0.47109036  1  0.110922  0.124886  0.00033  0.999563  0.0
H  H6  1  0.95246756  0.16458483  0.52891075  1  0.110909  0.124853  0.00033  0.999546  0.0
H  H7  1  0.28681181  0.54181599  0.15620628  1  0.113612  0.131354  0.000644  1.033128  0.0
H  H8  1  0.71318881  0.45818673  0.84379214  1  0.113619  0.131336  0.000644  1.033143  0.0
H  H9  1  0.27801402  0.38883940  0.60965256  1  0.112554  0.138583  0.000207  1.037691  0.0
H  H10  1  0.72198676  0.61116100  0.39034496  1  0.112572  0.138589  0.000207  1.037711  0.0
H  H11  1  0.55922971  0.44798981  0.19741668  1  0.139217  0.12732  0.00045  0.978324  0.0
H  H12  1  0.44077110  0.55201060  0.80258405  1  0.139237  0.127325  0.00045  0.978323  0.0
H  H13  1  0.70774280  0.21577006  0.08801626  1  0.122413  0.156436  8.1e-05  1.038807  0.0
H  H14  1  0.29225810  0.78422920  0.91198456  1  0.122416  0.15645  8.1e-05  1.038802  0.0
H  H15  1  0.38438295  0.93131096  0.37936045  1  0.116146  0.129619  -2e-06  1.00771  0.0
H  H16  1  0.61561650  0.06869060  0.62064028  1  0.116147  0.129603  -2e-06  1.007718  0.0
H  H17  1  0.24220264  0.17407776  0.47417742  1  0.139125  0.122278  9e-05  0.981419  0.0
H  H18  1  0.75779689  0.82592264  0.52582341  1  0.139126  0.122282  9e-05  0.981395  0.0
C  C19  1  0.08264692  0.63757080  0.70536278  1  0.211446  0.568559  -0.000286  4.209747  -0.002
C  C20  1  0.91735533  0.36242731  0.29463696  1  0.211477  0.568559  -0.000285  4.209758  -0.002
C  C21  1  0.15388930  0.61383365  0.55430811  1  -0.018193  -0.025975  0.010572  3.98321  0.012
C  C22  1  0.84610766  0.38616674  0.44569078  1  -0.018202  -0.025982  0.010572  3.983142  0.012
C  C23  1  0.11734781  0.72790062  0.44423091  1  -0.074527  -0.108972  -0.000322  3.91069  0.0
C  C24  1  0.88264788  0.27209978  0.55576914  1  -0.074501  -0.108904  -0.000322  3.91063  0.0
C  C25  1  0.16471281  0.70307902  0.30060194  1  -0.006674  0.001385  0.005022  3.937314  0.006
C  C26  1  0.83528671  0.29692138  0.69939782  1  -0.006703  0.001297  0.005022  3.937404  0.006
C  C27  1  0.11077213  0.81803230  0.17992453  1  0.214849  0.606399  -0.000209  4.164874  -0.001
C  C28  1  0.88922748  0.18196695  0.82007532  1  0.214821  0.606341  -0.000209  4.164961  -0.001
C  C29  1  0.25725535  0.56634221  0.26800785  1  -0.070069  -0.148442  -0.000444  3.9087  0.001
C  C30  1  0.74274544  0.43365819  0.73199075  1  -0.070064  -0.148363  -0.000444  3.908579  0.001
C  C31  1  0.30003211  0.45650787  0.37904429  1  0.089293  0.144987  0.000779  3.972759  0.001
C  C32  1  0.69996741  0.54349253  0.62095440  1  0.089229  0.144907  0.000779  3.972737  0.001
C  C33  1  0.24790636  0.47628191  0.52285117  1  -0.078455  -0.175212  -0.00088  3.91523  0.0
C  C34  1  0.75209314  0.52371849  0.47714645  1  -0.078441  -0.175137  -0.00088  3.915229  0.0
C  C35  1  0.52437367  0.33123833  0.23117252  1  0.069318  0.059922  0.001228  3.811966  0.001
C  C36  1  0.47562851  0.66876092  0.76882820  1  0.069312  0.060015  0.001228  3.811984  0.001
C  C37  1  0.60520404  0.20269979  0.17348528  1  -0.062376  -0.110171  0.00017  3.872922  0.0
C  C38  1  0.39479685  0.79729946  0.82651447  1  -0.062403  -0.110235  0.00017  3.872942  0.0
C  C39  1  0.55546571  0.05567113  0.22439090  1  0.028501  0.050842  0.006142  3.859481  0.007
C  C40  1  0.44453510  0.94432928  0.77560876  1  0.028518  0.050836  0.006141  3.859468  0.007
C  C41  1  0.42750973  0.04343474  0.33754494  1  -0.064536  -0.138864  0.000977  3.962216  0.002
C  C42  1  0.57248851  0.95656566  0.66245384  1  -0.064496  -0.138783  0.000977  3.962219  0.002
C  C43  1  0.34797439  0.17555670  0.39164111  1  0.073792  0.060084  0.000144  3.822463  0.001
C  C44  1  0.65202513  0.82444371  0.60835865  1  0.073751  0.060068  0.000144  3.822516  0.001
C  C45  1  0.63898999  0.91627388  0.15265578  1  0.21353  0.58164  0.001036  4.180937  0.0
C  C46  1  0.36101336  0.08372653  0.84734261  1  0.213514  0.581619  0.001036  4.180912  0.0
N  N47  1  0.39532371  0.31722957  0.33716361  1  -0.189853  0.068061  0.000876  3.75452  0.001
N  N48  1  0.60467581  0.68277083  0.66283508  1  -0.189828  0.067968  0.000876  3.754586  0.001
O  O49  1  0.11241066  0.52860416  0.80127922  1  -0.313683  -0.537966  0.049837  2.415881  0.072
O  O50  1  0.88759534  0.47139511  0.19872014  1  -0.313708  -0.537953  0.049838  2.415851  0.072
O  O51  1  0.99736252  0.76484718  0.72273348  1  -0.314027  -0.541366  0.047312  2.43934  0.07
O  O52  1  0.00263720  0.23515092  0.27726859  1  -0.314057  -0.5414  0.047309  2.439391  0.07
O  O53  1  0.08082683  0.95656187  0.21474113  1  -0.332633  -0.566346  0.042166  2.379225  0.06
O  O54  1  0.91917288  0.04343623  0.78525987  1  -0.332601  -0.566297  0.042166  2.379265  0.06
O  O55  1  0.09827015  0.76870664  0.05880946  1  -0.312605  -0.613881  0.002139  2.39166  0.007
O  O56  1  0.90173056  0.23129492  0.94119011  1  -0.312583  -0.61384  0.002139  2.391674  0.007
O  O57  1  0.71144447  0.95504126  0.02797206  1  -0.321414  -0.553713  0.053868  2.419887  0.078
O  O58  1  0.28855514  0.04495799  0.97202672  1  -0.321414  -0.553698  0.053872  2.419798  0.078
O  O59  1  0.63032967  0.78393222  0.21590899  1  -0.315344  -0.532558  0.000194  2.114902  0.001
O  O60  1  0.36967234  0.21606935  0.78409262  1  -0.315329  -0.532538  0.000194  2.114923  0.001
O  O61  1  0.80092095  0.64335035  0.96759604  1  -0.58918  -0.841747  0.150271  2.211838  0.207
O  O62  1  0.19907867  0.35664890  0.03240488  1  -0.589177  -0.841751  0.150273  2.21186  0.207
