# generated using pymatgen
data_Zn4H12C48Cl12O13
_symmetry_space_group_name_H-M   'P 1'
_cell_length_a   28.14619417
_cell_length_b   28.14690799
_cell_length_c   28.14464294
_cell_angle_alpha   119.99827145
_cell_angle_beta   90.00175729
_cell_angle_gamma   59.99305988
_symmetry_Int_Tables_number   1
_chemical_formula_structural   Zn4H12C48Cl12O13
_chemical_formula_sum   'Zn8 H24 C96 Cl24 O26'
_cell_volume   15765.34806090
_cell_formula_units_Z   2
loop_
 _symmetry_equiv_pos_site_id
 _symmetry_equiv_pos_as_xyz
  1  'x, y, z'
loop_
 _atom_site_type_symbol
 _atom_site_label
 _atom_site_symmetry_multiplicity
 _atom_site_fract_x
 _atom_site_fract_y
 _atom_site_fract_z
 _atom_site_occupancy
 _atom_site_pbe_bader_charge
 _atom_site_pbe_bader_spin_density
 _atom_site_pbe_cm5_charge
 _atom_site_pbe_ddec_charge
 _atom_site_pbe_ddec_spin_density
 _atom_site_pbe_ddec_sum_bond_order
 _atom_site_pbe_magmom
Zn  Zn0  1  0.52847730  0.05699972  0.02849309  1  1.310302  0  0.673953  0.962608  0  2.378062  0
Zn  Zn1  1  0.52854562  0.94302458  0.91447175  1  1.309436  0  0.674193  0.963239  0  2.376703  0
Zn  Zn2  1  0.41456063  0.05695379  0.02843075  1  1.310813  0  0.673807  0.962162  0  2.378445  0
Zn  Zn3  1  0.52848021  0.94304292  0.02845567  1  1.312204  0  0.673934  0.96245  0  2.37785  0
Zn  Zn4  1  0.97142212  0.94306740  0.47158098  1  1.309295  0  0.673909  0.962505  0  2.378793  0
Zn  Zn5  1  0.08541301  0.94299872  0.47149453  1  1.312023  0  0.673906  0.962655  0  2.376517  0
Zn  Zn6  1  0.97146007  0.05698022  0.58546610  1  1.310993  0  0.673822  0.962115  0  2.379106  0
Zn  Zn7  1  0.97144074  0.05697587  0.47151372  1  1.310698  0  0.673854  0.962411  0  2.377739  0
H  H8  1  0.86787328  0.07649191  0.36803266  1  0.119811  0  0.114751  0.138492  0  0.983868  0
H  H9  1  0.86790140  0.92341987  0.36799156  1  0.130913  0  0.115112  0.138851  0  0.984182  0
H  H10  1  0.63203476  0.07649910  0.13203190  1  0.132273  0  0.115044  0.138935  0  0.984258  0
H  H11  1  0.63199109  0.92347433  0.13202103  1  0.131957  0  0.114986  0.138763  0  0.984011  0
H  H12  1  0.20846211  0.92346719  0.55552276  1  0.098855  0  0.115003  0.138855  0  0.984309  0
H  H13  1  0.05543112  0.07658552  0.70860984  1  0.157497  0  0.115103  0.138824  0  0.984157  0
H  H14  1  0.44451280  0.92347771  0.79135395  1  0.157011  0  0.11497  0.138733  0  0.984079  0
H  H15  1  0.29148603  0.07653849  0.94443896  1  0.098987  0  0.11516  0.139218  0  0.984338  0
H  H16  1  0.20839378  0.73592549  0.36808952  1  0.10319  0  0.114843  0.138668  0  0.984053  0
H  H17  1  0.05534501  0.73594189  0.36810897  1  0.138134  0  0.115115  0.138697  0  0.984498  0
H  H18  1  0.44441029  0.26411690  0.13214943  1  0.153009  0  0.11501  0.138912  0  0.984193  0
H  H19  1  0.29141500  0.26401889  0.13206424  1  0.146859  0  0.115042  0.138787  0  0.98433  0
H  H20  1  0.86796566  0.26405030  0.55553529  1  0.15191  0  0.115041  0.139065  0  0.984381  0
H  H21  1  0.86793635  0.26407773  0.70860472  1  0.148034  0  0.115006  0.138941  0  0.983899  0
H  H22  1  0.63201458  0.73590470  0.79140675  1  0.113232  0  0.114997  0.138717  0  0.98402  0
H  H23  1  0.63201643  0.73596979  0.94449474  1  0.141318  0  0.11499  0.138897  0  0.984002  0
H  H24  1  0.86800425  0.07657697  0.70862189  1  0.121257  0  0.115072  0.138691  0  0.984556  0
H  H25  1  0.86793105  0.92355640  0.55563348  1  0.124622  0  0.114845  0.13876  0  0.983729  0
H  H26  1  0.63200494  0.07666123  0.94461533  1  0.122192  0  0.115155  0.13896  0  0.984104  0
H  H27  1  0.63209406  0.92358307  0.79151006  1  0.109074  0  0.114731  0.138703  0  0.983698  0
H  H28  1  0.20851529  0.92362765  0.36806872  1  0.11012  0  0.115072  0.138872  0  0.984391  0
H  H29  1  0.05543795  0.07666244  0.36805760  1  0.121323  0  0.114984  0.138712  0  0.984118  0
H  H30  1  0.44444787  0.92350609  0.13201447  1  0.123926  0  0.11507  0.138999  0  0.98426  0
H  H31  1  0.29140411  0.07658777  0.13201950  1  0.123389  0  0.115119  0.138843  0  0.984008  0
C  C32  1  0.59089723  0.00008027  0.90916713  1  1.565316  0  0.229114  0.603944  0  4.167441  0
C  C33  1  0.40916018  0.00000625  0.90905706  1  1.566934  0  0.229764  0.604796  0  4.166146  0
C  C34  1  0.40909774  0.18176304  0.09088901  1  1.57183  0  0.230009  0.605187  0  4.166272  0
C  C35  1  0.40910455  0.00001573  0.09084480  1  1.563381  0  0.229997  0.60521  0  4.166228  0
C  C36  1  0.59087972  0.99998749  0.09086246  1  1.574013  0  0.229859  0.604472  0  4.166805  0
C  C37  1  0.59090485  0.81824777  0.90909768  1  1.571925  0  0.230068  0.60532  0  4.166622  0
C  C38  1  0.09073554  0.81825274  0.40921644  1  1.537238  0  0.229686  0.604754  0  4.165444  0
C  C39  1  0.09079218  0.00000219  0.59091279  1  1.558804  0  0.229544  0.605503  0  4.165757  0
C  C40  1  0.90908906  0.00004242  0.59094674  1  1.565091  0  0.229581  0.604168  0  4.168402  0
C  C41  1  0.90903738  0.18175882  0.59091466  1  1.572271  0  0.229571  0.604783  0  4.167085  0
C  C42  1  0.90901157  0.00000183  0.40919452  1  1.573799  0  0.22958  0.60495  0  4.166166  0
C  C43  1  0.09081989  0.00005040  0.40915057  1  1.565046  0  0.229864  0.605204  0  4.165473  0
C  C44  1  0.87149302  0.99997171  0.37164008  1  -0.004399  0  -0.012513  -0.002402  0  3.98054  0
C  C45  1  0.85403527  0.04316815  0.35417582  1  0.020893  0  -0.086637  -0.166992  0  3.959748  0
C  C46  1  0.81917554  0.04304247  0.31926469  1  0.054101  0  0.02471  0.125823  0  4.009321  0
C  C47  1  0.80057827  0.99994216  0.30063329  1  0.154533  0  -0.002281  0.026001  0  4.060469  0
C  C48  1  0.81919524  0.95684500  0.31924666  1  0.099323  0  0.02538  0.126528  0  4.006177  0
C  C49  1  0.85405777  0.95675184  0.35415429  1  0.03171  0  -0.087379  -0.167708  0  3.958754  0
C  C50  1  0.76529251  0.99994904  0.26533774  1  -0.037708  0  -0.039266  -0.068974  0  4.130774  0
C  C51  1  0.73461719  0.99995970  0.23467602  1  -0.214425  0  -0.039135  -0.06866  0  4.131043  0
C  C52  1  0.69932916  0.99997582  0.19938843  1  0.10055  0  -0.002286  0.02607  0  4.060276  0
C  C53  1  0.68073636  0.04306615  0.18077497  1  0.104793  0  0.025053  0.126156  0  4.00851  0
C  C54  1  0.64586359  0.04317743  0.14587723  1  0.003833  0  -0.086867  -0.167207  0  3.960245  0
C  C55  1  0.62840341  0.99998429  0.12841218  1  0.024537  0  -0.012952  -0.00326  0  3.981598  0
C  C56  1  0.64583811  0.95679062  0.14587490  1  0.002587  0  -0.087016  -0.167  0  3.959483  0
C  C57  1  0.68070597  0.95689676  0.18077613  1  0.102733  0  0.025181  0.125985  0  4.007388  0
C  C58  1  0.12833455  0.00001888  0.62845235  1  0.022795  0  -0.0127  -0.003357  0  3.980527  0
C  C59  1  0.18899695  0.95680395  0.60269239  1  0.045447  0  -0.086896  -0.167277  0  3.960498  0
C  C60  1  0.22378828  0.95692894  0.63766908  1  0.158344  0  0.024945  0.126096  0  4.008385  0
C  C61  1  0.19931841  0.00005054  0.69937511  1  0.065164  0  -0.002317  0.025758  0  4.059759  0
C  C62  1  0.13760827  0.04316120  0.72387589  1  0.108577  0  0.02523  0.126114  0  4.007055  0
C  C63  1  0.10259916  0.04324871  0.68910845  1  -0.028457  0  -0.087249  -0.167093  0  3.958944  0
C  C64  1  0.23462338  0.00005787  0.73464931  1  -0.214733  0  -0.039144  -0.068545  0  4.130518  0
C  C65  1  0.26531090  0.00004543  0.76530487  1  -0.037588  0  -0.039118  -0.068901  0  4.130171  0
C  C66  1  0.30062087  0.00003322  0.80058011  1  0.084313  0  -0.002233  0.026168  0  4.06013  0
C  C67  1  0.36233278  0.95693508  0.77609397  1  0.116361  0  0.025082  0.125998  0  4.007343  0
C  C68  1  0.39734085  0.95681985  0.81085676  1  0.042672  0  -0.087068  -0.167156  0  3.958345  0
C  C69  1  0.37162030  0.00001621  0.87151750  1  -0.044542  0  -0.012783  -0.002938  0  3.98052  0
C  C70  1  0.31095601  0.04322659  0.89727088  1  0.047689  0  -0.08709  -0.167839  0  3.960062  0
C  C71  1  0.27616429  0.04312470  0.86228925  1  0.09904  0  0.025036  0.126243  0  4.007641  0
C  C72  1  0.12825565  0.74317544  0.37172364  1  0.039239  0  -0.012454  -0.002095  0  3.979972  0
C  C73  1  0.18892077  0.70823889  0.35426390  1  0.043846  0  -0.086938  -0.167452  0  3.960052  0
C  C74  1  0.22370389  0.63846695  0.31936853  1  0.053576  0  0.024972  0.126394  0  4.008872  0
C  C75  1  0.19922459  0.60124854  0.30074811  1  0.001572  0  -0.002676  0.02497  0  4.061576  0
C  C76  1  0.13751346  0.63849098  0.31938378  1  0.211998  0  0.025188  0.126485  0  4.007276  0
C  C77  1  0.10251381  0.70826508  0.35427682  1  -0.092552  0  -0.087255  -0.167479  0  3.959396  0
C  C78  1  0.23450273  0.53067041  0.26546471  1  0.098926  0  -0.039017  -0.068317  0  4.130977  0
C  C79  1  0.26518971  0.46933048  0.23480006  1  -0.129631  0  -0.038932  -0.068484  0  4.131117  0
C  C80  1  0.30051529  0.39875199  0.19949942  1  0.019895  0  -0.002453  0.025615  0  4.061377  0
C  C81  1  0.36222153  0.36155644  0.18091128  1  0.104337  0  0.025106  0.126154  0  4.00879  0
C  C82  1  0.39724357  0.29178447  0.14599301  1  -0.017965  0  -0.086836  -0.167073  0  3.960104  0
C  C83  1  0.37153210  0.25683893  0.12848562  1  -0.014534  0  -0.01294  -0.003611  0  3.980866  0
C  C84  1  0.31087507  0.29172255  0.14593620  1  0.033414  0  -0.087081  -0.167086  0  3.958852  0
C  C85  1  0.27606713  0.36149236  0.18085284  1  0.098968  0  0.024913  0.126276  0  4.007289  0
C  C86  1  0.87154785  0.25683434  0.62845185  1  0.045698  0  -0.012742  -0.003256  0  3.981022  0
C  C87  1  0.85412572  0.29174565  0.60270338  1  -0.116945  0  -0.086963  -0.167304  0  3.960394  0
C  C88  1  0.81927596  0.36151618  0.63769098  1  0.215608  0  0.024922  0.125851  0  4.008412  0
C  C89  1  0.80065988  0.39874951  0.69939863  1  -0.008877  0  -0.001756  0.026588  0  4.0602  0
C  C90  1  0.81926341  0.36152340  0.72388160  1  0.10439  0  0.024926  0.125922  0  4.007916  0
C  C91  1  0.85411280  0.29175466  0.68911147  1  -0.034438  0  -0.087006  -0.167264  0  3.959016  0
C  C92  1  0.76535507  0.46933368  0.73468703  1  -0.17003  0  -0.039551  -0.069231  0  4.131802  0
C  C93  1  0.73464946  0.53066971  0.76535929  1  0.157496  0  -0.039421  -0.069024  0  4.131828  0
C  C94  1  0.69933723  0.60125281  0.80063770  1  -0.056365  0  -0.001796  0.026558  0  4.060142  0
C  C95  1  0.68071619  0.63846720  0.77614560  1  0.107527  0  0.025063  0.125818  0  4.007926  0
C  C96  1  0.64584756  0.70823558  0.81090618  1  0.03639  0  -0.086913  -0.166783  0  3.959255  0
C  C97  1  0.62840532  0.74316976  0.87156695  1  -0.008981  0  -0.013138  -0.003678  0  3.981655  0
C  C98  1  0.64585174  0.70826946  0.89732559  1  -0.080458  0  -0.08699  -0.167137  0  3.959901  0
C  C99  1  0.68072327  0.63849786  0.86234714  1  0.208802  0  0.025054  0.125999  0  4.007907  0
C  C100  1  0.87157809  0.00006031  0.62851149  1  -0.017297  0  -0.012595  -0.002444  0  3.981673  0
C  C101  1  0.85414918  0.04326885  0.68916623  1  0.02518  0  -0.086944  -0.167133  0  3.958862  0
C  C102  1  0.81927327  0.04318985  0.72397022  1  0.114343  0  0.025186  0.126512  0  4.006483  0
C  C103  1  0.80063930  0.00011966  0.69951441  1  0.11502  0  -0.002817  0.025181  0  4.061703  0
C  C104  1  0.81922278  0.95701289  0.63781660  1  0.081053  0  0.02509  0.126103  0  4.009044  0
C  C105  1  0.85410559  0.95687730  0.60279538  1  0.037192  0  -0.086561  -0.167065  0  3.959478  0
C  C106  1  0.76534714  0.00015835  0.73483381  1  -0.229064  0  -0.039008  -0.068545  0  4.132199  0
C  C107  1  0.73467636  0.00017572  0.76550754  1  -0.029324  0  -0.039086  -0.068227  0  4.131961  0
C  C108  1  0.69938597  0.00015331  0.80076762  1  0.181654  0  -0.002655  0.025332  0  4.061103  0
C  C109  1  0.68074701  0.04325128  0.86248189  1  0.083157  0  0.025564  0.126758  0  4.00639  0
C  C110  1  0.64586410  0.04333535  0.89744245  1  0.03178  0  -0.087264  -0.167663  0  3.958896  0
C  C111  1  0.62843423  0.00011673  0.87167121  1  -0.048061  0  -0.012488  -0.002112  0  3.980765  0
C  C112  1  0.64591725  0.95691572  0.81100861  1  0.074472  0  -0.086728  -0.16742  0  3.959352  0
C  C113  1  0.68080670  0.95704126  0.77625113  1  0.042871  0  0.025211  0.126291  0  4.008546  0
C  C114  1  0.12835331  0.00013625  0.37168488  1  -0.01634  0  -0.012876  -0.003264  0  3.979571  0
C  C115  1  0.18901934  0.95697123  0.35424542  1  0.044302  0  -0.087187  -0.167605  0  3.960386  0
C  C116  1  0.22379086  0.95710815  0.31937989  1  0.038495  0  0.025346  0.126631  0  4.007828  0
C  C117  1  0.19931199  0.00018277  0.30074591  1  0.182601  0  -0.002482  0.025552  0  4.060145  0
C  C118  1  0.13759481  0.04326783  0.31936996  1  0.089297  0  0.025125  0.126347  0  4.006497  0
C  C119  1  0.10260862  0.04334694  0.35423483  1  0.031611  0  -0.087095  -0.167112  0  3.958209  0
C  C120  1  0.23460297  0.00016291  0.26543159  1  -0.025221  0  -0.039204  -0.068708  0  4.129417  0
C  C121  1  0.26526915  0.00013558  0.23472623  1  -0.232109  0  -0.038984  -0.06865  0  4.129395  0
C  C122  1  0.30056748  0.00010009  0.19940313  1  0.076641  0  -0.00235  0.02606  0  4.059824  0
C  C123  1  0.36227744  0.95698100  0.18076684  1  0.130248  0  0.024885  0.125787  0  4.00874  0
C  C124  1  0.39727745  0.95684788  0.14586328  1  0.034012  0  -0.086951  -0.167264  0  3.959931  0
C  C125  1  0.37154645  0.00004357  0.12839699  1  0.003925  0  -0.012843  -0.003349  0  3.979716  0
C  C126  1  0.31088684  0.04326587  0.14586634  1  0.003268  0  -0.087189  -0.167002  0  3.958204  0
C  C127  1  0.27609893  0.04318792  0.18077596  1  0.116044  0  0.025384  0.126171  0  4.006717  0
Cl  Cl128  1  0.79795101  0.90355532  0.29793189  1  -0.183254  0  -0.005175  -0.071152  0  1.474107  0
Cl  Cl129  1  0.79792288  0.09630710  0.29799157  1  -0.184711  0  -0.005091  -0.071112  0  1.474088  0
Cl  Cl130  1  0.70195765  0.90364314  0.20205626  1  -0.178219  0  -0.005161  -0.071062  0  1.474313  0
Cl  Cl131  1  0.70201333  0.09632208  0.20205807  1  -0.180259  0  -0.005151  -0.07117  0  1.473968  0
Cl  Cl132  1  0.10563670  0.09645818  0.79841502  1  -0.192556  0  -0.005071  -0.070992  0  1.474301  0
Cl  Cl133  1  0.29832671  0.90365202  0.60564715  1  -0.190896  0  -0.005158  -0.07109  0  1.473866  0
Cl  Cl134  1  0.20162418  0.09639949  0.89431643  1  -0.186431  0  -0.005206  -0.071214  0  1.473912  0
Cl  Cl135  1  0.39431339  0.90366296  0.70155005  1  -0.175813  0  -0.005106  -0.071002  0  1.474181  0
Cl  Cl136  1  0.10552143  0.59595079  0.29811276  1  -0.183091  0  -0.005159  -0.071192  0  1.473977  0
Cl  Cl137  1  0.29824358  0.59592846  0.29808312  1  -0.175414  0  -0.005103  -0.071159  0  1.473803  0
Cl  Cl138  1  0.20153068  0.40400918  0.20211832  1  -0.174426  0  -0.005053  -0.071092  0  1.473988  0
Cl  Cl139  1  0.39418522  0.40412506  0.20222059  1  -0.184622  0  -0.005213  -0.071225  0  1.473948  0
Cl  Cl140  1  0.79799530  0.40408546  0.79842311  1  -0.174709  0  -0.005158  -0.071026  0  1.474233  0
Cl  Cl141  1  0.79803774  0.40404416  0.60568022  1  -0.180982  0  -0.005159  -0.071058  0  1.473997  0
Cl  Cl142  1  0.70199158  0.59597805  0.89436299  1  -0.181583  0  -0.005186  -0.071106  0  1.474014  0
Cl  Cl143  1  0.70198088  0.59589981  0.70160288  1  -0.177394  0  -0.005212  -0.071087  0  1.474106  0
Cl  Cl144  1  0.79792573  0.90377512  0.60585733  1  -0.170749  0  -0.00503  -0.070997  0  1.474137  0
Cl  Cl145  1  0.79801128  0.09645342  0.79850627  1  -0.18821  0  -0.005137  -0.071177  0  1.473748  0
Cl  Cl146  1  0.70211058  0.90377981  0.70171086  1  -0.177085  0  -0.005194  -0.07125  0  1.473932  0
Cl  Cl147  1  0.70200304  0.09652458  0.89448291  1  -0.178064  0  -0.00526  -0.071301  0  1.473993  0
Cl  Cl148  1  0.10558600  0.09653248  0.29809534  1  -0.181293  0  -0.005124  -0.071184  0  1.473787  0
Cl  Cl149  1  0.29833330  0.90383795  0.29811629  1  -0.175897  0  -0.005209  -0.071248  0  1.473685  0
Cl  Cl150  1  0.20156176  0.09647802  0.20205418  1  -0.187482  0  -0.005243  -0.071149  0  1.474256  0
Cl  Cl151  1  0.39428236  0.90371315  0.20203789  1  -0.179825  0  -0.005127  -0.071036  0  1.474023  0
O  O152  1  0.50002558  0.99999649  0.99993992  1  -1.19603  0  -0.570966  -1.030676  0  2.53591  0
O  O153  1  0.57641835  0.04055884  0.96411096  1  -1.181235  0  -0.312686  -0.540852  0  2.337087  0
O  O154  1  0.46410466  0.95953097  0.88302853  1  -1.175805  0  -0.312955  -0.541419  0  2.336367  0
O  O155  1  0.38309200  0.15283194  0.07638390  1  -1.185842  0  -0.31286  -0.541106  0  2.337026  0
O  O156  1  0.57646684  0.95958640  0.88311053  1  -1.171016  0  -0.312513  -0.540975  0  2.337857  0
O  O157  1  0.46403416  0.15286954  0.07643370  1  -1.179567  0  -0.31289  -0.541212  0  2.337812  0
O  O158  1  0.38313209  0.04047149  0.96399236  1  -1.17994  0  -0.312764  -0.540897  0  2.337551  0
O  O159  1  0.38308782  0.04048546  0.07637111  1  -1.174423  0  -0.312731  -0.541001  0  2.337203  0
O  O160  1  0.57642371  0.95950743  0.07639146  1  -1.182136  0  -0.312704  -0.540833  0  2.337382  0
O  O161  1  0.46404442  0.95953585  0.07639479  1  -1.179355  0  -0.312752  -0.541207  0  2.337888  0
O  O162  1  0.57643030  0.04047084  0.07640827  1  -1.182751  0  -0.312801  -0.540899  0  2.337506  0
O  O163  1  0.57648742  0.84715466  0.88306587  1  -1.185591  0  -0.312865  -0.541261  0  2.336781  0
O  O164  1  0.57644111  0.84716688  0.96403682  1  -1.181163  0  -0.312898  -0.541269  0  2.337948  0
O  O165  1  0.99993609  0.00000299  0.50000537  1  -1.196133  0  -0.57098  -1.030627  0  2.535907  0
O  O166  1  0.03579565  0.84718034  0.42367877  1  -1.184718  0  -0.312893  -0.541199  0  2.336934  0
O  O167  1  0.11681079  0.95950613  0.53597070  1  -1.181116  0  -0.312482  -0.541315  0  2.337468  0
O  O168  1  0.92354366  0.04052143  0.61695326  1  -1.174083  0  -0.312887  -0.540892  0  2.337805  0
O  O169  1  0.11677860  0.84714155  0.42362062  1  -1.182105  0  -0.312636  -0.541069  0  2.336989  0
O  O170  1  0.92352010  0.95956002  0.53601743  1  -1.178431  0  -0.312939  -0.541027  0  2.338404  0
O  O171  1  0.03585446  0.04049425  0.61694813  1  -1.169823  0  -0.312624  -0.541059  0  2.337103  0
O  O172  1  0.92347292  0.15285371  0.61694576  1  -1.186195  0  -0.312836  -0.541048  0  2.337345  0
O  O173  1  0.92346846  0.04047442  0.42363230  1  -1.177898  0  -0.312616  -0.541116  0  2.33741  0
O  O174  1  0.92347135  0.15284149  0.53597367  1  -1.180859  0  -0.312605  -0.540944  0  2.337847  0
O  O175  1  0.92344514  0.95954726  0.42367770  1  -1.184595  0  -0.31283  -0.541277  0  2.337256  0
O  O176  1  0.11684908  0.95952709  0.42356994  1  -1.174301  0  -0.312688  -0.541296  0  2.33714  0
O  O177  1  0.03587335  0.04050300  0.42358458  1  -1.181044  0  -0.312605  -0.540923  0  2.336781  0
