# generated using pymatgen
data_CdH30C28N4O5
_symmetry_space_group_name_H-M   'P 1'
_cell_length_a   10.63031525
_cell_length_b   10.63030983
_cell_length_c   13.55220085
_cell_angle_alpha   102.84473644
_cell_angle_beta   102.84472181
_cell_angle_gamma   108.93127740
_symmetry_Int_Tables_number   1
_chemical_formula_structural   CdH30C28N4O5
_chemical_formula_sum   'Cd2 H60 C56 N8 O10'
_cell_volume   1338.44537319
_cell_formula_units_Z   2
loop_
 _symmetry_equiv_pos_site_id
 _symmetry_equiv_pos_as_xyz
  1  'x, y, z'
loop_
 _atom_site_type_symbol
 _atom_site_label
 _atom_site_symmetry_multiplicity
 _atom_site_fract_x
 _atom_site_fract_y
 _atom_site_fract_z
 _atom_site_occupancy
 _atom_site_hle17_bader_spin_density
 _atom_site_hle17_ddec_charge
 _atom_site_hle17_ddec_spin_density
 _atom_site_hle17_ddec_sum_bond_order
 _atom_site_hle17_magmom
 _atom_site_hse06_10hf_bader_spin_density
 _atom_site_hse06_10hf_ddec_charge
 _atom_site_hse06_10hf_ddec_spin_density
 _atom_site_hse06_10hf_ddec_sum_bond_order
 _atom_site_hse06_10hf_magmom
 _atom_site_hse06_bader_spin_density
 _atom_site_hse06_ddec_charge
 _atom_site_hse06_ddec_spin_density
 _atom_site_hse06_ddec_sum_bond_order
 _atom_site_hse06_magmom
 _atom_site_pbe_bader_spin_density
 _atom_site_pbe_cm5_charge
 _atom_site_pbe_ddec_charge
 _atom_site_pbe_ddec_spin_density
 _atom_site_pbe_ddec_sum_bond_order
 _atom_site_pbe_magmom
Cd  Cd0  1  0.86698093  0.13301628  0.75000003  1  0  1.085634  0  1.69407  0  0  0.898575  0  2.13543  0  0  0.956362  0  2.085157  0  0  0.76997  0.857828  0  2.169669  0
Cd  Cd1  1  0.13301839  0.86698336  0.25000025  1  0  1.085619  0  1.694096  0  0  0.898556  0  2.13545  0  0  0.956345  0  2.085178  0  0  0.769909  0.85776  0  2.169691  0
H  H2  1  0.93230512  0.83054136  0.44721513  1  0  0.121469  0  0.954471  0  0  0.127838  0  1.020062  0  0  0.131805  0  1.016813  0  0  0.107707  0.124928  0  1.022593  0
H  H3  1  0.16945980  0.06769534  0.05278499  1  0  0.121481  0  0.954465  0  0  0.127853  0  1.020047  0  0  0.13182  0  1.016798  0  0  0.107726  0.124962  0  1.022575  0
H  H4  1  0.06769792  0.16946037  0.55278544  1  0  0.121501  0  0.954502  0  0  0.127885  0  1.020069  0  0  0.131852  0  1.016818  0  0  0.107712  0.12496  0  1.022613  0
H  H5  1  0.83054144  0.93230430  0.94721563  1  0  0.121475  0  0.9545  0  0  0.127862  0  1.020071  0  0  0.131831  0  1.016818  0  0  0.107709  0.124948  0  1.022615  0
H  H6  1  0.85667449  0.60110554  0.30312680  1  0  0.129528  0  0.944401  0  0  0.137349  0  1.006085  0  0  0.141107  0  1.004298  0  0  0.109442  0.134798  0  1.007301  0
H  H7  1  0.39889609  0.14332727  0.19687215  1  0  0.12955  0  0.944376  0  0  0.137365  0  1.006062  0  0  0.141125  0  1.004274  0  0  0.10945  0.134818  0  1.007263  0
H  H8  1  0.14332622  0.39889516  0.69687243  1  0  0.129533  0  0.944409  0  0  0.137368  0  1.006079  0  0  0.141127  0  1.004291  0  0  0.109427  0.13479  0  1.007317  0
H  H9  1  0.60110503  0.85667448  0.80312809  1  0  0.129537  0  0.944408  0  0  0.137354  0  1.006098  0  0  0.141114  0  1.004311  0  0  0.109426  0.134789  0  1.007319  0
H  H10  1  0.53889817  0.68198142  0.50772343  1  0  0.100264  0  0.953786  0  0  0.107746  0  1.018886  0  0  0.111466  0  1.016094  0  0  0.102787  0.105182  0  1.020677  0
H  H11  1  0.31801524  0.46110040  0.99227388  1  0  0.10031  0  0.953778  0  0  0.107771  0  1.018908  0  0  0.111491  0  1.016116  0  0  0.102806  0.105213  0  1.020698  0
H  H12  1  0.46110446  0.31801927  0.49227615  1  0  0.100284  0  0.953724  0  0  0.107741  0  1.018862  0  0  0.111462  0  1.016069  0  0  0.102776  0.105168  0  1.020668  0
H  H13  1  0.68198325  0.53889715  0.00772515  1  0  0.100312  0  0.953766  0  0  0.107776  0  1.018893  0  0  0.111496  0  1.016101  0  0  0.102798  0.1052  0  1.020706  0
H  H14  1  0.78392169  0.18447437  0.98859521  1  0  0.101677  0  0.958206  0  0  0.113018  0  1.017174  0  0  0.11536  0  1.01625  0  0  0.116862  0.111053  0  1.018369  0
H  H15  1  0.81552736  0.21607715  0.51140447  1  0  0.101694  0  0.9582  0  0  0.113033  0  1.017166  0  0  0.115374  0  1.016243  0  0  0.116872  0.111079  0  1.018348  0
H  H16  1  0.21607806  0.81552633  0.01140459  1  0  0.101675  0  0.958194  0  0  0.113016  0  1.017166  0  0  0.115357  0  1.016242  0  0  0.116848  0.111041  0  1.018375  0
H  H17  1  0.18447334  0.78392354  0.48859550  1  0  0.101687  0  0.958205  0  0  0.113025  0  1.017173  0  0  0.115366  0  1.016251  0  0  0.116857  0.111053  0  1.01837  0
H  H18  1  0.52854613  0.19993197  0.99622545  1  0  0.111144  0  0.980963  0  0  0.118801  0  1.046585  0  0  0.120771  0  1.047064  0  0  0.11627  0.117295  0  1.046369  0
H  H19  1  0.80006931  0.47145410  0.50377515  1  0  0.11115  0  0.980971  0  0  0.11881  0  1.046587  0  0  0.120779  0  1.047068  0  0  0.116276  0.117299  0  1.046364  0
H  H20  1  0.47145457  0.80006872  0.00377526  1  0  0.11113  0  0.980998  0  0  0.118785  0  1.046621  0  0  0.120755  0  1.047102  0  0  0.116261  0.117278  0  1.046405  0
H  H21  1  0.19993138  0.52854658  0.49622629  1  0  0.111133  0  0.981002  0  0  0.118801  0  1.046611  0  0  0.120771  0  1.047092  0  0  0.116257  0.117289  0  1.046388  0
H  H22  1  0.46149838  0.45334440  0.36293134  1  0  0.112892  0  0.958953  0  0  0.123387  0  1.020084  0  0  0.126453  0  1.019421  0  0  0.106355  0.121238  0  1.020661  0
H  H23  1  0.54665463  0.53850184  0.13706394  1  0  0.112921  0  0.958927  0  0  0.123416  0  1.02005  0  0  0.126482  0  1.019385  0  0  0.106357  0.121283  0  1.020613  0
H  H24  1  0.53850317  0.54665840  0.63706768  1  0  0.112931  0  0.958909  0  0  0.123393  0  1.020075  0  0  0.126459  0  1.019412  0  0  0.106359  0.121254  0  1.020658  0
H  H25  1  0.45334470  0.46149782  0.86293414  1  0  0.112914  0  0.958945  0  0  0.12341  0  1.020067  0  0  0.126477  0  1.019403  0  0  0.106358  0.121265  0  1.020658  0
H  H26  1  0.32872315  0.19355656  0.86763112  1  0  0.070437  0  0.964419  0  0  0.08661  0  1.028998  0  0  0.08645  0  1.030441  0  0  0.107626  0.086622  0  1.027999  0
H  H27  1  0.80644255  0.67127568  0.63236885  1  0  0.070428  0  0.964422  0  0  0.086599  0  1.029019  0  0  0.086439  0  1.03046  0  0  0.107637  0.086617  0  1.028013  0
H  H28  1  0.67127616  0.80644308  0.13236989  1  0  0.070436  0  0.964473  0  0  0.086617  0  1.029042  0  0  0.086458  0  1.030481  0  0  0.107616  0.086636  0  1.02802  0
H  H29  1  0.19355773  0.32872396  0.36763160  1  0  0.07042  0  0.964432  0  0  0.086587  0  1.02902  0  0  0.086428  0  1.030461  0  0  0.107623  0.0866  0  1.028014  0
H  H30  1  0.34674991  0.22473251  0.74779791  1  0  0.069048  0  0.944578  0  0  0.084475  0  1.01077  0  0  0.083891  0  1.012687  0  0  0.105765  0.084818  0  1.00949  0
H  H31  1  0.77526819  0.65325062  0.75220340  1  0  0.069031  0  0.944569  0  0  0.084467  0  1.010761  0  0  0.083883  0  1.012677  0  0  0.105777  0.084815  0  1.009483  0
H  H32  1  0.65325036  0.77526712  0.25220328  1  0  0.069035  0  0.944587  0  0  0.084459  0  1.010781  0  0  0.083874  0  1.012698  0  0  0.105753  0.084788  0  1.009513  0
H  H33  1  0.22473154  0.34675007  0.24779715  1  0  0.06905  0  0.944567  0  0  0.084475  0  1.010761  0  0  0.083891  0  1.012678  0  0  0.105748  0.084782  0  1.009496  0
H  H34  1  0.13218169  0.01604272  0.72581615  1  0  0.086506  0  0.942169  0  0  0.10598  0  1.000625  0  0  0.106539  0  1.001605  0  0  0.097474  0.105621  0  1.000002  0
H  H35  1  0.98395763  0.86781821  0.77418351  1  0  0.086491  0  0.942184  0  0  0.105965  0  1.000632  0  0  0.106524  0  1.001611  0  0  0.09745  0.105603  0  1.000008  0
H  H36  1  0.86781805  0.98395797  0.27418439  1  0  0.086482  0  0.942189  0  0  0.105949  0  1.00064  0  0  0.106509  0  1.001619  0  0  0.097455  0.105595  0  0.999998  0
H  H37  1  0.01604211  0.13218248  0.22581704  1  0  0.0865  0  0.942197  0  0  0.105962  0  1.000644  0  0  0.10652  0  1.001623  0  0  0.097458  0.105598  0  1.000011  0
H  H38  1  0.23142404  0.97698427  0.64615075  1  0  0.060917  0  0.947881  0  0  0.080027  0  1.009373  0  0  0.080496  0  1.009913  0  0  0.087908  0.079584  0  1.009212  0
H  H39  1  0.02301683  0.76857611  0.85384838  1  0  0.060945  0  0.94788  0  0  0.08005  0  1.00937  0  0  0.08052  0  1.009908  0  0  0.08793  0.079603  0  1.009216  0
H  H40  1  0.76857570  0.02301643  0.35384979  1  0  0.060902  0  0.947888  0  0  0.080008  0  1.009364  0  0  0.080477  0  1.009903  0  0  0.087907  0.079549  0  1.009226  0
H  H41  1  0.97698387  0.23142457  0.14615233  1  0  0.060948  0  0.94789  0  0  0.080045  0  1.009371  0  0  0.080513  0  1.00991  0  0  0.087906  0.07957  0  1.009241  0
H  H42  1  0.26527137  0.92581745  0.86290057  1  0  0.05791  0  0.934779  0  0  0.079782  0  0.993772  0  0  0.07988  0  0.995206  0  0  0.086779  0.079707  0  0.992755  0
H  H43  1  0.07418194  0.73472781  0.63709882  1  0  0.057983  0  0.934804  0  0  0.079823  0  0.993792  0  0  0.079924  0  0.995226  0  0  0.086805  0.079761  0  0.992764  0
H  H44  1  0.73472849  0.07418114  0.13709962  1  0  0.057924  0  0.934809  0  0  0.079813  0  0.99377  0  0  0.079912  0  0.995203  0  0  0.08678  0.079714  0  0.992772  0
H  H45  1  0.92581737  0.26527184  0.36290146  1  0  0.057951  0  0.934769  0  0  0.07979  0  0.993774  0  0  0.079889  0  0.995207  0  0  0.086786  0.079708  0  0.992765  0
H  H46  1  0.33457686  0.86699766  0.76378185  1  0  0.064746  0  0.9391  0  0  0.081402  0  1.000521  0  0  0.082516  0  1.000532  0  0  0.086043  0.080637  0  1.00045  0
H  H47  1  0.13300238  0.66542302  0.73621704  1  0  0.064752  0  0.93913  0  0  0.081391  0  1.000537  0  0  0.082504  0  1.000548  0  0  0.086038  0.080621  0  1.000474  0
H  H48  1  0.66542288  0.13300304  0.23621796  1  0  0.064757  0  0.939088  0  0  0.081404  0  1.000512  0  0  0.08252  0  1.000526  0  0  0.086031  0.080613  0  1.000455  0
H  H49  1  0.86699694  0.33457662  0.26378324  1  0  0.064753  0  0.939109  0  0  0.081402  0  1.000518  0  0  0.082515  0  1.000529  0  0  0.086027  0.080613  0  1.000468  0
H  H50  1  0.58294427  0.17996162  0.61885086  1  0  0.129906  0  0.955402  0  0  0.147503  0  1.019648  0  0  0.149112  0  1.020204  0  0  0.097143  0.146481  0  1.018989  0
H  H51  1  0.82003873  0.41705436  0.88114855  1  0  0.12988  0  0.955418  0  0  0.147459  0  1.01968  0  0  0.149068  0  1.020237  0  0  0.097168  0.146474  0  1.01901  0
H  H52  1  0.41705547  0.82003908  0.38114894  1  0  0.129887  0  0.955408  0  0  0.147478  0  1.019654  0  0  0.149086  0  1.020212  0  0  0.097166  0.146471  0  1.019001  0
H  H53  1  0.17996017  0.58294424  0.11885147  1  0  0.129898  0  0.955433  0  0  0.147473  0  1.019694  0  0  0.149082  0  1.020251  0  0  0.097173  0.146488  0  1.019039  0
H  H54  1  0.40913538  0.08366160  0.61282036  1  0  0.123025  0  0.975339  0  0  0.141777  0  1.037445  0  0  0.143176  0  1.037891  0  0  0.098041  0.140667  0  1.037348  0
H  H55  1  0.91633724  0.59086348  0.88717957  1  0  0.123009  0  0.975336  0  0  0.141758  0  1.037449  0  0  0.143156  0  1.037895  0  0  0.09804  0.140661  0  1.037333  0
H  H56  1  0.59086340  0.91633910  0.38718002  1  0  0.123055  0  0.975273  0  0  0.141766  0  1.037431  0  0  0.143165  0  1.037876  0  0  0.098043  0.140652  0  1.037337  0
H  H57  1  0.08366112  0.40913617  0.11282054  1  0  0.123043  0  0.975302  0  0  0.14177  0  1.037438  0  0  0.143169  0  1.037884  0  0  0.098048  0.140668  0  1.037343  0
H  H58  1  0.52888143  0.99903944  0.60527204  1  0  0.144465  0  0.942012  0  0  0.165736  0  0.998109  0  0  0.168165  0  0.996935  0  0  0.103178  0.163998  0  0.998931  0
H  H59  1  0.00096099  0.47111923  0.89472927  1  0  0.144486  0  0.941969  0  0  0.16573  0  0.99809  0  0  0.168156  0  0.996921  0  0  0.103224  0.164024  0  0.998914  0
H  H60  1  0.47111831  0.00096126  0.39472850  1  0  0.144468  0  0.941985  0  0  0.165729  0  0.998088  0  0  0.168156  0  0.996916  0  0  0.103182  0.16399  0  0.998903  0
H  H61  1  0.99903875  0.52888147  0.10527127  1  0  0.144477  0  0.941977  0  0  0.165737  0  0.998083  0  0  0.168165  0  0.99691  0  0  0.1032  0.16402  0  0.998893  0
C  C62  1  0.74080070  0.76839823  0.48706444  1  0  -0.092769  0  3.788824  0  0  -0.071127  0  4.023792  0  0  -0.08043  0  4.046546  0  0  -0.030129  -0.065214  0  4.008782  0
C  C63  1  0.23159979  0.25919855  0.01293418  1  0  -0.092763  0  3.788826  0  0  -0.071152  0  4.023831  0  0  -0.080453  0  4.046581  0  0  -0.03012  -0.065237  0  4.008853  0
C  C64  1  0.25920055  0.23160141  0.51293470  1  0  -0.092732  0  3.788939  0  0  -0.071098  0  4.023911  0  0  -0.0804  0  4.046662  0  0  -0.030116  -0.065214  0  4.008931  0
C  C65  1  0.76839995  0.74080215  0.98706563  1  0  -0.092815  0  3.788876  0  0  -0.071206  0  4.023894  0  0  -0.080508  0  4.046646  0  0  -0.03014  -0.065287  0  4.008882  0
C  C66  1  0.78641658  0.89991516  0.57802798  1  0  0.611848  0  3.966473  0  0  0.566492  0  4.25319  0  0  0.600593  0  4.24827  0  0  0.185967  0.54327  0  4.25598  0
C  C67  1  0.10008183  0.21358394  0.92197268  1  0  0.61193  0  3.96637  0  0  0.566584  0  4.253076  0  0  0.600687  0  4.248153  0  0  0.186007  0.543379  0  4.255907  0
C  C68  1  0.21358658  0.10008446  0.42197298  1  0  0.611804  0  3.966504  0  0  0.566438  0  4.253225  0  0  0.60054  0  4.248306  0  0  0.185935  0.543231  0  4.256026  0
C  C69  1  0.89991694  0.78641675  0.07802843  1  0  0.611903  0  3.966399  0  0  0.566553  0  4.253115  0  0  0.600654  0  4.248196  0  0  0.185916  0.543303  0  4.255879  0
C  C70  1  0.83069545  0.74607800  0.42976931  1  0  -0.046177  0  3.702793  0  0  -0.069225  0  3.952926  0  0  -0.066703  0  3.970888  0  0  -0.076367  -0.070602  0  3.940673  0
C  C71  1  0.25392167  0.16930402  0.07023037  1  0  -0.0462  0  3.702727  0  0  -0.069237  0  3.952863  0  0  -0.066716  0  3.970823  0  0  -0.07634  -0.070601  0  3.940597  0
C  C72  1  0.16930689  0.25391953  0.57022965  1  0  -0.046209  0  3.702833  0  0  -0.069267  0  3.952959  0  0  -0.066744  0  3.970919  0  0  -0.076387  -0.070653  0  3.940726  0
C  C73  1  0.74607916  0.83069457  0.92976925  1  0  -0.046145  0  3.702791  0  0  -0.069199  0  3.952923  0  0  -0.066678  0  3.970884  0  0  -0.076342  -0.070584  0  3.940705  0
C  C74  1  0.78892654  0.61844027  0.34968542  1  0  -0.183721  0  3.724667  0  0  -0.205971  0  3.982775  0  0  -0.211238  0  4.000245  0  0  -0.098221  -0.202427  0  3.970549  0
C  C75  1  0.38156266  0.21107437  0.15031287  1  0  -0.183736  0  3.724635  0  0  -0.205966  0  3.982743  0  0  -0.211235  0  4.000215  0  0  -0.098203  -0.202414  0  3.970481  0
C  C76  1  0.21107417  0.38156043  0.65031381  1  0  -0.183685  0  3.724636  0  0  -0.20595  0  3.982739  0  0  -0.211218  0  4.00021  0  0  -0.09822  -0.202429  0  3.970529  0
C  C77  1  0.61843901  0.78892632  0.84968727  1  0  -0.183783  0  3.724698  0  0  -0.206016  0  3.982814  0  0  -0.211284  0  4.000284  0  0  -0.098277  -0.202518  0  3.970606  0
C  C78  1  0.56622366  0.12964047  0.76104656  1  0  0.372427  0  3.675316  0  0  0.350906  0  3.937322  0  0  0.36721  0  3.951608  0  0  0.21685  0.339998  0  3.927666  0
C  C79  1  0.87035890  0.43377619  0.73895363  1  0  0.372368  0  3.675462  0  0  0.35083  0  3.937485  0  0  0.367134  0  3.951769  0  0  0.216786  0.339926  0  3.927837  0
C  C80  1  0.43377608  0.87036023  0.23895398  1  0  0.372406  0  3.675361  0  0  0.350872  0  3.937382  0  0  0.367176  0  3.951666  0  0  0.216817  0.339962  0  3.92774  0
C  C81  1  0.12963987  0.56622451  0.26104601  1  0  0.372417  0  3.675305  0  0  0.350885  0  3.937323  0  0  0.36719  0  3.951608  0  0  0.216817  0.339973  0  3.927677  0
C  C82  1  0.65618394  0.51466400  0.32718214  1  0  0.266348  0  3.810998  0  0  0.258437  0  4.072336  0  0  0.269443  0  4.087015  0  0  0.082909  0.251112  0  4.062181  0
C  C83  1  0.48533724  0.34381719  0.17281516  1  0  0.266397  0  3.811019  0  0  0.258459  0  4.072391  0  0  0.269464  0  4.087069  0  0  0.08292  0.25115  0  4.062218  0
C  C84  1  0.34381816  0.48533776  0.67281606  1  0  0.266283  0  3.811074  0  0  0.258386  0  4.072396  0  0  0.269392  0  4.087076  0  0  0.082865  0.251088  0  4.062192  0
C  C85  1  0.51466442  0.65618350  0.82718498  1  0  0.266386  0  3.810993  0  0  0.258447  0  4.072361  0  0  0.269453  0  4.087041  0  0  0.082879  0.251126  0  4.062178  0
C  C86  1  0.60713484  0.66293554  0.46217781  1  0  -0.058233  0  3.773689  0  0  -0.081189  0  4.024716  0  0  -0.078954  0  4.043614  0  0  -0.087014  -0.082374  0  4.011789  0
C  C87  1  0.33706246  0.39286446  0.03782008  1  0  -0.058297  0  3.773792  0  0  -0.081239  0  4.024843  0  0  -0.079004  0  4.043742  0  0  -0.087042  -0.082424  0  4.011928  0
C  C88  1  0.39286641  0.33706409  0.53782207  1  0  -0.058253  0  3.773643  0  0  -0.081193  0  4.024677  0  0  -0.078958  0  4.043575  0  0  -0.087023  -0.082373  0  4.011782  0
C  C89  1  0.66293782  0.60713519  0.96217964  1  0  -0.058276  0  3.773807  0  0  -0.081218  0  4.024862  0  0  -0.078985  0  4.043761  0  0  -0.087054  -0.082429  0  4.011985  0
C  C90  1  0.69346479  0.17141368  0.92511760  1  0  -0.007221  0  3.810973  0  0  -0.044083  0  4.085943  0  0  -0.04192  0  4.106329  0  0  -0.010332  -0.04537  0  4.072022  0
C  C91  1  0.82858834  0.30653471  0.57488299  1  0  -0.007288  0  3.810972  0  0  -0.044153  0  4.085951  0  0  -0.04199  0  4.106339  0  0  -0.010331  -0.045422  0  4.07201  0
C  C92  1  0.30653591  0.82858700  0.07488311  1  0  -0.007213  0  3.811017  0  0  -0.044077  0  4.085991  0  0  -0.041914  0  4.106379  0  0  -0.01033  -0.045375  0  4.072118  0
C  C93  1  0.17141236  0.69346598  0.42511772  1  0  -0.007263  0  3.811039  0  0  -0.044123  0  4.086009  0  0  -0.041961  0  4.106399  0  0  -0.010334  -0.045413  0  4.072098  0
C  C94  1  0.56867128  0.17952514  0.93014873  1  0  -0.072367  0  3.706644  0  0  -0.114539  0  3.969807  0  0  -0.112724  0  3.98893  0  0  -0.005727  -0.115466  0  3.956417  0
C  C95  1  0.82047410  0.43132883  0.56985148  1  0  -0.07235  0  3.70663  0  0  -0.11452  0  3.969793  0  0  -0.112706  0  3.988918  0  0  -0.005711  -0.115432  0  3.956378  0
C  C96  1  0.43132900  0.82047450  0.06985172  1  0  -0.07235  0  3.706685  0  0  -0.114519  0  3.969848  0  0  -0.112704  0  3.988972  0  0  -0.005723  -0.115471  0  3.956493  0
C  C97  1  0.17952467  0.56867187  0.43014963  1  0  -0.072367  0  3.70669  0  0  -0.114554  0  3.969849  0  0  -0.112738  0  3.988974  0  0  -0.005743  -0.115483  0  3.956456  0
C  C98  1  0.56429734  0.53644199  0.38236261  1  0  -0.197317  0  3.776388  0  0  -0.21653  0  4.026059  0  0  -0.223185  0  4.046912  0  0  -0.105928  -0.212395  0  4.01221  0
C  C99  1  0.46355827  0.43570222  0.11763351  1  0  -0.197351  0  3.776408  0  0  -0.216545  0  4.026074  0  0  -0.2232  0  4.046926  0  0  -0.105889  -0.212386  0  4.012199  0
C  C100  1  0.43570433  0.46355871  0.61763680  1  0  -0.197356  0  3.776399  0  0  -0.216542  0  4.026059  0  0  -0.223199  0  4.046912  0  0  -0.105901  -0.212402  0  4.012208  0
C  C101  1  0.53644257  0.56429637  0.88236538  1  0  -0.19731  0  3.776444  0  0  -0.216503  0  4.026107  0  0  -0.22316  0  4.046961  0  0  -0.105892  -0.212365  0  4.012281  0
C  C102  1  0.34774926  0.15149964  0.79352022  1  0  0.006162  0  3.625175  0  0  -0.058004  0  3.88601  0  0  -0.052985  0  3.897112  0  0  -0.056286  -0.061165  0  3.878257  0
C  C103  1  0.84850117  0.65225101  0.70648031  1  0  0.006237  0  3.625094  0  0  -0.057963  0  3.885968  0  0  -0.052944  0  3.897068  0  0  -0.056313  -0.061127  0  3.87821  0
C  C104  1  0.65225006  0.84850001  0.20648006  1  0  0.006152  0  3.625239  0  0  -0.058023  0  3.886042  0  0  -0.053002  0  3.897144  0  0  -0.056276  -0.061179  0  3.878271  0
C  C105  1  0.15149731  0.34774654  0.29351945  1  0  0.006191  0  3.625148  0  0  -0.057969  0  3.88592  0  0  -0.052949  0  3.897021  0  0  -0.056326  -0.061144  0  3.878169  0
C  C106  1  0.23298031  0.00627523  0.72975784  1  0  -0.130915  0  3.673976  0  0  -0.171873  0  3.93547  0  0  -0.173779  0  3.950033  0  0  -0.164543  -0.170478  0  3.925305  0
C  C107  1  0.99372567  0.76701935  0.77024112  1  0  -0.131001  0  3.674086  0  0  -0.171944  0  3.935531  0  0  -0.173852  0  3.950093  0  0  -0.164575  -0.170548  0  3.92537  0
C  C108  1  0.76701985  0.99372652  0.27024222  1  0  -0.130867  0  3.67403  0  0  -0.171785  0  3.935457  0  0  -0.173692  0  3.950021  0  0  -0.164525  -0.170382  0  3.925269  0
C  C109  1  0.00627323  0.23297925  0.22975890  1  0  -0.131017  0  3.674152  0  0  -0.17192  0  3.935536  0  0  -0.173825  0  3.950098  0  0  -0.164591  -0.170526  0  3.925372  0
C  C110  1  0.24418658  0.88990174  0.77568141  1  0  -0.101746  0  3.685731  0  0  -0.140504  0  3.948129  0  0  -0.141286  0  3.962607  0  0  -0.167428  -0.139784  0  3.937944  0
C  C111  1  0.11009794  0.75581248  0.72431728  1  0  -0.101801  0  3.685894  0  0  -0.140459  0  3.948192  0  0  -0.141242  0  3.962671  0  0  -0.167407  -0.139752  0  3.93801  0
C  C112  1  0.75581370  0.11009790  0.22431904  1  0  -0.101791  0  3.68588  0  0  -0.140548  0  3.948261  0  0  -0.141335  0  3.962746  0  0  -0.167449  -0.139814  0  3.938072  0
C  C113  1  0.88990235  0.24418716  0.27568244  1  0  -0.101759  0  3.685852  0  0  -0.140466  0  3.948198  0  0  -0.141249  0  3.962677  0  0  -0.167416  -0.139752  0  3.93802  0
C  C114  1  0.51823394  0.09618551  0.64305569  1  0  -0.397472  0  3.700464  0  0  -0.477303  0  3.935324  0  0  -0.481476  0  3.941091  0  0  -0.23669  -0.474193  0  3.931284  0
C  C115  1  0.90381458  0.48176682  0.85694406  1  0  -0.397393  0  3.700537  0  0  -0.477169  0  3.935441  0  0  -0.48134  0  3.94121  0  0  -0.236598  -0.474039  0  3.931376  0
C  C116  1  0.48176580  0.90381519  0.35694412  1  0  -0.397427  0  3.700462  0  0  -0.477199  0  3.935364  0  0  -0.481373  0  3.941132  0  0  -0.236656  -0.474081  0  3.931322  0
C  C117  1  0.09618516  0.51823388  0.14305575  1  0  -0.397441  0  3.700513  0  0  -0.477217  0  3.935412  0  0  -0.481391  0  3.941181  0  0  -0.236613  -0.474078  0  3.931357  0
N  N118  1  0.69068865  0.14040794  0.82006463  1  0  -0.45424  0  3.231286  0  0  -0.381781  0  3.507746  0  0  -0.404837  0  3.525101  0  0  -0.36589  -0.366208  0  3.495645  0
N  N119  1  0.85959284  0.30931077  0.67993573  1  0  -0.454231  0  3.231307  0  0  -0.38176  0  3.50776  0  0  -0.404812  0  3.525106  0  0  -0.365891  -0.366201  0  3.495668  0
N  N120  1  0.30931151  0.85959381  0.17993544  1  0  -0.454277  0  3.231341  0  0  -0.381808  0  3.507794  0  0  -0.404861  0  3.525142  0  0  -0.365897  -0.366232  0  3.495713  0
N  N121  1  0.14040551  0.69068888  0.32006512  1  0  -0.454268  0  3.231327  0  0  -0.381802  0  3.507778  0  0  -0.404851  0  3.525122  0  0  -0.365913  -0.366233  0  3.495682  0
N  N122  1  0.48969184  0.15365263  0.82612119  1  0  -0.111701  0  3.518876  0  0  -0.018173  0  3.731646  0  0  -0.033662  0  3.75629  0  0  -0.240032  -0.008006  0  3.714853  0
N  N123  1  0.84634912  0.51030891  0.67388032  1  0  -0.1117  0  3.518812  0  0  -0.018157  0  3.731588  0  0  -0.033645  0  3.756232  0  0  -0.240045  -0.008011  0  3.714807  0
N  N124  1  0.51030844  0.84634701  0.17387926  1  0  -0.111689  0  3.518835  0  0  -0.018163  0  3.731608  0  0  -0.033652  0  3.756253  0  0  -0.240062  -0.008021  0  3.714835  0
N  N125  1  0.15365158  0.48969178  0.32612039  1  0  -0.111658  0  3.51869  0  0  -0.018125  0  3.731461  0  0  -0.033615  0  3.756107  0  0  -0.23999  -0.007958  0  3.714673  0
O  O126  1  0.61464235  0.38535834  0.24999708  1  0  -0.307588  0  2.291414  0  0  -0.242623  0  2.512765  0  0  -0.258416  0  2.511715  0  0  -0.165288  -0.231073  0  2.512859  0
O  O127  1  0.38535879  0.61464341  0.75000168  1  0  -0.307567  0  2.291419  0  0  -0.242603  0  2.512757  0  0  -0.258395  0  2.511709  0  0  -0.165336  -0.231138  0  2.512869  0
O  O128  1  0.90279886  0.00143214  0.59689031  1  0  -0.630588  0  1.931874  0  0  -0.571142  0  2.169211  0  0  -0.598381  0  2.158904  0  0  -0.331323  -0.552142  0  2.175786  0
O  O129  1  0.99856765  0.09719989  0.90310974  1  0  -0.630659  0  1.931859  0  0  -0.571215  0  2.169198  0  0  -0.598456  0  2.15889  0  0  -0.331335  -0.552184  0  2.175771  0
O  O130  1  0.09720377  0.99856855  0.40311001  1  0  -0.630609  0  1.931852  0  0  -0.571148  0  2.169175  0  0  -0.598387  0  2.158872  0  0  -0.331286  -0.552124  0  2.175735  0
O  O131  1  0.00143221  0.90279870  0.09689045  1  0  -0.630609  0  1.931909  0  0  -0.571155  0  2.169239  0  0  -0.598393  0  2.158933  0  0  -0.331325  -0.552183  0  2.175806  0
O  O132  1  0.70695950  0.90406376  0.63605001  1  0  -0.645286  0  1.946368  0  0  -0.583834  0  2.180209  0  0  -0.611884  0  2.171301  0  0  -0.3415  -0.56453  0  2.185663  0
O  O133  1  0.09593314  0.29304138  0.86395069  1  0  -0.645292  0  1.946292  0  0  -0.583838  0  2.180117  0  0  -0.611888  0  2.171207  0  0  -0.341471  -0.564514  0  2.185582  0
O  O134  1  0.29304558  0.09593584  0.36395275  1  0  -0.645226  0  1.946314  0  0  -0.583775  0  2.180156  0  0  -0.611826  0  2.171249  0  0  -0.341491  -0.564477  0  2.185616  0
O  O135  1  0.90406411  0.70696037  0.13605181  1  0  -0.645289  0  1.946278  0  0  -0.583837  0  2.180112  0  0  -0.611887  0  2.171205  0  0  -0.341574  -0.56462  0  2.185594  0
