# generated using pymatgen
data_Zn2H30C40N4O9
_symmetry_space_group_name_H-M   'P 1'
_cell_length_a   12.31047697
_cell_length_b   13.77857903
_cell_length_c   13.77860550
_cell_angle_alpha   83.29468147
_cell_angle_beta   79.92812712
_cell_angle_gamma   79.92815324
_symmetry_Int_Tables_number   1
_chemical_formula_structural   Zn2H30C40N4O9
_chemical_formula_sum   'Zn4 H60 C80 N8 O18'
_cell_volume   2256.68955115
_cell_formula_units_Z   2
loop_
 _symmetry_equiv_pos_site_id
 _symmetry_equiv_pos_as_xyz
  1  'x, y, z'
loop_
 _atom_site_type_symbol
 _atom_site_label
 _atom_site_symmetry_multiplicity
 _atom_site_fract_x
 _atom_site_fract_y
 _atom_site_fract_z
 _atom_site_occupancy
 _atom_site_pbe_bader_charge
 _atom_site_pbe_bader_spin_density
 _atom_site_pbe_cm5_charge
 _atom_site_pbe_ddec_charge
 _atom_site_pbe_ddec_spin_density
 _atom_site_pbe_ddec_sum_bond_order
 _atom_site_pbe_magmom
Zn  Zn0  1  0.89762615  0.82680661  0.77544041  1  1.243257  0  0.693217  0.754844  0  2.368803  0
Zn  Zn1  1  0.60236845  0.22456065  0.17319118  1  1.243275  0  0.693159  0.754712  0  2.368899  0
Zn  Zn2  1  0.10236876  0.17319106  0.22455786  1  1.243328  0  0.693167  0.75472  0  2.368901  0
Zn  Zn3  1  0.39763319  0.77544077  0.82680994  1  1.243241  0  0.693165  0.7547  0  2.368969  0
H  H4  1  0.95901889  0.15689122  0.64653177  1  0.085541  0  0.109073  0.113659  0  0.978197  0
H  H5  1  0.54097791  0.35347095  0.84310107  1  0.085569  0  0.109067  0.113643  0  0.978239  0
H  H6  1  0.04097171  0.84310727  0.35347722  1  0.085611  0  0.109113  0.113709  0  0.978185  0
H  H7  1  0.45902399  0.64652451  0.15689567  1  0.085561  0  0.109079  0.113643  0  0.978201  0
H  H8  1  0.05313405  0.30102912  0.65986679  1  0.058968  0  0.097797  0.103908  0  1.030462  0
H  H9  1  0.44686190  0.34013478  0.69896764  1  0.058903  0  0.097787  0.103867  0  1.030479  0
H  H10  1  0.94686069  0.69896935  0.34013866  1  0.059192  0  0.097789  0.103867  0  1.03051  0
H  H11  1  0.55313481  0.65986661  0.30103206  1  0.059193  0  0.097784  0.103883  0  1.030476  0
H  H12  1  0.32957412  0.09899091  0.75786946  1  0.083503  0  0.110998  0.131598  0  0.998837  0
H  H13  1  0.17042454  0.24212954  0.90100768  1  0.083457  0  0.111001  0.131595  0  0.998786  0
H  H14  1  0.67042133  0.90100826  0.24213071  1  0.083514  0  0.111016  0.131634  0  0.998731  0
H  H15  1  0.82957572  0.75787039  0.09899311  1  0.083534  0  0.111007  0.131608  0  0.9988  0
H  H16  1  0.12187625  0.79017067  0.65659779  1  0.18786  0  0.122795  0.109292  0  1.044957  0
H  H17  1  0.37811996  0.34340011  0.20983152  1  0.187794  0  0.122792  0.109274  0  1.044943  0
H  H18  1  0.87811925  0.20983291  0.34339747  1  0.187841  0  0.122773  0.109245  0  1.044932  0
H  H19  1  0.62188111  0.65659537  0.79016897  1  0.187958  0  0.122775  0.109224  0  1.044989  0
H  H20  1  0.23869451  0.66176513  0.55703265  1  0.064738  0  0.106954  0.112945  0  1.011103  0
H  H21  1  0.26130229  0.44296484  0.33823733  1  0.064738  0  0.106939  0.112951  0  1.011089  0
H  H22  1  0.76130195  0.33823771  0.44296328  1  0.064768  0  0.106948  0.11295  0  1.011031  0
H  H23  1  0.73869783  0.55703137  0.66176177  1  0.064694  0  0.10695  0.112951  0  1.011041  0
H  H24  1  0.98718654  0.47431512  0.66003176  1  0.065636  0  0.104815  0.109733  0  1.009878  0
H  H25  1  0.51281389  0.33996851  0.52568400  1  0.065669  0  0.104817  0.109725  0  1.009847  0
H  H26  1  0.01281565  0.52568331  0.33996674  1  0.06566  0  0.10484  0.109757  0  1.009839  0
H  H27  1  0.48718914  0.66003438  0.47431600  1  0.065681  0  0.10482  0.109758  0  1.009897  0
H  H28  1  0.87652255  0.61483764  0.75483994  1  0.156792  0  0.118876  0.099384  0  1.037322  0
H  H29  1  0.62347929  0.24516143  0.38515879  1  0.156771  0  0.118876  0.099397  0  1.037331  0
H  H30  1  0.12348180  0.38515786  0.24516222  1  0.156764  0  0.118854  0.099368  0  1.037336  0
H  H31  1  0.37652206  0.75483702  0.61484201  1  0.156808  0  0.118841  0.099327  0  1.037369  0
H  H32  1  0.16014877  0.40557703  0.56072068  1  0.051257  0  0.098482  0.100746  0  1.001942  0
H  H33  1  0.33985233  0.43927920  0.59442276  1  0.051258  0  0.098474  0.100729  0  1.00195  0
H  H34  1  0.83985799  0.59442359  0.43927249  1  0.051173  0  0.098515  0.100773  0  1.001951  0
H  H35  1  0.66015045  0.56072515  0.40557419  1  0.051457  0  0.098511  0.100774  0  1.001929  0
H  H36  1  0.16016212  0.49617005  0.45982886  1  0.025677  0  0.095834  0.090795  0  1.004739  0
H  H37  1  0.33983840  0.54017050  0.50382822  1  0.025679  0  0.095843  0.090813  0  1.00471  0
H  H38  1  0.83984273  0.50383206  0.54016442  1  0.025652  0  0.095857  0.090775  0  1.004716  0
H  H39  1  0.66016617  0.45983309  0.49616638  1  0.0258  0  0.095833  0.090766  0  1.004685  0
H  H40  1  0.65071071  0.90455003  0.81718656  1  0.107163  0  0.126558  0.104872  0  0.976096  0
H  H41  1  0.84928781  0.18281277  0.09545188  1  0.107224  0  0.126554  0.10487  0  0.97606  0
H  H42  1  0.34928613  0.09545061  0.18281176  1  0.107211  0  0.126529  0.104901  0  0.975996  0
H  H43  1  0.15071314  0.81718792  0.90455088  1  0.107193  0  0.126528  0.104878  0  0.976071  0
H  H44  1  0.49411183  0.95224574  0.72090302  1  0.107958  0  0.108073  0.124443  0  1.030868  0
H  H45  1  0.00588920  0.27909996  0.04775707  1  0.107771  0  0.10806  0.12438  0  1.030881  0
H  H46  1  0.50588650  0.04775569  0.27910150  1  0.107831  0  0.108078  0.124437  0  1.030847  0
H  H47  1  0.99411080  0.72090144  0.95224285  1  0.107766  0  0.10807  0.124424  0  1.030844  0
H  H48  1  0.72876522  0.87290570  0.45938566  1  0.077972  0  0.098891  0.104241  0  1.065324  0
H  H49  1  0.77123031  0.54061370  0.12709990  1  0.077682  0  0.098902  0.104285  0  1.065358  0
H  H50  1  0.27122397  0.12710084  0.54061166  1  0.077678  0  0.098857  0.104249  0  1.065341  0
H  H51  1  0.22877284  0.45938848  0.87290380  1  0.07773  0  0.098872  0.104289  0  1.06533  0
H  H52  1  0.87845836  0.83782694  0.56486210  1  0.104119  0  0.118243  0.091502  0  1.004567  0
H  H53  1  0.62154298  0.43513929  0.16217422  1  0.104117  0  0.118232  0.091485  0  1.00458  0
H  H54  1  0.12153851  0.16217815  0.43513712  1  0.104056  0  0.118195  0.091445  0  1.004619  0
H  H55  1  0.37845853  0.56486287  0.83782683  1  0.104089  0  0.118213  0.091493  0  1.004595  0
H  H56  1  0.52533271  0.90040790  0.45436075  1  0.016764  0  0.094511  0.096536  0  0.981496  0
H  H57  1  0.97466960  0.54564287  0.09959256  1  0.016679  0  0.094533  0.096581  0  0.981533  0
H  H58  1  0.47465917  0.09959724  0.54564577  1  0.016779  0  0.094552  0.096586  0  0.981559  0
H  H59  1  0.02533753  0.45435558  0.90040591  1  0.01679  0  0.094534  0.096538  0  0.981608  0
H  H60  1  0.42638583  0.92816714  0.56149854  1  0.092096  0  0.097544  0.106407  0  0.998309  0
H  H61  1  0.07361468  0.43850201  0.07183406  1  0.092086  0  0.097562  0.106445  0  0.998285  0
H  H62  1  0.57360867  0.07183724  0.43850476  1  0.092097  0  0.097566  0.106463  0  0.998379  0
H  H63  1  0.92638791  0.56149421  0.92816538  1  0.092141  0  0.097552  0.106445  0  0.998393  0
C  C64  1  0.19653138  0.03193175  0.72453073  1  0.032456  0  -0.006423  -0.018219  0  3.93828  0
C  C65  1  0.30346772  0.27547030  0.96806486  1  0.032576  0  -0.006402  -0.018213  0  3.938076  0
C  C66  1  0.80346349  0.96806598  0.27547479  1  0.032628  0  -0.006324  -0.018081  0  3.938094  0
C  C67  1  0.69653678  0.72452445  0.03193447  1  0.032625  0  -0.006336  -0.018105  0  3.938098  0
C  C68  1  0.09045395  0.04807197  0.69511202  1  -0.037522  0  -0.002585  -0.023891  0  3.908734  0
C  C69  1  0.40954514  0.30489042  0.95192317  1  -0.037306  0  -0.002591  -0.023852  0  3.908634  0
C  C70  1  0.90954078  0.95192650  0.30489415  1  -0.03739  0  -0.002611  -0.023926  0  3.908736  0
C  C71  1  0.59046046  0.69510282  0.04807400  1  -0.037347  0  -0.002615  -0.023906  0  3.908666  0
C  C72  1  0.04059311  0.14497292  0.67044962  1  -0.008069  0  -0.081296  -0.078963  0  3.984611  0
C  C73  1  0.45940574  0.32955187  0.85502181  1  -0.008149  0  -0.081363  -0.079055  0  3.984647  0
C  C74  1  0.95939970  0.85502704  0.32955740  1  -0.008155  0  -0.081368  -0.079025  0  3.984696  0
C  C75  1  0.54059782  0.67044359  0.14497467  1  -0.00814  0  -0.081285  -0.078901  0  3.984541  0
C  C76  1  0.09291539  0.22540804  0.67740966  1  -0.041752  0  -0.107539  -0.209494  0  4.030647  0
C  C77  1  0.40708292  0.32259032  0.77458936  1  -0.041784  0  -0.107467  -0.209347  0  4.030655  0
C  C78  1  0.90707978  0.77459264  0.32259327  1  -0.041929  0  -0.107492  -0.209427  0  4.030648  0
C  C79  1  0.59291706  0.67740663  0.22540967  1  -0.041991  0  -0.107575  -0.209576  0  4.030591  0
C  C80  1  0.19674072  0.20848895  0.70917996  1  0.342797  0  0.072702  0.240312  0  4.082267  0
C  C81  1  0.30325722  0.29082004  0.79150678  1  0.342515  0  0.072675  0.240267  0  4.082173  0
C  C82  1  0.80325568  0.79150951  0.29082306  1  0.342636  0  0.072684  0.240358  0  4.082119  0
C  C83  1  0.69674358  0.70917691  0.20849212  1  0.342784  0  0.072794  0.240573  0  4.082038  0
C  C84  1  0.24855995  0.11227761  0.73292019  1  0.039591  0  -0.096216  -0.223328  0  3.97364  0
C  C85  1  0.25143911  0.26708090  0.88771785  1  0.039556  0  -0.096257  -0.223391  0  3.973489  0
C  C86  1  0.75143479  0.88772086  0.26708454  1  0.0393  0  -0.09628  -0.223476  0  3.973667  0
C  C87  1  0.74856334  0.73291606  0.11228152  1  0.039336  0  -0.096313  -0.223545  0  3.973673  0
C  C88  1  0.26047339  0.92916473  0.73816042  1  1.567233  0  0.20418  0.564637  0  4.230959  0
C  C89  1  0.23953002  0.26183995  0.07083328  1  1.567195  0  0.204205  0.564671  0  4.231068  0
C  C90  1  0.73952452  0.07083446  0.26184228  1  1.567247  0  0.20416  0.564567  0  4.230923  0
C  C91  1  0.76047395  0.73815775  0.92916576  1  1.567243  0  0.204152  0.564568  0  4.23094  0
C  C92  1  0.02517249  0.96528699  0.69547328  1  1.59016  0  0.195217  0.564759  0  4.248783  0
C  C93  1  0.47482881  0.30452602  0.03470954  1  1.589929  0  0.195179  0.564746  0  4.248816  0
C  C94  1  0.97482404  0.03471073  0.30453054  1  1.590263  0  0.195141  0.564639  0  4.24897  0
C  C95  1  0.52517762  0.69546724  0.96528895  1  1.590257  0  0.195121  0.564617  0  4.248949  0
C  C96  1  0.09375652  0.71977808  0.65455588  1  0.471376  0  0.056683  0.110072  0  3.903565  0
C  C97  1  0.40624146  0.34544223  0.28022334  1  0.471513  0  0.056689  0.110035  0  3.903575  0
C  C98  1  0.90624008  0.28022400  0.34543795  1  0.47157  0  0.056693  0.110076  0  3.903532  0
C  C99  1  0.59376294  0.65455769  0.71977537  1  0.471368  0  0.056673  0.110063  0  3.903584  0
C  C100  1  0.15923609  0.64638156  0.59934911  1  -0.001772  0  -0.084906  -0.181167  0  3.926371  0
C  C101  1  0.34076214  0.40065138  0.35361932  1  -0.001829  0  -0.08485  -0.181138  0  3.926339  0
C  C102  1  0.84076311  0.35361981  0.40064731  1  -0.001959  0  -0.084896  -0.181222  0  3.92632  0
C  C103  1  0.65924104  0.59935075  0.64637784  1  -0.001851  0  -0.0849  -0.181179  0  3.926284  0
C  C104  1  0.12254610  0.55604302  0.59784201  1  -0.051599  0  0.014926  0.171734  0  3.937055  0
C  C105  1  0.37745332  0.40215510  0.44395669  1  -0.051608  0  0.014906  0.171732  0  3.936996  0
C  C106  1  0.87745337  0.44395686  0.40215238  1  -0.051271  0  0.014934  0.171803  0  3.936979  0
C  C107  1  0.62255233  0.59784703  0.55603937  1  -0.051634  0  0.014926  0.171814  0  3.937015  0
C  C108  1  0.01951127  0.54377999  0.65594470  1  -0.072958  0  -0.091158  -0.198542  0  3.966349  0
C  C109  1  0.48048984  0.34405519  0.45621721  1  -0.072786  0  -0.091163  -0.198517  0  3.966379  0
C  C110  1  0.98049188  0.45621771  0.34405448  1  -0.072781  0  -0.091186  -0.198561  0  3.966401  0
C  C111  1  0.51951277  0.65594547  0.54378095  1  -0.072787  0  -0.091138  -0.198537  0  3.966429  0
C  C112  1  0.95736214  0.62035336  0.70878060  1  0.490397  0  0.045539  0.086742  0  3.95619  0
C  C113  1  0.54263761  0.29121929  0.37964511  1  0.490233  0  0.045512  0.086632  0  3.956329  0
C  C114  1  0.04263936  0.37964434  0.29121810  1  0.490142  0  0.045519  0.086613  0  3.956296  0
C  C115  1  0.45736500  0.70878138  0.62035522  1  0.489991  0  0.04553  0.086635  0  3.956322  0
C  C116  1  0.18634101  0.47733340  0.53317083  1  -0.020298  0  -0.153295  -0.191136  0  3.940492  0
C  C117  1  0.31365951  0.46682875  0.52266653  1  0.019023  0  -0.153267  -0.191099  0  3.940409  0
C  C118  1  0.81366299  0.52266872  0.46682476  1  0.018878  0  -0.153326  -0.191109  0  3.940474  0
C  C119  1  0.68634479  0.53317634  0.47733010  1  -0.020619  0  -0.153318  -0.191161  0  3.940469  0
C  C120  1  0.66515723  0.90109069  0.73722056  1  0.515133  0  0.053256  0.109208  0  3.922354  0
C  C121  1  0.83484718  0.26277988  0.09891319  1  0.515064  0  0.053192  0.109124  0  3.922522  0
C  C122  1  0.33484428  0.09891146  0.26277976  1  0.515048  0  0.053235  0.109141  0  3.922436  0
C  C123  1  0.16515541  0.73722082  0.90109078  1  0.514939  0  0.05323  0.10911  0  3.922388  0
C  C124  1  0.57787763  0.92704802  0.68267748  1  -0.060554  0  -0.087535  -0.192375  0  3.932388  0
C  C125  1  0.92211849  0.31732441  0.07295928  1  -0.060348  0  -0.087414  -0.192143  0  3.932672  0
C  C126  1  0.42211525  0.07296079  0.31732479  1  -0.060273  0  -0.087455  -0.192291  0  3.932649  0
C  C127  1  0.07788150  0.68267701  0.92704354  1  -0.060381  0  -0.087459  -0.192248  0  3.932471  0
C  C128  1  0.59797715  0.91658686  0.58088741  1  -0.018381  0  0.012451  0.168234  0  3.941952  0
C  C129  1  0.90202187  0.41911356  0.08341951  1  -0.018024  0  0.01235  0.167998  0  3.941996  0
C  C130  1  0.40201585  0.08341677  0.41911477  1  -0.017955  0  0.012371  0.168197  0  3.942055  0
C  C131  1  0.09798060  0.58088785  0.91658076  1  -0.017844  0  0.012421  0.168236  0  3.94193  0
C  C132  1  0.70773879  0.88205501  0.53824627  1  0.022761  0  -0.087375  -0.180779  0  3.928719  0
C  C133  1  0.79225675  0.46175857  0.11794715  1  0.023065  0  -0.087284  -0.180708  0  3.928581  0
C  C134  1  0.29225215  0.11795084  0.46175740  1  0.023002  0  -0.087237  -0.180737  0  3.928688  0
C  C135  1  0.20774464  0.53824431  0.88205237  1  0.022984  0  -0.087261  -0.18078  0  3.928778  0
C  C136  1  0.79146035  0.86048790  0.59659695  1  0.458226  0  0.051085  0.109593  0  3.936214  0
C  C137  1  0.70853485  0.40340375  0.13951552  1  0.458123  0  0.051085  0.10961  0  3.936082  0
C  C138  1  0.20853253  0.13951644  0.40340153  1  0.458324  0  0.051119  0.109676  0  3.936338  0
C  C139  1  0.29146432  0.59659766  0.86048525  1  0.458135  0  0.051082  0.109562  0  3.936364  0
C  C140  1  0.50639149  0.94438421  0.51872458  1  -0.037977  0  -0.153492  -0.193937  0  3.91766  0
C  C141  1  0.99360652  0.48127777  0.05561796  1  -0.038115  0  -0.15351  -0.193958  0  3.917705  0
C  C142  1  0.49360014  0.05562240  0.48128034  1  -0.017998  0  -0.15357  -0.194115  0  3.917906  0
C  C143  1  0.00639650  0.51872066  0.94437969  1  -0.018026  0  -0.15358  -0.194087  0  3.917957  0
N  N144  1  0.99353289  0.70738986  0.70764389  1  -1.266752  0  -0.327015  -0.237326  0  3.583388  0
N  N145  1  0.50646718  0.29235681  0.29260959  1  -1.266787  0  -0.327028  -0.237203  0  3.583354  0
N  N146  1  0.00646588  0.29260930  0.29235360  1  -1.266843  0  -0.327012  -0.237175  0  3.583311  0
N  N147  1  0.49353694  0.70764461  0.70739115  1  -1.266458  0  -0.326966  -0.237137  0  3.583336  0
N  N148  1  0.77053064  0.86885781  0.69484171  1  -1.260923  0  -0.332456  -0.238868  0  3.600587  0
N  N149  1  0.72947168  0.30515899  0.13114433  1  -1.260985  0  -0.332486  -0.238868  0  3.600433  0
N  N150  1  0.22946758  0.13114433  0.30515912  1  -1.261249  0  -0.332432  -0.238849  0  3.600613  0
N  N151  1  0.27053160  0.69484245  0.86885871  1  -1.260918  0  -0.332414  -0.238745  0  3.600462  0
O  O152  1  0.32477000  0.91485065  0.80531347  1  -1.164755  0  -0.331743  -0.541181  0  2.289114  0
O  O153  1  0.17523285  0.19468636  0.08514755  1  -1.164709  0  -0.331703  -0.541139  0  2.28907  0
O  O154  1  0.67522861  0.08514929  0.19468975  1  -1.164703  0  -0.331706  -0.541117  0  2.289078  0
O  O155  1  0.82476851  0.80531208  0.91485326  1  -1.164718  0  -0.331681  -0.541127  0  2.289031  0
O  O156  1  0.25280049  0.86569931  0.68257422  1  -1.181603  0  -0.316333  -0.556338  0  2.184949  0
O  O157  1  0.24720684  0.31742741  0.13429616  1  -1.181615  0  -0.316377  -0.556396  0  2.185138  0
O  O158  1  0.74719838  0.13429915  0.31742914  1  -1.181634  0  -0.316375  -0.55636  0  2.184942  0
O  O159  1  0.75279865  0.68257103  0.86570111  1  -1.181633  0  -0.31639  -0.556376  0  2.184946  0
O  O160  1  0.00400514  0.91635050  0.78189021  1  -1.156178  0  -0.345145  -0.558467  0  2.261561  0
O  O161  1  0.49599668  0.21810665  0.08364299  1  -1.156213  0  -0.345091  -0.558429  0  2.261521  0
O  O162  1  0.99599577  0.08364127  0.21810931  1  -1.156253  0  -0.345082  -0.558413  0  2.26161  0
O  O163  1  0.50400755  0.78188959  0.91635838  1  -1.156204  0  -0.345062  -0.55836  0  2.261596  0
O  O164  1  0.99126249  0.95079377  0.61934662  1  -1.157206  0  -0.320443  -0.538583  0  2.127084  0
O  O165  1  0.50873688  0.38065078  0.04920491  1  -1.157021  0  -0.320408  -0.53854  0  2.127161  0
O  O166  1  0.00873435  0.04920687  0.38065170  1  -1.157277  0  -0.320395  -0.538459  0  2.127157  0
O  O167  1  0.49127259  0.61934394  0.95079003  1  -1.157334  0  -0.320416  -0.538512  0  2.127157  0
O  O168  1  0.24999962  0.28946145  0.71053388  1  -1.101528  0  -0.167492  -0.235144  0  2.548566  0
O  O169  1  0.74999776  0.71053624  0.28946545  1  -1.101723  0  -0.167502  -0.235226  0  2.548545  0
