# generated using pymatgen
data_MnH6C10(NO)4
_symmetry_space_group_name_H-M   'P 1'
_cell_length_a   9.54855920
_cell_length_b   12.60149849
_cell_length_c   13.73553903
_cell_angle_alpha   90.00008860
_cell_angle_beta   90.00036995
_cell_angle_gamma   101.52496127
_symmetry_Int_Tables_number   1
_chemical_formula_structural   MnH6C10(NO)4
_chemical_formula_sum   'Mn6 H36 C60 N24 O24'
_cell_volume   1619.42154725
_cell_formula_units_Z   6
loop_
 _symmetry_equiv_pos_site_id
 _symmetry_equiv_pos_as_xyz
  1  'x, y, z'
loop_
 _atom_site_type_symbol
 _atom_site_label
 _atom_site_symmetry_multiplicity
 _atom_site_fract_x
 _atom_site_fract_y
 _atom_site_fract_z
 _atom_site_occupancy
 _atom_site_pbe_cm5_charge
 _atom_site_pbe_ddec_charge
 _atom_site_pbe_ddec_spin_density
 _atom_site_pbe_ddec_sum_bond_order
 _atom_site_pbe_magmom
Mn  Mn0  1  0.99962725  0.99949008  0.00042813  1  0.62197  0.925041  4.63889  2.486175  4.44
Mn  Mn1  1  0.00037223  0.50051286  0.50042629  1  0.621941  0.924924  4.638872  2.486258  4.44
Mn  Mn2  1  0.96424408  0.06969459  0.75244010  1  0.636038  0.790724  4.642279  2.430447  4.431
Mn  Mn3  1  0.03574683  0.43030393  0.25243751  1  0.636005  0.790576  4.642344  2.43044  4.431
Mn  Mn4  1  0.03631967  0.93017620  0.24714721  1  0.637006  0.791106  -4.644588  2.433974  -4.423
Mn  Mn5  1  0.96368919  0.56982187  0.74714471  1  0.637004  0.791121  -4.644611  2.433908  -4.423
H  H6  1  0.00689946  0.74470316  0.03324205  1  0.115777  0.14047  -6.8e-05  1.012846  0.0
H  H7  1  0.99310369  0.75529665  0.53324576  1  0.115781  0.140478  -6.8e-05  1.012772  0.0
H  H8  1  0.99331470  0.25491006  0.96684324  1  0.115882  0.14091  -0.000528  1.012581  0.0
H  H9  1  0.00668549  0.24508834  0.46684535  1  0.115873  0.140902  -0.000528  1.012611  0.0
H  H10  1  0.10538886  0.66970697  0.95996085  1  0.114195  0.139169  -0.00084  0.970215  0.0
H  H11  1  0.89461211  0.83029341  0.45996416  1  0.114227  0.139215  -0.00084  0.970212  0.0
H  H12  1  0.89468159  0.32998885  0.03994097  1  0.113927  0.138543  0.001201  0.970649  0.0
H  H13  1  0.10531387  0.17001060  0.53994349  1  0.11393  0.138548  0.001201  0.970654  0.0
H  H14  1  0.74071076  0.39514005  0.82946848  1  0.116828  0.076165  -0.001349  1.040854  -0.001
H  H15  1  0.25928890  0.10486114  0.32947226  1  0.116826  0.07619  -0.00135  1.040804  -0.001
H  H16  1  0.25899446  0.60486672  0.17035108  1  0.116942  0.076176  0.001326  1.040759  0.001
H  H17  1  0.74100379  0.89513353  0.67035094  1  0.116962  0.076242  0.001325  1.040773  0.001
H  H18  1  0.56833135  0.35709694  0.96635749  1  0.10204  0.107522  -0.000162  1.035371  0.0
H  H19  1  0.43166865  0.14290469  0.46636136  1  0.102075  0.107573  -0.000162  1.035463  0.0
H  H20  1  0.43160986  0.64276812  0.03358438  1  0.101956  0.107636  0.000156  1.03526  0.0
H  H21  1  0.56838598  0.85723574  0.53358487  1  0.101951  0.107618  0.000156  1.035229  0.0
H  H22  1  0.60720144  0.47959859  0.11427825  1  0.113089  0.115547  -7.4e-05  0.977385  0.0
H  H23  1  0.39280359  0.02040272  0.61428258  1  0.113129  0.115599  -7.4e-05  0.977318  0.0
H  H24  1  0.39291271  0.52016363  0.88573497  1  0.11312  0.115804  0.0002  0.977652  0.0
H  H25  1  0.60708459  0.97983731  0.38573501  1  0.113105  0.115763  0.0002  0.977639  0.0
H  H26  1  0.81227225  0.63826716  0.11234516  1  0.111252  0.124861  -0.000176  1.016435  0.0
H  H27  1  0.18773170  0.86173291  0.61235123  1  0.111274  0.12486  -0.000177  1.016465  0.0
H  H28  1  0.18796889  0.36138089  0.88772339  1  0.111244  0.125079  0.00035  1.015605  0.0
H  H29  1  0.81202988  0.13861887  0.38772242  1  0.111228  0.125045  0.00035  1.015618  0.0
H  H30  1  0.49438781  0.08421853  0.79441266  1  0.113932  0.118389  0.000103  1.006457  0.0
H  H31  1  0.50560878  0.41578418  0.29441361  1  0.113907  0.118359  0.000103  1.006437  0.0
H  H32  1  0.50538801  0.91570645  0.20548334  1  0.114178  0.118963  -7e-06  1.006256  0.0
H  H33  1  0.49461165  0.58429391  0.70548239  1  0.114195  0.11898  -7e-06  1.006257  0.0
H  H34  1  0.67870435  0.14006017  0.08061076  1  0.119628  0.133708  -0.000158  1.002794  0.0
H  H35  1  0.32129758  0.35993456  0.58061088  1  0.119604  0.13365  -0.000158  1.002938  0.0
H  H36  1  0.32162599  0.85979521  0.91912216  1  0.119918  0.134418  -0.000122  1.001364  0.0
H  H37  1  0.67837497  0.64020260  0.41912204  1  0.119934  0.134438  -0.000122  1.001268  0.0
H  H38  1  0.25039351  0.18517288  0.02914626  1  0.115808  0.112643  0.000747  1.061427  0.0
H  H39  1  0.74961066  0.31482816  0.52914532  1  0.11582  0.112658  0.000747  1.061413  0.0
H  H40  1  0.74987640  0.81478697  0.97096889  1  0.116089  0.11262  0.000522  1.061782  0.0
H  H41  1  0.25012701  0.68521830  0.47096691  1  0.116095  0.112599  0.000522  1.061786  0.0
C  C42  1  0.99272210  0.76967881  0.88054193  1  0.239555  0.332145  -0.003423  3.957525  -0.002
C  C43  1  0.00728099  0.73032050  0.38054330  1  0.239593  0.332154  -0.003425  3.957455  -0.002
C  C44  1  0.00717531  0.23009555  0.11958486  1  0.239422  0.332384  0.013118  3.955563  0.013
C  C45  1  0.99282411  0.26990416  0.61958641  1  0.23944  0.332433  0.013124  3.955238  0.013
C  C46  1  0.00383107  0.69827145  0.96569686  1  -0.138181  -0.328121  -0.002035  3.928086  0.0
C  C47  1  0.99617100  0.80172894  0.46569985  1  -0.13825  -0.328242  -0.002035  3.928163  0.0
C  C48  1  0.99627631  0.30143732  0.03432801  1  -0.138012  -0.327897  0.001833  3.926216  0.0
C  C49  1  0.00372559  0.19856292  0.53432792  1  -0.138008  -0.327904  0.001832  3.92612  0.0
C  C50  1  0.88151489  0.60111839  0.96965711  1  0.130466  0.277306  -0.008032  3.921186  -0.007
C  C51  1  0.11848513  0.89888202  0.46966285  1  0.130496  0.277385  -0.008033  3.921214  -0.007
C  C52  1  0.11852365  0.39864707  0.03031388  1  0.130707  0.278138  0.008626  3.91914  0.008
C  C53  1  0.88147298  0.10135316  0.53031397  1  0.130675  0.278196  0.008628  3.919126  0.008
C  C54  1  0.75234482  0.44776147  0.89321195  1  0.053021  0.107768  -0.009574  3.939153  -0.007
C  C55  1  0.24765697  0.05224155  0.39321559  1  0.053066  0.107813  -0.009576  3.939207  -0.007
C  C56  1  0.24749959  0.55218133  0.10665493  1  0.053304  0.108274  0.009795  3.939514  0.008
C  C57  1  0.75249509  0.94781952  0.60665566  1  0.053303  0.108232  0.009797  3.939626  0.008
C  C58  1  0.65679034  0.42633749  0.97044931  1  -0.088168  -0.144818  0.001474  3.986234  0.001
C  C59  1  0.34321284  0.07366416  0.47045415  1  -0.08822  -0.144886  0.001475  3.986439  0.001
C  C60  1  0.34317889  0.57351867  0.02948892  1  -0.087952  -0.144693  -0.001383  3.987422  -0.001
C  C61  1  0.65681562  0.92648031  0.52949136  1  -0.087954  -0.144661  -0.001383  3.98755  -0.001
C  C62  1  0.67748805  0.49472296  0.05121719  1  -0.05784  0.003615  -0.007816  3.945062  -0.006
C  C63  1  0.32251550  0.00527896  0.55122191  1  -0.057897  0.003452  -0.007818  3.945079  -0.006
C  C64  1  0.32257568  0.50505465  0.94877346  1  -0.058253  0.002602  0.00816  3.947233  0.006
C  C65  1  0.67741806  0.99494650  0.44877893  1  -0.058295  0.002628  0.008162  3.947218  0.006
C  C66  1  0.79124954  0.58337733  0.05051859  1  -0.080734  -0.17694  0.002004  3.91929  0.001
C  C67  1  0.20875295  0.91662335  0.55052192  1  -0.080738  -0.176866  0.002004  3.919544  0.001
C  C68  1  0.20889328  0.41633874  0.94950627  1  -0.080571  -0.176828  -0.001887  3.91787  -0.001
C  C69  1  0.79110486  0.08366041  0.44950586  1  -0.080517  -0.176807  -0.001887  3.91787  -0.001
C  C70  1  0.35764628  0.13319377  0.90417728  1  -0.006093  -0.020405  -0.000759  3.937681  -0.001
C  C71  1  0.64235561  0.36680928  0.40417732  1  -0.006052  -0.020277  -0.00076  3.937506  -0.001
C  C72  1  0.64234782  0.86677658  0.09585050  1  -0.005504  -0.020151  -0.000152  3.937612  0.0
C  C73  1  0.35765556  0.63322586  0.59584827  1  -0.005521  -0.020283  -0.000152  3.937927  0.0
C  C74  1  0.48599675  0.10939917  0.86963941  1  -0.051985  -0.066307  0.006765  3.875168  0.006
C  C75  1  0.51399912  0.39060216  0.36964109  1  -0.051996  -0.066337  0.006766  3.875182  0.006
C  C76  1  0.51392372  0.89055012  0.13026315  1  -0.052053  -0.066995  0.001799  3.876098  0.001
C  C77  1  0.48607349  0.60944757  0.63026073  1  -0.052063  -0.066981  0.0018  3.876234  0.001
C  C78  1  0.60206823  0.11286546  0.93276279  1  -0.01072  -0.031762  0.001399  3.954069  0.001
C  C79  1  0.39792366  0.38713040  0.43276322  1  -0.01074  -0.031969  0.001399  3.954415  0.001
C  C80  1  0.39800482  0.88705874  0.06702401  1  -0.010961  -0.031484  -0.000535  3.954312  -0.001
C  C81  1  0.60199722  0.61294361  0.56702358  1  -0.010925  -0.03147  -0.000535  3.954276  -0.001
C  C82  1  0.59105311  0.14124409  0.03042979  1  -0.06534  -0.124969  0.006583  3.93699  0.005
C  C83  1  0.40894771  0.35875614  0.53043176  1  -0.065275  -0.12479  0.006583  3.936956  0.005
C  C84  1  0.40920864  0.85867688  0.96938321  1  -0.064836  -0.125172  0.000764  3.935555  0.001
C  C85  1  0.59079136  0.64131947  0.46938270  1  -0.064892  -0.125202  0.000765  3.935481  0.001
C  C86  1  0.46507218  0.16908256  0.06241226  1  0.073908  0.051178  -0.000552  3.96763  -0.001
C  C87  1  0.53492937  0.33091534  0.56241475  1  0.073877  0.051192  -0.000552  3.967689  -0.001
C  C88  1  0.53525321  0.83087324  0.93753253  1  0.074076  0.051896  -0.00059  3.967666  -0.001
C  C89  1  0.46475090  0.66912787  0.43753076  1  0.074073  0.051905  -0.00059  3.967691  -0.001
C  C90  1  0.34871267  0.16641883  0.00083159  1  -0.063742  -0.123272  0.005264  3.93354  0.004
C  C91  1  0.65128930  0.33357888  0.50082879  1  -0.063772  -0.123351  0.005265  3.933395  0.004
C  C92  1  0.65152576  0.83357260  0.99921439  1  -0.064158  -0.123677  0.001012  3.933934  0.001
C  C93  1  0.34847877  0.66643195  0.49921210  1  -0.064108  -0.123594  0.001013  3.933862  0.001
C  C94  1  0.22577642  0.11336198  0.84217722  1  0.215896  0.576446  0.018439  4.143628  0.014
C  C95  1  0.77422149  0.38664007  0.34217861  1  0.215927  0.576439  0.018442  4.143439  0.014
C  C96  1  0.77374390  0.88648362  0.15829684  1  0.216509  0.576813  0.006968  4.141307  0.008
C  C97  1  0.22625990  0.61351821  0.65829473  1  0.216474  0.576857  0.006971  4.141243  0.008
C  C98  1  0.73678108  0.07878283  0.90105991  1  0.226984  0.591567  0.021558  4.169527  0.019
C  C99  1  0.26321362  0.42121293  0.40106342  1  0.226929  0.591525  0.021554  4.169534  0.019
C  C100  1  0.26326014  0.92114380  0.09850047  1  0.226016  0.589748  -0.001272  4.173657  0.001
C  C101  1  0.73673989  0.57885379  0.59850424  1  0.22602  0.589802  -0.001271  4.173545  0.001
N  N102  1  0.97525148  0.87249330  0.88253315  1  -0.218026  -0.272655  0.038001  3.385711  0.022
N  N103  1  0.02474973  0.62750277  0.38253445  1  -0.218008  -0.272641  0.037999  3.385816  0.022
N  N104  1  0.02411324  0.12714738  0.11774143  1  -0.217358  -0.271286  0.02998  3.382103  0.011
N  N105  1  0.97588617  0.37285637  0.61774013  1  -0.217365  -0.271258  0.029976  3.382  0.011
N  N106  1  0.97007878  0.90169088  0.78813061  1  -0.101691  -0.065035  0.024404  3.50588  0.006
N  N107  1  0.02992110  0.59831137  0.28813698  1  -0.101676  -0.064945  0.024403  3.505917  0.006
N  N108  1  0.02907815  0.09807532  0.21218984  1  -0.102544  -0.067254  -0.018873  3.505627  0.001
N  N109  1  0.97092094  0.40192388  0.71219148  1  -0.102604  -0.067398  -0.018874  3.505726  0.001
N  N110  1  0.98220339  0.82080302  0.73071019  1  -0.066469  -0.039041  0.003598  3.194338  0.003
N  N111  1  0.01779485  0.67919905  0.23071007  1  -0.066558  -0.039203  0.003599  3.194182  0.003
N  N112  1  0.01733918  0.17913895  0.26950324  1  -0.066633  -0.038568  0.003539  3.193516  0.004
N  N113  1  0.98265838  0.32085638  0.76950336  1  -0.066596  -0.038536  0.00354  3.193675  0.004
N  N114  1  0.99684901  0.73705267  0.78740324  1  -0.230743  -0.259178  -0.025377  3.447571  -0.005
N  N115  1  0.00315252  0.76294796  0.28740463  1  -0.230676  -0.259038  -0.02538  3.447434  -0.005
N  N116  1  0.00311766  0.26287719  0.21267769  1  -0.230256  -0.258706  0.02775  3.446502  0.007
N  N117  1  0.99687973  0.23711553  0.71268139  1  -0.230285  -0.258736  0.02775  3.446447  0.007
N  N118  1  0.86297005  0.53312670  0.89244272  1  -0.321176  -0.295948  -0.035249  3.454287  -0.015
N  N119  1  0.13703234  0.96687346  0.39244646  1  -0.321279  -0.296089  -0.035253  3.454226  -0.015
N  N120  1  0.13685781  0.46681691  0.10740305  1  -0.322245  -0.297027  0.035271  3.455386  0.015
N  N121  1  0.86314086  0.03318438  0.60740586  1  -0.322244  -0.297115  0.035278  3.455329  0.015
N  N122  1  0.45098100  0.19455757  0.16597061  1  0.060038  0.52166  0.000672  4.177063  0.001
N  N123  1  0.54902079  0.30544553  0.66597240  1  0.060011  0.521555  0.000672  4.177636  0.001
N  N124  1  0.54941609  0.80532455  0.83399019  1  0.059265  0.52072  -0.000332  4.177228  0.0
N  N125  1  0.45058549  0.69467461  0.33399058  1  0.059226  0.520747  -0.000332  4.177275  0.0
O  O126  1  0.10448008  0.11172977  0.88674746  1  -0.311963  -0.57455  0.074589  2.380653  0.047
O  O127  1  0.89552288  0.38826999  0.38674575  1  -0.311983  -0.574518  0.074588  2.38061  0.047
O  O128  1  0.89557057  0.88853862  0.11402219  1  -0.312886  -0.574592  0.000805  2.383954  -0.006
O  O129  1  0.10443130  0.61146145  0.61401880  1  -0.31293  -0.574633  0.000805  2.383779  -0.006
O  O130  1  0.23030504  0.09558480  0.75248507  1  -0.295077  -0.524873  0.043035  2.145437  0.038
O  O131  1  0.76969847  0.40442181  0.25248646  1  -0.295138  -0.524893  0.043039  2.14532  0.038
O  O132  1  0.76854839  0.90371326  0.24795914  1  -0.294392  -0.523522  -0.017649  2.143753  -0.01
O  O133  1  0.23145191  0.59628805  0.74795848  1  -0.294338  -0.523467  -0.017649  2.143718  -0.01
O  O134  1  0.75798274  0.06561681  0.81093752  1  -0.304493  -0.52374  0.051217  2.310566  0.038
O  O135  1  0.24201022  0.43437947  0.31094314  1  -0.304491  -0.523571  0.051206  2.310397  0.038
O  O136  1  0.24189044  0.93459811  0.18857844  1  -0.303746  -0.522205  -0.039807  2.315019  -0.025
O  O137  1  0.75810966  0.56540058  0.68858083  1  -0.303736  -0.522191  -0.039803  2.314802  -0.025
O  O138  1  0.82066659  0.06420745  0.96941561  1  -0.308613  -0.560094  0.051256  2.423486  0.033
O  O139  1  0.17933045  0.43578286  0.46942168  1  -0.308549  -0.560054  0.051249  2.423373  0.033
O  O140  1  0.17940285  0.93549646  0.03006468  1  -0.308292  -0.559366  0.038164  2.426709  0.02
O  O141  1  0.82059438  0.56450091  0.53006735  1  -0.30828  -0.559392  0.038167  2.426778  0.02
O  O142  1  0.53792166  0.16824421  0.22383819  1  -0.126244  -0.326536  -0.000131  1.906048  0.0
O  O143  1  0.46207858  0.33175098  0.72383599  1  -0.126178  -0.326414  -0.000131  1.906244  0.0
O  O144  1  0.46254518  0.83164034  0.77608548  1  -0.126006  -0.326095  -6.3e-05  1.906693  0.0
O  O145  1  0.53745078  0.66835944  0.27608404  1  -0.126013  -0.326156  -6.3e-05  1.906761  0.0
O  O146  1  0.35122238  0.23922402  0.18990031  1  -0.123546  -0.327403  0.000351  1.948836  0.001
O  O147  1  0.64878804  0.26078321  0.68990467  1  -0.123536  -0.327403  0.000351  1.948998  0.001
O  O148  1  0.64910842  0.76055361  0.81013475  1  -0.122397  -0.326491  -0.000421  1.949389  0.0
O  O149  1  0.35089544  0.73944709  0.31013257  1  -0.122378  -0.326478  -0.00042  1.949315  0.0
