# generated using pymatgen
data_CdH22C28(NO)4
_symmetry_space_group_name_H-M   'P 1'
_cell_length_a   11.01534395
_cell_length_b   13.85567215
_cell_length_c   20.27784294
_cell_angle_alpha   113.37342162
_cell_angle_beta   90.06023193
_cell_angle_gamma   113.44310354
_symmetry_Int_Tables_number   1
_chemical_formula_structural   CdH22C28(NO)4
_chemical_formula_sum   'Cd4 H88 C112 N16 O16'
_cell_volume   2559.62615678
_cell_formula_units_Z   4
loop_
 _symmetry_equiv_pos_site_id
 _symmetry_equiv_pos_as_xyz
  1  'x, y, z'
loop_
 _atom_site_type_symbol
 _atom_site_label
 _atom_site_symmetry_multiplicity
 _atom_site_fract_x
 _atom_site_fract_y
 _atom_site_fract_z
 _atom_site_occupancy
 _atom_site_pbe_bader_charge
 _atom_site_pbe_bader_spin_density
 _atom_site_pbe_cm5_charge
 _atom_site_pbe_ddec_charge
 _atom_site_pbe_ddec_spin_density
 _atom_site_pbe_ddec_sum_bond_order
 _atom_site_pbe_magmom
Cd  Cd0  1  0.00706735  0.46630355  0.87598944  1  1.284884  0  0.780501  0.914578  0  2.18472  0
Cd  Cd1  1  0.54078604  0.53367257  0.62404158  1  1.285582  0  0.780601  0.914073  0  2.185674  0
Cd  Cd2  1  0.99292486  0.53369388  0.12400451  1  1.284938  0  0.780518  0.914569  0  2.184731  0
Cd  Cd3  1  0.45923878  0.46631199  0.37596207  1  1.285245  0  0.780575  0.914131  0  2.185716  0
H  H4  1  0.09380751  0.70802580  0.84453118  1  0.155821  0  0.136536  0.110782  0  1.009612  0
H  H5  1  0.38576829  0.29203359  0.65552473  1  0.153438  0  0.136707  0.110995  0  1.009334  0
H  H6  1  0.90617716  0.29197109  0.15545621  1  0.156264  0  0.136589  0.110766  0  1.009657  0
H  H7  1  0.61424063  0.70795550  0.34447162  1  0.153513  0  0.136706  0.11085  0  1.009472  0
H  H8  1  0.73052822  0.34605785  0.08708471  1  0.145253  0  0.107087  0.111287  0  1.041697  0
H  H9  1  0.38522594  0.65408195  0.41257639  1  0.09487  0  0.107538  0.11195  0  1.040769  0
H  H10  1  0.26945300  0.65395389  0.91291718  1  0.145344  0  0.107145  0.11122  0  1.041722  0
H  H11  1  0.61479818  0.34589759  0.58742849  1  0.095309  0  0.107584  0.112086  0  1.040762  0
H  H12  1  0.58041340  0.17975747  0.10630884  1  0.047577  0  0.105506  0.109662  0  1.007674  0
H  H13  1  0.40100773  0.82040485  0.39352153  1  0.08387  0  0.105055  0.10898  0  1.007254  0
H  H14  1  0.41955785  0.82025430  0.89369355  1  0.050197  0  0.105527  0.109601  0  1.007624  0
H  H15  1  0.59901756  0.17957883  0.60649227  1  0.083955  0  0.105043  0.109  0  1.007096  0
H  H16  1  0.54590727  0.95163260  0.87989748  1  0.045466  0  0.101129  0.10097  0  1.019  0
H  H17  1  0.59366819  0.04810928  0.62026371  1  0.048138  0  0.101551  0.101455  0  1.019077  0
H  H18  1  0.45410238  0.04837063  0.12011517  1  0.045577  0  0.101086  0.101  0  1.018965  0
H  H19  1  0.40630801  0.95185611  0.37975645  1  0.048272  0  0.101493  0.101509  0  1.019086  0
H  H20  1  0.96521410  0.22416102  0.89082918  1  0.167773  0  0.131669  0.095587  0  1.043759  0
H  H21  1  0.74126785  0.77584189  0.60934054  1  0.165143  0  0.131441  0.095514  0  1.043012  0
H  H22  1  0.03477276  0.77583663  0.10915691  1  0.167148  0  0.131642  0.095628  0  1.0438  0
H  H23  1  0.25874292  0.22416359  0.39065785  1  0.164977  0  0.131457  0.095519  0  1.043008  0
H  H24  1  0.22750525  0.95161140  0.92649333  1  0.08657  0  0.105796  0.119752  0  1.01909  0
H  H25  1  0.27593392  0.04877484  0.57376759  1  0.083644  0  0.105792  0.11997  0  1.019263  0
H  H26  1  0.77248257  0.04838813  0.07350557  1  0.086445  0  0.105752  0.119593  0  1.019207  0
H  H27  1  0.72407174  0.95122952  0.42622756  1  0.083806  0  0.105741  0.119918  0  1.019413  0
H  H28  1  0.87814252  0.01664867  0.82172743  1  0.090681  0  0.107376  0.115033  0  1.006531  0
H  H29  1  0.86163881  0.98309743  0.67836658  1  0.069416  0  0.107455  0.114516  0  1.00711  0
H  H30  1  0.12185854  0.98335739  0.17826764  1  0.09071  0  0.107332  0.114999  0  1.006313  0
H  H31  1  0.13835684  0.01689963  0.32162283  1  0.069354  0  0.107498  0.114522  0  1.007208  0
H  H32  1  0.83985684  0.61981459  0.98674803  1  0.127565  0  0.119218  0.123456  0  1.01511  0
H  H33  1  0.21932905  0.37987358  0.51315759  1  0.126804  0  0.119452  0.124144  0  1.014477  0
H  H34  1  0.16012584  0.38017288  0.01323903  1  0.127233  0  0.11923  0.123464  0  1.01533  0
H  H35  1  0.78070315  0.62015112  0.48685637  1  0.125269  0  0.119436  0.12403  0  1.014502  0
H  H36  1  0.69524556  0.12298555  0.86151023  1  0.086631  0  0.100735  0.102397  0  1.00827  0
H  H37  1  0.57222976  0.87672961  0.63844076  1  0.084905  0  0.100709  0.102358  0  1.008994  0
H  H38  1  0.30475855  0.87701386  0.13849753  1  0.086406  0  0.100676  0.102296  0  1.008284  0
H  H39  1  0.42774232  0.12323117  0.36157532  1  0.085465  0  0.100808  0.102491  0  1.009194  0
H  H40  1  0.28669390  0.18963753  0.78402395  1  0.111294  0  0.123108  0.122975  0  1.006179  0
H  H41  1  0.09768661  0.81072451  0.71638696  1  0.129472  0  0.123246  0.12312  0  1.006488  0
H  H42  1  0.71330923  0.81036359  0.21597336  1  0.111336  0  0.123115  0.122941  0  1.00624  0
H  H43  1  0.90232712  0.18928508  0.28360947  1  0.129788  0  0.123216  0.12322  0  1.006334  0
H  H44  1  0.74850467  0.73898300  0.83494887  1  0.081148  0  0.097821  0.141522  0  1.021049  0
H  H45  1  0.00917660  0.26064981  0.66484137  1  0.083705  0  0.097954  0.141648  0  1.021079  0
H  H46  1  0.25148778  0.26101854  0.16504311  1  0.081118  0  0.097807  0.141481  0  1.021058  0
H  H47  1  0.99081933  0.73934960  0.33515602  1  0.083742  0  0.097923  0.141545  0  1.02115  0
H  H48  1  0.70864164  0.83059007  0.80757307  1  0.045678  0  0.09737  0.144311  0  0.981935  0
H  H49  1  0.87764540  0.16892962  0.69209688  1  0.057555  0  0.097258  0.14404  0  0.982356  0
H  H50  1  0.29135477  0.16941940  0.19242185  1  0.045886  0  0.097344  0.144246  0  0.982093  0
H  H51  1  0.12235099  0.83106527  0.30789744  1  0.057688  0  0.097222  0.143971  0  0.982438  0
H  H52  1  0.72328790  0.85561790  0.90071455  1  0.047662  0  0.092164  0.130072  0  0.997424  0
H  H53  1  0.86744687  0.14360301  0.59891471  1  0.070213  0  0.092268  0.130118  0  0.997077  0
H  H54  1  0.27671093  0.14438734  0.09928081  1  0.047514  0  0.09221  0.130129  0  0.99751  0
H  H55  1  0.13254847  0.85639886  0.40108131  1  0.070294  0  0.092228  0.130012  0  0.9971  0
H  H56  1  0.25631705  0.38061649  0.78554869  1  0.120383  0  0.121653  0.120986  0  1.005125  0
H  H57  1  0.87620523  0.61952384  0.71472568  1  0.127954  0  0.121537  0.120617  0  1.005499  0
H  H58  1  0.74368325  0.61938078  0.21444324  1  0.120497  0  0.121638  0.120987  0  1.005082  0
H  H59  1  0.12382308  0.38048224  0.28526941  1  0.128007  0  0.121494  0.120551  0  1.005548  0
H  H60  1  0.82291095  0.36844498  0.63832928  1  0.091382  0  0.102524  0.110851  0  1.020235  0
H  H61  1  0.45374831  0.63143608  0.86163143  1  0.097498  0  0.10266  0.111358  0  1.019744  0
H  H62  1  0.17709596  0.63156549  0.36166736  1  0.091119  0  0.102601  0.110915  0  1.020459  0
H  H63  1  0.54624035  0.36856693  0.13837869  1  0.097774  0  0.102699  0.111412  0  1.019841  0
H  H64  1  0.24153859  0.60500038  0.68910955  1  0.122294  0  0.103416  0.114249  0  0.996623  0
H  H65  1  0.63571229  0.39510566  0.81092408  1  0.105289  0  0.103539  0.114271  0  0.995872  0
H  H66  1  0.75845754  0.39504661  0.31089503  1  0.121231  0  0.103354  0.114199  0  0.996542  0
H  H67  1  0.36428288  0.60490312  0.18908350  1  0.105051  0  0.103535  0.11426  0  0.995696  0
H  H68  1  0.38758432  0.12920765  0.85428428  1  0.015867  0  0.093645  0.132988  0  0.987301  0
H  H69  1  0.25878481  0.87106106  0.64597279  1  0.039683  0  0.093749  0.132816  0  0.987822  0
H  H70  1  0.61241394  0.87079824  0.14571914  1  0.01569  0  0.093649  0.133024  0  0.987252  0
H  H71  1  0.74122228  0.12895521  0.35403219  1  0.039601  0  0.093714  0.132815  0  0.987871  0
H  H72  1  0.39511896  0.13818543  0.94364456  1  0.040909  0  0.091437  0.135029  0  1.023395  0
H  H73  1  0.25713116  0.86240638  0.55668095  1  0.057475  0  0.090957  0.134138  0  1.022755  0
H  H74  1  0.60487693  0.86182478  0.05635943  1  0.040798  0  0.091434  0.13501  0  1.023419  0
H  H75  1  0.74288065  0.13760118  0.44332189  1  0.057394  0  0.090961  0.134127  0  1.022707  0
H  H76  1  0.35273459  0.23603346  0.92359727  1  0.091382  0  0.095291  0.13606  0  1.024429  0
H  H77  1  0.11683064  0.76437780  0.57658078  1  0.056889  0  0.094839  0.13491  0  1.024517  0
H  H78  1  0.64725543  0.76397048  0.07640320  1  0.091409  0  0.095247  0.135999  0  1.024414  0
H  H79  1  0.88318214  0.23562987  0.42342357  1  0.057007  0  0.094828  0.134852  0  1.024551  0
H  H80  1  0.79907497  0.37688717  0.52010023  1  0.048457  0  0.093421  0.089676  0  1.073799  0
H  H81  1  0.42208998  0.62309379  0.97993273  1  0.060903  0  0.093448  0.089453  0  1.074319  0
H  H82  1  0.20093115  0.62311811  0.47989564  1  0.048382  0  0.093408  0.089595  0  1.07383  0
H  H83  1  0.57788843  0.37689780  0.02007361  1  0.060822  0  0.093479  0.089465  0  1.074311  0
H  H84  1  0.84986214  0.82539658  0.98733120  1  0.117624  0  0.118499  0.119902  0  1.037505  0
H  H85  1  0.02379845  0.17417637  0.51261390  1  0.147114  0  0.118432  0.12012  0  1.037285  0
H  H86  1  0.15012932  0.17459935  0.01266534  1  0.117539  0  0.118509  0.119945  0  1.037532  0
H  H87  1  0.97621346  0.82584410  0.48739012  1  0.146972  0  0.118384  0.120104  0  1.037266  0
H  H88  1  0.22067292  0.61569478  0.57173502  1  0.054107  0  0.09619  0.097642  0  1.045554  0
H  H89  1  0.60447855  0.38432729  0.92828836  1  0.043137  0  0.096343  0.097267  0  1.045688  0
H  H90  1  0.77931434  0.38434900  0.42827223  1  0.055169  0  0.096219  0.097742  0  1.045375  0
H  H91  1  0.39550920  0.61567029  0.07171796  1  0.043379  0  0.096357  0.097246  0  1.045633  0
C  C92  1  0.80822121  0.35048416  0.95924072  1  1.578668  0  0.199905  0.566243  0  4.236559  0
C  C93  1  0.45842279  0.64951860  0.54053255  1  1.587255  0  0.200192  0.565739  0  4.233909  0
C  C94  1  0.19177390  0.64951907  0.04076155  1  1.578654  0  0.199922  0.566318  0  4.236582  0
C  C95  1  0.54158120  0.35044612  0.45946870  1  1.587742  0  0.199957  0.565199  0  4.234903  0
C  C96  1  0.00758101  0.49705499  0.53539298  1  -0.096003  0  -0.009433  0.062297  0  3.985131  0
C  C97  1  0.51026621  0.50292154  0.96460113  1  -0.056182  0  -0.009108  0.062991  0  3.982965  0
C  C98  1  0.99242236  0.50294842  0.46460095  1  -0.06029  0  -0.009374  0.06235  0  3.985073  0
C  C99  1  0.48972479  0.49707708  0.03540742  1  -0.026115  0  -0.009226  0.062764  0  3.982885  0
C  C100  1  0.54733239  0.05058687  0.99442816  1  9e-06  0  -0.010963  0.054112  0  4.021817  0
C  C101  1  0.49679911  0.94939170  0.50554060  1  -0.030133  0  -0.010882  0.054451  0  4.019359  0
C  C102  1  0.45265776  0.94941914  0.00557676  1  -0.031465  0  -0.011067  0.05415  0  4.02187  0
C  C103  1  0.50323361  0.05058505  0.49447199  1  -0.060908  0  -0.010734  0.054623  0  4.018756  0
C  C104  1  0.09029390  0.07775397  0.85582256  1  0.287897  0  0.090806  0.09962  0  4.008579  0
C  C105  1  0.01289707  0.92242521  0.64447543  1  0.279806  0  0.090181  0.099167  0  4.009272  0
C  C106  1  0.90970333  0.92224624  0.14417404  1  0.287487  0  0.090723  0.099437  0  4.00865  0
C  C107  1  0.98710782  0.07757579  0.35552038  1  0.279459  0  0.090242  0.099355  0  4.009203  0
C  C108  1  0.72188674  0.24644071  0.97230217  1  -0.01019  0  -0.023057  -0.04783  0  3.974636  0
C  C109  1  0.47614809  0.75350337  0.52745377  1  -0.013289  0  -0.023273  -0.047766  0  3.973795  0
C  C110  1  0.27811300  0.75356629  0.02770449  1  -0.009663  0  -0.023165  -0.047898  0  3.974855  0
C  C111  1  0.52387150  0.24646529  0.47255387  1  -0.012825  0  -0.023264  -0.047451  0  3.97437  0
C  C112  1  0.02635823  0.71121736  0.88345955  1  0.978806  0  0.143026  0.098603  0  3.901579  0
C  C113  1  0.31498816  0.28876153  0.61654722  1  0.960395  0  0.141771  0.097031  0  3.901168  0
C  C114  1  0.97362558  0.28877601  0.11652648  1  0.978945  0  0.142975  0.098462  0  3.901968  0
C  C115  1  0.68502518  0.71123096  0.38344897  1  0.960169  0  0.141891  0.097423  0  3.900946  0
C  C116  1  0.68911803  0.25992164  0.04110780  1  -0.010166  0  -0.081089  -0.087225  0  3.994055  0
C  C117  1  0.42982444  0.74014546  0.45864161  1  0.034594  0  -0.081501  -0.088225  0  3.994893  0
C  C118  1  0.31087111  0.74008777  0.95889697  1  -0.010185  0  -0.081181  -0.08719  0  3.994102  0
C  C119  1  0.57020439  0.25983080  0.54136494  1  -0.034812  0  -0.081675  -0.088702  0  3.995465  0
C  C120  1  0.03982494  0.48262120  0.74409030  1  1.550735  0  0.180478  0.539642  0  4.263603  0
C  C121  1  0.55635759  0.51755666  0.75597866  1  1.543167  0  0.181371  0.540966  0  4.263546  0
C  C122  1  0.96017916  0.51739092  0.25590576  1  1.550518  0  0.180453  0.539408  0  4.263996  0
C  C123  1  0.44362829  0.48244623  0.24402995  1  1.543495  0  0.181417  0.540982  0  4.263715  0
C  C124  1  0.60349894  0.16418032  0.05185019  1  -0.093933  0  -0.091658  -0.140828  0  3.971074  0
C  C125  1  0.43970754  0.83589061  0.44800271  1  -0.107042  0  -0.090949  -0.139589  0  3.969962  0
C  C126  1  0.39648387  0.83583095  0.94815652  1  -0.097534  0  -0.091616  -0.140725  0  3.971133  0
C  C127  1  0.56032495  0.16409113  0.55200814  1  -0.037427  0  -0.090882  -0.139464  0  3.969784  0
C  C128  1  0.91306390  0.90877713  0.86415460  1  0.033459  0  -0.002697  0.113414  0  3.988414  0
C  C129  1  0.00430829  0.09113993  0.63599473  1  0.030415  0  -0.003084  0.112285  0  3.989268  0
C  C130  1  0.08692915  0.09121657  0.13583547  1  0.033914  0  -0.002624  0.113535  0  3.988489  0
C  C131  1  0.99568852  0.90885219  0.36399693  1  0.030314  0  -0.003019  0.112436  0  3.98902  0
C  C132  1  0.01559394  0.89198153  0.89272672  1  0.303776  0  0.089172  0.095818  0  4.005196  0
C  C133  1  0.12360168  0.10808964  0.60745278  1  0.292823  0  0.089954  0.096902  0  4.004809  0
C  C134  1  0.98439945  0.10801466  0.10726247  1  0.303943  0  0.089203  0.095711  0  4.005046  0
C  C135  1  0.87639766  0.89191116  0.39254051  1  0.292662  0  0.089976  0.096874  0  4.00481  0
C  C136  1  0.58476436  0.03762519  0.92593909  1  -0.071607  0  -0.095235  -0.140457  0  3.991567  0
C  C137  1  0.54694341  0.96220670  0.57409665  1  -0.078625  0  -0.095777  -0.141406  0  3.991842  0
C  C138  1  0.41523415  0.96237936  0.07406894  1  -0.071886  0  -0.095209  -0.140659  0  3.991574  0
C  C139  1  0.45307186  0.03776601  0.42591890  1  -0.078184  0  -0.095556  -0.14126  0  3.991728  0
C  C140  1  0.04689903  0.24107460  0.86113533  1  0.973203  0  0.139874  0.091504  0  3.920591  0
C  C141  1  0.80615671  0.75887378  0.63898983  1  0.951562  0  0.139117  0.090052  0  3.920572  0
C  C142  1  0.95309429  0.75892325  0.13885328  1  0.973714  0  0.139879  0.091567  0  3.92066  0
C  C143  1  0.19385109  0.24112760  0.36101051  1  0.950935  0  0.139074  0.090122  0  3.92031  0
C  C144  1  0.03283246  0.48599982  0.67129279  1  -0.006624  0  -0.024821  -0.042931  0  3.997898  0
C  C145  1  0.54594586  0.51393985  0.82869499  1  -0.085911  0  -0.024797  -0.042808  0  3.997671  0
C  C146  1  0.96716908  0.51400720  0.32870351  1  -0.006825  0  -0.02479  -0.042939  0  3.998111  0
C  C147  1  0.45404371  0.48606316  0.17131513  1  -0.085891  0  -0.024968  -0.042989  0  3.997514  0
C  C148  1  0.15158991  0.96622391  0.90236257  1  0.024218  0  -0.091427  -0.219322  0  3.968352  0
C  C149  1  0.18553229  0.03408456  0.59793637  1  -0.044951  0  -0.091975  -0.220748  0  3.970383  0
C  C150  1  0.84839566  0.03376932  0.09763232  1  0.024513  0  -0.091367  -0.219041  0  3.96838  0
C  C151  1  0.81446767  0.96591204  0.40205787  1  -0.044771  0  -0.091957  -0.220584  0  3.970277  0
C  C152  1  0.19288515  0.06146650  0.88492822  1  -0.011504  0  -0.010509  0.099425  0  3.981824  0
C  C153  1  0.13175937  0.93889344  0.61541370  1  0.049708  0  -0.010245  0.099497  0  3.982638  0
C  C154  1  0.80711252  0.93853458  0.11506859  1  -0.012015  0  -0.010528  0.0994  0  3.982123  0
C  C155  1  0.86824709  0.06111433  0.38458130  1  0.049449  0  -0.010276  0.09926  0  3.982567  0
C  C156  1  0.95451098  0.00241430  0.84565313  1  -0.048212  0  -0.090929  -0.219872  0  3.985092  0
C  C157  1  0.95232060  0.99757394  0.65456127  1  0.00795  0  -0.090918  -0.218668  0  3.986185  0
C  C158  1  0.04548547  0.99758981  0.15433899  1  -0.048486  0  -0.091014  -0.219986  0  3.984971  0
C  C159  1  0.04767719  0.00242740  0.34542820  1  0.008122  0  -0.09102  -0.218879  0  3.986297  0
C  C160  1  0.89411940  0.66973644  0.95776364  1  0.414082  0  0.000796  -0.024159  0  3.996163  0
C  C161  1  0.22382529  0.33003482  0.54218212  1  0.413195  0  0.000769  -0.025229  0  3.994609  0
C  C162  1  0.10587019  0.33026303  0.04222389  1  0.414424  0  0.000802  -0.024167  0  3.995718  0
C  C163  1  0.77619773  0.66997520  0.45781936  1  0.414664  0  0.000911  -0.024799  0  3.994897  0
C  C164  1  0.66967464  0.13353589  0.91509822  1  -0.089583  0  -0.089342  -0.091715  0  3.997896  0
C  C165  1  0.53624930  0.86630104  0.58482440  1  -0.074443  0  -0.088766  -0.090954  0  3.997741  0
C  C166  1  0.33032608  0.86646585  0.08490666  1  -0.089509  0  -0.089143  -0.091427  0  3.997875  0
C  C167  1  0.46375644  0.13366715  0.41518806  1  -0.07608  0  -0.088986  -0.091359  0  3.998404  0
C  C168  1  0.21732409  0.22588693  0.80659428  1  0.266015  0  0.00045  -0.104008  0  3.917735  0
C  C169  1  0.99195175  0.77441407  0.69380869  1  0.24648  0  9.4e-05  -0.104709  0  3.916174  0
C  C170  1  0.78267672  0.77411499  0.19340224  1  0.265585  0  0.000462  -0.103822  0  3.917504  0
C  C171  1  0.00806922  0.22559910  0.30618961  1  0.246252  0  7.2e-05  -0.105055  0  3.916461  0
C  C172  1  0.76624728  0.82952799  0.85118354  1  -0.055594  0  -0.239809  -0.412203  0  3.960527  0
C  C173  1  0.93648877  0.17003056  0.64862408  1  -0.102312  0  -0.239749  -0.411848  0  3.960385  0
C  C174  1  0.23374648  0.17047616  0.14880908  1  -0.055563  0  -0.239804  -0.412136  0  3.960636  0
C  C175  1  0.06350930  0.82996953  0.35137101  1  -0.102527  0  -0.239619  -0.411506  0  3.960344  0
C  C176  1  0.20015072  0.31900338  0.80695495  1  0.454173  0  0.006254  -0.012911  0  3.973823  0
C  C177  1  0.88160478  0.68116351  0.69334894  1  0.446012  0  0.006621  -0.012248  0  3.972983  0
C  C178  1  0.79984596  0.68099210  0.19303605  1  0.454867  0  0.0063  -0.01298  0  3.973491  0
C  C179  1  0.11840998  0.31884090  0.30664671  1  0.445717  0  0.006851  -0.01184  0  3.972971  0
C  C180  1  0.90952236  0.42094152  0.62211983  1  -0.125122  0  -0.089249  -0.098141  0  3.991515  0
C  C181  1  0.48786461  0.57894622  0.87785593  1  -0.016518  0  -0.089362  -0.098082  0  3.990236  0
C  C182  1  0.09049152  0.57906293  0.37787633  1  -0.124621  0  -0.08943  -0.098395  0  3.991821  0
C  C183  1  0.51212185  0.42105239  0.12215262  1  0.00919  0  -0.089334  -0.098121  0  3.990249  0
C  C184  1  0.14443648  0.55584604  0.65178633  1  -0.010623  0  -0.086531  -0.094658  0  3.985251  0
C  C185  1  0.58781445  0.44415046  0.84821029  1  -0.026248  0  -0.08683  -0.095437  0  3.984524  0
C  C186  1  0.85557150  0.44417928  0.34821444  1  -0.0093  0  -0.086508  -0.09452  0  3.9856  0
C  C187  1  0.41217854  0.55585576  0.15179716  1  -0.02586  0  -0.0868  -0.095419  0  3.984227  0
C  C188  1  0.33927958  0.14548517  0.90246907  1  -0.063154  0  -0.241887  -0.416302  0  3.954922  0
C  C189  1  0.19408080  0.85493776  0.59781261  1  -0.05411  0  -0.240719  -0.413576  0  3.954414  0
C  C190  1  0.66071499  0.85452059  0.09753283  1  -0.062897  0  -0.241852  -0.416278  0  3.954873  0
C  C191  1  0.80592822  0.14506967  0.40218872  1  -0.054122  0  -0.240654  -0.413453  0  3.95449  0
C  C192  1  0.89727625  0.42655060  0.55581102  1  0.011775  0  -0.096131  -0.131972  0  3.988748  0
C  C193  1  0.47036841  0.57337675  0.94417800  1  -0.04342  0  -0.095809  -0.132411  0  3.988041  0
C  C194  1  0.10272637  0.57344588  0.44418170  1  0.012113  0  -0.096022  -0.131698  0  3.98867  0
C  C195  1  0.52961903  0.42662020  0.05583113  1  -0.06928  0  -0.095916  -0.132471  0  3.988088  0
C  C196  1  0.89722557  0.77002441  0.95819196  1  0.323879  0  -0.001784  -0.10047  0  3.90509  0
C  C197  1  0.12662433  0.22974018  0.54180782  1  0.279856  0  -0.002313  -0.101765  0  3.905932  0
C  C198  1  0.10276582  0.22996414  0.04179784  1  0.323868  0  -0.00175  -0.100524  0  3.904482  0
C  C199  1  0.87338776  0.77027157  0.45819407  1  0.279746  0  -0.002346  -0.101994  0  3.906125  0
C  C200  1  0.13153763  0.56115812  0.58512671  1  -0.062419  0  -0.094573  -0.136179  0  3.981644  0
C  C201  1  0.56985062  0.43880882  0.91485752  1  -0.052207  0  -0.094587  -0.135317  0  3.978675  0
C  C202  1  0.86845673  0.43886176  0.41487025  1  -0.06332  0  -0.094628  -0.136404  0  3.981754  0
C  C203  1  0.43014258  0.56119419  0.08515260  1  -0.052733  0  -0.094563  -0.135172  0  3.978597  0
N  N204  1  0.09430145  0.32747956  0.84144841  1  -1.193532  0  -0.343742  -0.267886  0  3.471192  0
N  N205  1  0.76715673  0.67250790  0.65870657  1  -1.199872  0  -0.343554  -0.267256  0  3.471749  0
N  N206  1  0.90569104  0.67251481  0.15853935  1  -1.19378  0  -0.343769  -0.267942  0  3.471029  0
N  N207  1  0.23285946  0.32749572  0.34128988  1  -1.19919  0  -0.343628  -0.267521  0  3.471715  0
N  N208  1  0.98196734  0.79597465  0.91088258  1  -1.274904  0  -0.227557  0.013082  0  3.79421  0
N  N209  1  0.18570240  0.20395400  0.58916869  1  -1.26807  0  -0.227291  0.014262  0  3.793937  0
N  N210  1  0.01801481  0.20401900  0.08910698  1  -1.275149  0  -0.227621  0.013283  0  3.794394  0
N  N211  1  0.81430435  0.79604709  0.41082813  1  -1.267829  0  -0.227398  0.014103  0  3.793706  0
N  N212  1  0.97460515  0.63427213  0.91095923  1  -1.22131  0  -0.347193  -0.284904  0  3.514867  0
N  N213  1  0.34002890  0.36563169  0.58900049  1  -1.196308  0  -0.346436  -0.283376  0  3.512603  0
N  N214  1  0.02537789  0.36571970  0.08902890  1  -1.22169  0  -0.347193  -0.284843  0  3.514999  0
N  N215  1  0.65999039  0.63436363  0.41099887  1  -1.196034  0  -0.346523  -0.28367  0  3.512965  0
N  N216  1  0.11892675  0.17636223  0.84136201  1  -1.282685  0  -0.230847  0.004338  0  3.799983  0
N  N217  1  0.94298097  0.82376480  0.65889566  1  -1.253167  0  -0.230014  0.005652  0  3.798289  0
N  N218  1  0.88107350  0.82364039  0.15863271  1  -1.282283  0  -0.230749  0.004354  0  3.80019  0
N  N219  1  0.05702615  0.17624064  0.34110222  1  -1.252493  0  -0.230095  0.005709  0  3.798174  0
O  O220  1  0.85105773  0.45212008  0.01123377  1  -1.191473  0  -0.333174  -0.574897  0  2.304667  0
O  O221  1  0.39904108  0.54780200  0.48860971  1  -1.19295  0  -0.333624  -0.575007  0  2.30206  0
O  O222  1  0.14892459  0.54788299  0.98876648  1  -1.191438  0  -0.333191  -0.575028  0  2.304796  0
O  O223  1  0.60096765  0.45216674  0.51138858  1  -1.193587  0  -0.333613  -0.574738  0  2.30222  0
O  O224  1  0.82951705  0.32847356  0.89400463  1  -1.160498  0  -0.332195  -0.549413  0  2.244323  0
O  O225  1  0.50188282  0.67154694  0.60578469  1  -1.162584  0  -0.332063  -0.548922  0  2.245328  0
O  O226  1  0.17048553  0.67152643  0.10599982  1  -1.160609  0  -0.332195  -0.549433  0  2.244359  0
O  O227  1  0.49810329  0.32841287  0.39421930  1  -1.16208  0  -0.331767  -0.548604  0  2.245526  0
O  O228  1  0.14880190  0.54742142  0.79130398  1  -1.18747  0  -0.343863  -0.578817  0  2.133721  0
O  O229  1  0.60082210  0.45305206  0.70889544  1  -1.187356  0  -0.344691  -0.580133  0  2.133548  0
O  O230  1  0.85119437  0.45260045  0.20869644  1  -1.187493  0  -0.34381  -0.57868  0  2.133997  0
O  O231  1  0.39917238  0.54695170  0.29111339  1  -1.187024  0  -0.344641  -0.580046  0  2.13384  0
O  O232  1  0.93142278  0.41488496  0.75566231  1  -1.162475  0  -0.343748  -0.561113  0  2.201484  0
O  O233  1  0.51566401  0.58517710  0.74431202  1  -1.150075  0  -0.34371  -0.561012  0  2.201661  0
O  O234  1  0.06858197  0.58511758  0.24433141  1  -1.16255  0  -0.343757  -0.561017  0  2.201532  0
O  O235  1  0.48432098  0.41482040  0.25569329  1  -1.150941  0  -0.343692  -0.56097  0  2.201624  0
