# generated using pymatgen
data_Hg2H31C19N3(Cl2O)2
_symmetry_space_group_name_H-M   'P 1'
_cell_length_a   7.16551622
_cell_length_b   11.14295006
_cell_length_c   17.53160517
_cell_angle_alpha   80.49345858
_cell_angle_beta   84.30260825
_cell_angle_gamma   73.11675082
_symmetry_Int_Tables_number   1
_chemical_formula_structural   Hg2H31C19N3(Cl2O)2
_chemical_formula_sum   'Hg4 H62 C38 N6 Cl8 O4'
_cell_volume   1319.12778497
_cell_formula_units_Z   2
loop_
 _symmetry_equiv_pos_site_id
 _symmetry_equiv_pos_as_xyz
  1  'x, y, z'
loop_
 _atom_site_type_symbol
 _atom_site_label
 _atom_site_symmetry_multiplicity
 _atom_site_fract_x
 _atom_site_fract_y
 _atom_site_fract_z
 _atom_site_occupancy
 _atom_site_hle17_bader_spin_density
 _atom_site_hle17_ddec_charge
 _atom_site_hle17_ddec_spin_density
 _atom_site_hle17_ddec_sum_bond_order
 _atom_site_hle17_magmom
 _atom_site_hse06_10hf_bader_spin_density
 _atom_site_hse06_10hf_ddec_charge
 _atom_site_hse06_10hf_ddec_spin_density
 _atom_site_hse06_10hf_ddec_sum_bond_order
 _atom_site_hse06_10hf_magmom
 _atom_site_hse06_bader_spin_density
 _atom_site_hse06_ddec_charge
 _atom_site_hse06_ddec_spin_density
 _atom_site_hse06_ddec_sum_bond_order
 _atom_site_hse06_magmom
 _atom_site_pbe_bader_spin_density
 _atom_site_pbe_cm5_charge
 _atom_site_pbe_ddec_charge
 _atom_site_pbe_ddec_spin_density
 _atom_site_pbe_ddec_sum_bond_order
 _atom_site_pbe_magmom
Hg  Hg0  1  0.08123438  0.38435692  0.59690407  1  0  0.787552  0  2.061696  0  0  0.637505  0  2.548439  0  0  0.685852  0  2.513776  0  0  0.534508  0.604458  0  2.571447  0
Hg  Hg1  1  0.91876595  0.61564013  0.40309604  1  0  0.787571  0  2.061646  0  0  0.637511  0  2.548389  0  0  0.68586  0  2.513725  0  0  0.534496  0.604463  0  2.571397  0
Hg  Hg2  1  0.78391787  0.90527286  0.50330738  1  0  0.758945  0  2.103008  0  0  0.628164  0  2.597213  0  0  0.674231  0  2.559641  0  0  0.461348  0.596526  0  2.6225  0
Hg  Hg3  1  0.21608706  0.09472323  0.49669093  1  0  0.758935  0  2.102972  0  0  0.628157  0  2.597166  0  0  0.674223  0  2.559597  0  0  0.461342  0.596506  0  2.622487  0
H  H4  1  0.67443077  0.56863517  0.55650765  1  0  0.079052  0  0.982092  0  0  0.083365  0  1.056595  0  0  0.085361  0  1.054271  0  0  0.099644  0.081851  0  1.058329  0
H  H5  1  0.32556556  0.43135809  0.44349246  1  0  0.079017  0  0.981995  0  0  0.083377  0  1.056474  0  0  0.085374  0  1.054151  0  0  0.099645  0.081865  0  1.058209  0
H  H6  1  0.33706083  0.63005792  0.61585420  1  0  0.128941  0  0.955229  0  0  0.138791  0  1.013471  0  0  0.142646  0  1.011487  0  0  0.102463  0.135944  0  1.015216  0
H  H7  1  0.66294273  0.36993155  0.38414543  1  0  0.128895  0  0.955127  0  0  0.13875  0  1.01338  0  0  0.142602  0  1.011403  0  0  0.102479  0.135903  0  1.015126  0
H  H8  1  0.85960513  0.28277256  0.74027905  1  0  0.091597  0  0.928028  0  0  0.102923  0  0.990974  0  0  0.105663  0  0.987796  0  0  0.123052  0.100827  0  0.993419  0
H  H9  1  0.14039881  0.71722920  0.25972212  1  0  0.09159  0  0.928014  0  0  0.102941  0  0.99093  0  0  0.105681  0  0.98775  0  0  0.123058  0.100842  0  0.993374  0
H  H10  1  0.45858216  0.22083492  0.73240044  1  0  0.040291  0  0.97125  0  0  0.053386  0  1.035902  0  0  0.05259  0  1.037577  0  0  0.098684  0.053866  0  1.034865  0
H  H11  1  0.54141197  0.77916686  0.26760230  1  0  0.040255  0  0.971272  0  0  0.053341  0  1.035931  0  0  0.05255  0  1.037601  0  0  0.098652  0.053817  0  1.034891  0
H  H12  1  0.14889741  0.21740085  0.80807302  1  0  0.112248  0  0.963753  0  0  0.13016  0  1.030205  0  0  0.13211  0  1.029424  0  0  0.088076  0.128842  0  1.030635  0
H  H13  1  0.85110518  0.78259429  0.19193062  1  0  0.112251  0  0.963734  0  0  0.130149  0  1.030207  0  0  0.132101  0  1.029426  0  0  0.088067  0.12883  0  1.030637  0
H  H14  1  0.25253025  0.05499271  0.84710444  1  0  0.089953  0  0.964527  0  0  0.110422  0  1.029653  0  0  0.112185  0  1.029007  0  0  0.08168  0.109002  0  1.030368  0
H  H15  1  0.74747974  0.94500148  0.15289727  1  0  0.090022  0  0.964496  0  0  0.110491  0  1.029617  0  0  0.112254  0  1.028971  0  0  0.081696  0.10907  0  1.030334  0
H  H16  1  0.22610386  0.09865504  0.74580241  1  0  0.111134  0  0.952976  0  0  0.13227  0  1.0165  0  0  0.132875  0  1.017383  0  0  0.088334  0.131857  0  1.015736  0
H  H17  1  0.77389930  0.90134199  0.25419986  1  0  0.111079  0  0.953022  0  0  0.132231  0  1.016536  0  0  0.132836  0  1.017418  0  0  0.088299  0.131818  0  1.015773  0
H  H18  1  0.76640129  0.05281638  0.76060932  1  0  0.102838  0  0.956227  0  0  0.12275  0  1.020082  0  0  0.123863  0  1.020448  0  0  0.083134  0.121891  0  1.01991  0
H  H19  1  0.23360118  0.94719203  0.23938837  1  0  0.102759  0  0.956302  0  0  0.122658  0  1.020189  0  0  0.123772  0  1.020553  0  0  0.083085  0.121798  0  1.020017  0
H  H20  1  0.59551998  0.99410872  0.72255070  1  0  0.11938  0  0.971052  0  0  0.138599  0  1.035199  0  0  0.140015  0  1.03556  0  0  0.082065  0.137498  0  1.035119  0
H  H21  1  0.40448410  0.00589590  0.27744675  1  0  0.119363  0  0.971071  0  0  0.138597  0  1.035206  0  0  0.140011  0  1.035569  0  0  0.082038  0.137494  0  1.035126  0
H  H22  1  0.63581777  0.95780527  0.82321132  1  0  0.086945  0  0.964913  0  0  0.107586  0  1.032215  0  0  0.109164  0  1.031694  0  0  0.081118  0.106426  0  1.03257  0
H  H23  1  0.36419133  0.04219745  0.17678611  1  0  0.086882  0  0.964942  0  0  0.10752  0  1.032257  0  0  0.109106  0  1.031727  0  0  0.081089  0.106357  0  1.032615  0
H  H24  1  0.48112708  0.05286688  0.92203700  1  0  0.018415  0  0.952055  0  0  0.035753  0  1.013364  0  0  0.035131  0  1.014135  0  0  0.103645  0.036098  0  1.012944  0
H  H25  1  0.51886344  0.94713679  0.07796569  1  0  0.018392  0  0.951949  0  0  0.035718  0  1.013289  0  0  0.035095  0  1.01406  0  0  0.10363  0.036061  0  1.012871  0
H  H26  1  0.20092136  0.23074162  0.95761024  1  0  0.108108  0  0.943527  0  0  0.131159  0  1.001457  0  0  0.13241  0  1.001796  0  0  0.091174  0.130214  0  1.001247  0
H  H27  1  0.79907251  0.76926396  0.04238868  1  0  0.108124  0  0.943508  0  0  0.131188  0  1.001409  0  0  0.132439  0  1.001745  0  0  0.091201  0.130243  0  1.001201  0
H  H28  1  0.36530360  0.30039627  0.99162420  1  0  0.118679  0  0.970329  0  0  0.137125  0  1.033332  0  0  0.139261  0  1.032769  0  0  0.093192  0.135512  0  1.033806  0
H  H29  1  0.63468426  0.69961026  0.00837602  1  0  0.118687  0  0.970299  0  0  0.137122  0  1.033306  0  0  0.139255  0  1.032742  0  0  0.093224  0.135509  0  1.033781  0
H  H30  1  0.34140993  0.15022502  0.03836007  1  0  0.092082  0  0.96981  0  0  0.112194  0  1.038317  0  0  0.113127  0  1.038637  0  0  0.083499  0.111476  0  1.038134  0
H  H31  1  0.65857613  0.84978245  0.96164013  1  0  0.092062  0  0.969841  0  0  0.112139  0  1.038383  0  0  0.113072  0  1.038703  0  0  0.083492  0.111423  0  1.038199  0
H  H32  1  0.82191937  0.05721944  0.92021562  1  0  0.102245  0  0.946789  0  0  0.123637  0  1.007625  0  0  0.124915  0  1.007779  0  0  0.086892  0.122662  0  1.007605  0
H  H33  1  0.17807417  0.94278044  0.07978734  1  0  0.102265  0  0.946777  0  0  0.123657  0  1.007595  0  0  0.124924  0  1.007763  0  0  0.086884  0.122679  0  1.007577  0
H  H34  1  0.71827525  0.05757316  0.01665706  1  0  0.095449  0  0.969821  0  0  0.118392  0  1.031723  0  0  0.119358  0  1.03221  0  0  0.08545  0.117584  0  1.031558  0
H  H35  1  0.28171509  0.94242767  0.98334651  1  0  0.095524  0  0.969776  0  0  0.118414  0  1.031722  0  0  0.119383  0  1.032203  0  0  0.085434  0.117606  0  1.031558  0
H  H36  1  0.74886044  0.20062941  0.96195280  1  0  0.117723  0  0.963837  0  0  0.138423  0  1.022995  0  0  0.14027  0  1.022845  0  0  0.093329  0.137045  0  1.023128  0
H  H37  1  0.25113591  0.79937047  0.03805003  1  0  0.117779  0  0.963786  0  0  0.138459  0  1.022949  0  0  0.140305  0  1.022798  0  0  0.093361  0.137082  0  1.023083  0
H  H38  1  0.91240493  0.71986914  0.85874102  1  0  0.022207  0  0.933718  0  0  0.041873  0  0.988569  0  0  0.041437  0  0.989263  0  0  0.106335  0.042135  0  0.988149  0
H  H39  1  0.08759092  0.28013171  0.14125489  1  0  0.02219  0  0.933665  0  0  0.041867  0  0.988489  0  0  0.041433  0  0.98918  0  0  0.106299  0.042129  0  0.988069  0
H  H40  1  0.01028094  0.50773676  0.93661807  1  0  0.099554  0  0.968468  0  0  0.119741  0  1.033331  0  0  0.120795  0  1.034016  0  0  0.086662  0.118887  0  1.032945  0
H  H41  1  0.98971013  0.49226882  0.06338155  1  0  0.099535  0  0.968457  0  0  0.119727  0  1.033325  0  0  0.12078  0  1.034011  0  0  0.086636  0.118874  0  1.032936  0
H  H42  1  0.91980463  0.44192189  0.86684854  1  0  0.115534  0  0.962408  0  0  0.133179  0  1.027509  0  0  0.135225  0  1.026699  0  0  0.087932  0.131683  0  1.02805  0
H  H43  1  0.08018687  0.55808273  0.13315286  1  0  0.115563  0  0.962418  0  0  0.133244  0  1.02748  0  0  0.135292  0  1.026666  0  0  0.087946  0.131747  0  1.02802  0
H  H44  1  0.75568078  0.55320496  0.92018668  1  0  0.11268  0  0.952235  0  0  0.136292  0  1.009542  0  0  0.13767  0  1.00943  0  0  0.091795  0.135237  0  1.009671  0
H  H45  1  0.24431349  0.44679967  0.07981233  1  0  0.112699  0  0.952189  0  0  0.136318  0  1.0095  0  0  0.137694  0  1.009391  0  0  0.091777  0.135259  0  1.009631  0
H  H46  1  0.80725421  0.74865346  0.72321181  1  0  0.111369  0  0.959394  0  0  0.129091  0  1.027238  0  0  0.130182  0  1.027551  0  0  0.082613  0.128264  0  1.027069  0
H  H47  1  0.19274627  0.25134644  0.27678457  1  0  0.111409  0  0.959357  0  0  0.129126  0  1.027209  0  0  0.130217  0  1.027521  0  0  0.082614  0.128301  0  1.027039  0
H  H48  1  0.63403827  0.70998447  0.79533541  1  0  0.099804  0  0.969361  0  0  0.124415  0  1.027438  0  0  0.125047  0  1.028426  0  0  0.086798  0.123885  0  1.026861  0
H  H49  1  0.36595937  0.29001544  0.20465882  1  0  0.099786  0  0.96942  0  0  0.124396  0  1.027491  0  0  0.125023  0  1.028486  0  0  0.086798  0.123863  0  1.026917  0
H  H50  1  0.78157594  0.59268555  0.74025871  1  0  0.112121  0  0.981616  0  0  0.128976  0  1.048943  0  0  0.129453  0  1.051117  0  0  0.084568  0.128548  0  1.047626  0
H  H51  1  0.21843156  0.40731434  0.25973795  1  0  0.112097  0  0.981684  0  0  0.128999  0  1.048954  0  0  0.129476  0  1.051129  0  0  0.084611  0.128572  0  1.047637  0
H  H52  1  0.39939519  0.64647167  0.78362546  1  0  0.033452  0  0.966424  0  0  0.050754  0  1.024648  0  0  0.049697  0  1.026626  0  0  0.108948  0.051373  0  1.023452  0
H  H53  1  0.60060698  0.35352442  0.21637696  1  0  0.033467  0  0.966396  0  0  0.050763  0  1.02465  0  0  0.049707  0  1.026627  0  0  0.108965  0.051384  0  1.023455  0
H  H54  1  0.32920895  0.59601429  0.92374388  1  0  0.12819  0  0.944618  0  0  0.146887  0  1.006379  0  0  0.149443  0  1.004918  0  0  0.096338  0.144989  0  1.007504  0
H  H55  1  0.67078616  0.40398844  0.07625757  1  0  0.12814  0  0.944667  0  0  0.146878  0  1.006379  0  0  0.149434  0  1.004918  0  0  0.09634  0.14498  0  1.007505  0
H  H56  1  0.13019075  0.73736033  0.92218315  1  0  0.096353  0  0.957759  0  0  0.117709  0  1.020046  0  0  0.119145  0  1.019777  0  0  0.086773  0.116659  0  1.020282  0
H  H57  1  0.86980716  0.26264240  0.07781704  1  0  0.096387  0  0.957743  0  0  0.117742  0  1.020031  0  0  0.119181  0  1.01976  0  0  0.086798  0.116692  0  1.020265  0
H  H58  1  0.37134790  0.74741619  0.89938226  1  0  0.102028  0  0.956117  0  0  0.126507  0  1.01548  0  0  0.127137  0  1.016565  0  0  0.090614  0.125982  0  1.01485  0
H  H59  1  0.62865123  0.25258369  0.10061875  1  0  0.102034  0  0.956093  0  0  0.126497  0  1.015479  0  0  0.127127  0  1.016565  0  0  0.090624  0.125972  0  1.014848  0
H  H60  1  0.16911447  0.81918571  0.70049793  1  0  0.115593  0  0.950479  0  0  0.133599  0  1.016034  0  0  0.134654  0  1.016386  0  0  0.084269  0.132776  0  1.015837  0
H  H61  1  0.83089547  0.18080848  0.29950037  1  0  0.115638  0  0.9505  0  0  0.133621  0  1.016073  0  0  0.134671  0  1.01643  0  0  0.084277  0.132794  0  1.015885  0
H  H62  1  0.27884509  0.87920995  0.76634040  1  0  0.106838  0  0.963402  0  0  0.130775  0  1.022372  0  0  0.13135  0  1.023668  0  0  0.087794  0.130418  0  1.021266  0
H  H63  1  0.72115902  0.12078804  0.23365718  1  0  0.10686  0  0.963439  0  0  0.130812  0  1.022371  0  0  0.131389  0  1.023666  0  0  0.08782  0.130452  0  1.02127  0
H  H64  1  0.03357916  0.87340147  0.78468822  1  0  0.097287  0  0.966349  0  0  0.119984  0  1.028798  0  0  0.121008  0  1.029201  0  0  0.085652  0.119187  0  1.028594  0
H  H65  1  0.96642592  0.12659747  0.21530750  1  0  0.097383  0  0.966307  0  0  0.120049  0  1.028786  0  0  0.121071  0  1.029188  0  0  0.085702  0.119253  0  1.028578  0
C  C66  1  0.63598403  0.51855877  0.61178289  1  0  0.151859  0  3.657318  0  0  0.113549  0  3.910857  0  0  0.123883  0  3.926983  0  0  0.054442  0.106665  0  3.900403  0
C  C67  1  0.36402269  0.48143638  0.38821430  1  0  0.151856  0  3.657482  0  0  0.11348  0  3.911069  0  0  0.12381  0  3.9272  0  0  0.054403  0.106595  0  3.900618  0
C  C68  1  0.44880264  0.55386543  0.64615688  1  0  -0.11821  0  3.669563  0  0  -0.139981  0  3.922005  0  0  -0.146479  0  3.939363  0  0  -0.075688  -0.136268  0  3.911287  0
C  C69  1  0.55119208  0.44613162  0.35384347  1  0  -0.118223  0  3.669612  0  0  -0.139944  0  3.922065  0  0  -0.146442  0  3.939425  0  0  -0.075738  -0.136231  0  3.911348  0
C  C70  1  0.40691332  0.48925034  0.71806240  1  0  0.006871  0  3.712659  0  0  0.011037  0  3.95875  0  0  0.01459  0  3.973242  0  0  0.018581  0.008701  0  3.949226  0
C  C71  1  0.59309365  0.51074763  0.28193961  1  0  0.007023  0  3.712528  0  0  0.011101  0  3.958735  0  0  0.014656  0  3.973228  0  0  0.018577  0.008766  0  3.949209  0
C  C72  1  0.55572935  0.38923188  0.75324564  1  0  -0.089533  0  3.727462  0  0  -0.076594  0  3.976499  0  0  -0.082825  0  3.992501  0  0  0.003728  -0.073057  0  3.966204  0
C  C73  1  0.44427841  0.61076421  0.24675426  1  0  -0.089576  0  3.727514  0  0  -0.07664  0  3.976554  0  0  -0.082872  0  3.992559  0  0  0.003737  -0.073102  0  3.966252  0
C  C74  1  0.73913473  0.35860587  0.71494218  1  0  0.116063  0  3.646079  0  0  0.067176  0  3.905786  0  0  0.077998  0  3.918927  0  0  0.054966  0.060024  0  3.897118  0
C  C75  1  0.26087180  0.64139306  0.28505747  1  0  0.116145  0  3.64588  0  0  0.067224  0  3.905599  0  0  0.078045  0  3.918737  0  0  0.054983  0.060075  0  3.896925  0
C  C76  1  0.53186329  0.32864731  0.83581881  1  0  0.492134  0  3.845804  0  0  0.439416  0  4.14209  0  0  0.468425  0  4.142281  0  0  0.239207  0.419884  0  4.141383  0
C  C77  1  0.46814023  0.67135541  0.16418115  1  0  0.49204  0  3.845839  0  0  0.439418  0  4.141964  0  0  0.468426  0  4.142157  0  0  0.239227  0.419887  0  4.141256  0
C  C78  1  0.46205300  0.15198418  0.78520046  1  0  0.211137  0  3.633165  0  0  0.195562  0  3.880501  0  0  0.200739  0  3.897868  0  0  0.003364  0.192096  0  3.868512  0
C  C79  1  0.53794471  0.84801571  0.21479947  1  0  0.211243  0  3.633174  0  0  0.195673  0  3.880498  0  0  0.200846  0  3.897872  0  0  0.003468  0.192215  0  3.868502  0
C  C80  1  0.25995696  0.12930701  0.79797121  1  0  -0.347591  0  3.671969  0  0  -0.42983  0  3.916547  0  0  -0.432868  0  3.925676  0  0  -0.247975  -0.427481  0  3.910088  0
C  C81  1  0.74005041  0.87069002  0.20203088  1  0  -0.347622  0  3.671876  0  0  -0.429877  0  3.916452  0  0  -0.432918  0  3.925578  0  0  -0.247961  -0.427523  0  3.909982  0
C  C82  1  0.62459979  0.03220534  0.77262462  1  0  -0.343415  0  3.670459  0  0  -0.422733  0  3.911284  0  0  -0.426242  0  3.921473  0  0  -0.249739  -0.420027  0  3.904225  0
C  C83  1  0.37540290  0.96779927  0.22737403  1  0  -0.34327  0  3.670497  0  0  -0.422597  0  3.91128  0  0  -0.426112  0  3.921462  0  0  -0.24966  -0.419889  0  3.904222  0
C  C84  1  0.50765996  0.14300439  0.92810115  1  0  0.233049  0  3.601596  0  0  0.221199  0  3.841354  0  0  0.22685  0  3.857886  0  0  0.013768  0.217351  0  3.830048  0
C  C85  1  0.49233236  0.85699833  0.07190157  1  0  0.233133  0  3.601231  0  0  0.221233  0  3.841039  0  0  0.226882  0  3.857569  0  0  0.013694  0.217384  0  3.829735  0
C  C86  1  0.34383154  0.21073646  0.98217573  1  0  -0.350044  0  3.665693  0  0  -0.43327  0  3.908578  0  0  -0.436684  0  3.918438  0  0  -0.246599  -0.430628  0  3.901778  0
C  C87  1  0.65616175  0.78926722  0.01782456  1  0  -0.350101  0  3.665524  0  0  -0.433267  0  3.908396  0  0  -0.436681  0  3.918261  0  0  -0.246672  -0.430628  0  3.9016  0
C  C88  1  0.71181194  0.11299491  0.95852919  1  0  -0.352488  0  3.679122  0  0  -0.434667  0  3.917248  0  0  -0.438116  0  3.927361  0  0  -0.246443  -0.432054  0  3.910343  0
C  C89  1  0.28817940  0.88700686  0.04147423  1  0  -0.352642  0  3.679016  0  0  -0.434741  0  3.91713  0  0  -0.438182  0  3.927251  0  0  -0.246411  -0.43213  0  3.910229  0
C  C90  1  0.20188731  0.51286475  0.75397310  1  0  0.497985  0  3.81202  0  0  0.446244  0  4.101199  0  0  0.475646  0  4.100131  0  0  0.244519  0.426591  0  4.101154  0
C  C91  1  0.79811322  0.48713513  0.24602728  1  0  0.497812  0  3.811913  0  0  0.446103  0  4.101113  0  0  0.475498  0  4.100049  0  0  0.244428  0.426452  0  4.101066  0
C  C92  1  0.92962621  0.63628827  0.83017786  1  0  0.238144  0  3.596846  0  0  0.227475  0  3.834195  0  0  0.233155  0  3.849861  0  0  0.013839  0.223602  0  3.82347  0
C  C93  1  0.07036887  0.36371447  0.16982074  1  0  0.238094  0  3.596846  0  0  0.227474  0  3.834109  0  0  0.233153  0  3.849775  0  0  0.013847  0.223601  0  3.823383  0
C  C94  1  0.90306243  0.52799443  0.89233957  1  0  -0.350285  0  3.666586  0  0  -0.433895  0  3.90732  0  0  -0.436785  0  3.916022  0  0  -0.24795  -0.431612  0  3.901387  0
C  C95  1  0.09693383  0.47201209  0.10765859  1  0  -0.35033  0  3.666531  0  0  -0.434014  0  3.907225  0  0  -0.436903  0  3.915929  0  0  -0.24796  -0.431726  0  3.901287  0
C  C96  1  0.77994966  0.67382570  0.76814668  1  0  -0.345748  0  3.655513  0  0  -0.42859  0  3.895841  0  0  -0.431404  0  3.906084  0  0  -0.25123  -0.426414  0  3.88887  0
C  C97  1  0.22005323  0.32617513  0.23185065  1  0  -0.345679  0  3.655602  0  0  -0.428572  0  3.895882  0  0  -0.431383  0  3.906125  0  0  -0.251224  -0.426392  0  3.888913  0
C  C98  1  0.25281014  0.69072270  0.80754632  1  0  0.212475  0  3.642701  0  0  0.195075  0  3.894818  0  0  0.200388  0  3.911305  0  0  0.008291  0.191577  0  3.883348  0
C  C99  1  0.74718939  0.30927623  0.19245420  1  0  0.212544  0  3.642734  0  0  0.195105  0  3.894904  0  0  0.200419  0  3.91139  0  0  0.008264  0.191606  0  3.883433  0
C  C100  1  0.27058995  0.69217880  0.89344843  1  0  -0.345651  0  3.672369  0  0  -0.430214  0  3.920337  0  0  -0.432954  0  3.928703  0  0  -0.243956  -0.428073  0  3.914612  0
C  C101  1  0.72940837  0.30782298  0.10655242  1  0  -0.345627  0  3.672333  0  0  -0.430202  0  3.92033  0  0  -0.432942  0  3.928695  0  0  -0.243974  -0.428059  0  3.914602  0
C  C102  1  0.17870585  0.82285438  0.76207549  1  0  -0.347883  0  3.678545  0  0  -0.431002  0  3.919991  0  0  -0.434007  0  3.93072  0  0  -0.249408  -0.428719  0  3.912388  0
C  C103  1  0.82130008  0.17714266  0.23792325  1  0  -0.34809  0  3.678669  0  0  -0.431148  0  3.920106  0  0  -0.434155  0  3.930849  0  0  -0.249487  -0.428866  0  3.912502  0
N  N104  1  0.77741247  0.42284962  0.64605873  1  0  -0.25365  0  3.350966  0  0  -0.15908  0  3.610888  0  0  -0.18205  0  3.632522  0  0  -0.303212  -0.1439  0  3.596046  0
N  N105  1  0.22259029  0.57714836  0.35394346  1  0  -0.253697  0  3.350775  0  0  -0.159094  0  3.610705  0  0  -0.182062  0  3.632338  0  0  -0.303176  -0.143915  0  3.595864  0
N  N106  1  0.50223581  0.21237468  0.84843553  1  0  -0.283432  0  3.301354  0  0  -0.198541  0  3.527322  0  0  -0.221188  0  3.548898  0  0  -0.26673  -0.183227  0  3.512345  0
N  N107  1  0.49776373  0.78762426  0.15156613  1  0  -0.283401  0  3.301641  0  0  -0.198498  0  3.527542  0  0  -0.221142  0  3.549118  0  0  -0.266708  -0.183183  0  3.512559  0
N  N108  1  0.13244572  0.60857962  0.79574249  1  0  -0.263234  0  3.300805  0  0  -0.180148  0  3.525097  0  0  -0.201958  0  3.546248  0  0  -0.257665  -0.165659  0  3.510509  0
N  N109  1  0.86755321  0.39141743  0.20425825  1  0  -0.26323  0  3.300785  0  0  -0.180145  0  3.52504  0  0  -0.201951  0  3.54619  0  0  -0.257588  -0.165655  0  3.510453  0
Cl  Cl110  1  0.03254251  0.63631383  0.54954315  1  0  -0.54689  0  1.022677  0  0  -0.490868  0  1.312814  0  0  -0.51243  0  1.292109  0  0  -0.303841  -0.475393  0  1.32646  0
Cl  Cl111  1  0.96745903  0.36368037  0.45045664  1  0  -0.54686  0  1.022644  0  0  -0.490847  0  1.312788  0  0  -0.51241  0  1.292086  0  0  -0.303838  -0.475362  0  1.326427  0
Cl  Cl112  1  0.41260301  0.26667896  0.57942881  1  0  -0.423502  0  1.049092  0  0  -0.362691  0  1.326331  0  0  -0.382522  0  1.311316  0  0  -0.240443  -0.349731  0  1.337194  0
Cl  Cl113  1  0.58739931  0.73331998  0.42057045  1  0  -0.42349  0  1.049072  0  0  -0.362675  0  1.326303  0  0  -0.38251  0  1.311294  0  0  -0.240428  -0.349716  0  1.33716  0
Cl  Cl114  1  0.02344101  0.92849997  0.40457696  1  0  -0.420764  0  1.050156  0  0  -0.357527  0  1.329288  0  0  -0.378242  0  1.310947  0  0  -0.246491  -0.342985  0  1.341429  0
Cl  Cl115  1  0.97656311  0.07149802  0.59542175  1  0  -0.420752  0  1.050139  0  0  -0.357517  0  1.32928  0  0  -0.378234  0  1.310942  0  0  -0.246467  -0.342973  0  1.341424  0
Cl  Cl116  1  0.53645480  0.89353759  0.59998468  1  0  -0.404713  0  1.106011  0  0  -0.338154  0  1.39088  0  0  -0.359374  0  1.373942  0  0  -0.223403  -0.323308  0  1.402836  0
Cl  Cl117  1  0.46355454  0.10646134  0.40001429  1  0  -0.404706  0  1.105926  0  0  -0.338164  0  1.390806  0  0  -0.359372  0  1.373844  0  0  -0.223414  -0.323316  0  1.402768  0
O  O118  1  0.54882010  0.38826389  0.88771818  1  0  -0.529149  0  1.902283  0  0  -0.484621  0  2.116041  0  0  -0.506177  0  2.112393  0  0  -0.289339  -0.46933  0  2.117951  0
O  O119  1  0.45118324  0.61173599  0.11228265  1  0  -0.529149  0  1.902197  0  0  -0.484648  0  2.115891  0  0  -0.506203  0  2.112243  0  0  -0.289354  -0.469358  0  2.1178  0
O  O120  1  0.10816231  0.43850831  0.74307926  1  0  -0.558131  0  1.988594  0  0  -0.506723  0  2.232969  0  0  -0.532648  0  2.228478  0  0  -0.29297  -0.488235  0  2.235028  0
O  O121  1  0.89184629  0.56148588  0.25692366  1  0  -0.558074  0  1.988576  0  0  -0.506672  0  2.232941  0  0  -0.532596  0  2.228454  0  0  -0.292945  -0.488186  0  2.235001  0
