# generated using pymatgen
data_Tb2Cu3H38C42(N3O17)2
_symmetry_space_group_name_H-M   'P 1'
_cell_length_a   11.41461973
_cell_length_b   13.12390002
_cell_length_c   19.04124865
_cell_angle_alpha   89.99992651
_cell_angle_beta   93.16752977
_cell_angle_gamma   89.99996235
_symmetry_Int_Tables_number   1
_chemical_formula_structural   Tb2Cu3H38C42(N3O17)2
_chemical_formula_sum   'Tb4 Cu6 H76 C84 N12 O68'
_cell_volume   2848.10357999
_cell_formula_units_Z   2
loop_
 _symmetry_equiv_pos_site_id
 _symmetry_equiv_pos_as_xyz
  1  'x, y, z'
loop_
 _atom_site_type_symbol
 _atom_site_label
 _atom_site_symmetry_multiplicity
 _atom_site_fract_x
 _atom_site_fract_y
 _atom_site_fract_z
 _atom_site_occupancy
 _atom_site_pbe_bader_charge
 _atom_site_pbe_bader_spin_density
 _atom_site_pbe_cm5_charge
 _atom_site_pbe_ddec_charge
 _atom_site_pbe_ddec_spin_density
 _atom_site_pbe_ddec_sum_bond_order
 _atom_site_pbe_magmom
Tb  Tb0  1  0.13534400  0.06656597  0.35667084  1  2.201693  0.000231  1.501143  2.147887  0.000174  2.094709  0.0
Tb  Tb1  1  0.36465482  0.56656534  0.14333033  1  2.201713  0.000231  1.5011  2.147895  0.000174  2.094663  0.0
Tb  Tb2  1  0.86465734  0.93343587  0.64332969  1  2.20176  0.000231  1.501159  2.147888  0.000174  2.094738  0.0
Tb  Tb3  1  0.63534384  0.43343574  0.85667166  1  2.201755  0.000231  1.50113  2.147939  0.000173  2.094638  0.0
Cu  Cu4  1  0.65523333  0.90648615  0.32619225  1  1.099184  0.587686  0.758778  0.80605  0.743757  2.22421  0.586
Cu  Cu5  1  0.84476770  0.40648547  0.17380785  1  1.099137  0.587683  0.758782  0.806047  0.743751  2.224187  0.586
Cu  Cu6  1  0.34477071  0.09351264  0.67380684  1  1.099215  0.587685  0.758824  0.806143  0.743755  2.224141  0.586
Cu  Cu7  1  0.15523014  0.59351256  0.82619252  1  1.099227  0.587686  0.758829  0.806161  0.743757  2.224128  0.586
Cu  Cu8  1  0.49999894  0.50000321  0.49999966  1  1.084452  0.580036  0.756434  0.769747  0.74041  2.313679  0.578
Cu  Cu9  1  0.99999766  0.99999832  0.99999801  1  1.084439  0.580033  0.756417  0.769692  0.740407  2.313745  0.578
H  H10  1  0.07989172  0.85030485  0.32323417  1  0.606208  -1.2e-05  0.328814  0.415242  -1.6e-05  0.875164  0.0
H  H11  1  0.42010782  0.35030260  0.17676468  1  0.606222  -1.2e-05  0.328778  0.4152  -1.6e-05  0.875214  0.0
H  H12  1  0.92011137  0.14969699  0.67676697  1  0.606151  -1.2e-05  0.328786  0.415172  -1.6e-05  0.875245  0.0
H  H13  1  0.57989013  0.64969619  0.82323254  1  0.606181  -1.2e-05  0.32878  0.415206  -1.6e-05  0.875214  0.0
H  H14  1  0.96171258  0.90427100  0.34410735  1  0.626887  0.000458  0.296927  0.388149  0.000565  0.953449  0.0
H  H15  1  0.53828756  0.40427054  0.15589324  1  0.626887  0.000458  0.296933  0.388163  0.000565  0.953435  0.0
H  H16  1  0.03829049  0.09572931  0.65589432  1  0.626837  0.000459  0.296972  0.388178  0.000565  0.953385  0.0
H  H17  1  0.46171205  0.59572978  0.84410669  1  0.626869  0.000459  0.296981  0.388258  0.000565  0.953284  0.0
H  H18  1  0.18688125  0.03060852  0.50662929  1  0.660705  1.8e-05  0.295654  0.400145  5.5e-05  0.938894  0.0
H  H19  1  0.31311696  0.53060804  0.99337158  1  0.660706  1.8e-05  0.29567  0.40015  5.5e-05  0.938878  0.0
H  H20  1  0.81311137  0.96939789  0.49336979  1  0.660692  1.8e-05  0.295651  0.400198  5.5e-05  0.93879  0.0
H  H21  1  0.68688698  0.46939837  0.00663013  1  0.660702  1.8e-05  0.295685  0.400213  5.5e-05  0.938764  0.0
H  H22  1  0.07567012  0.95288015  0.49051825  1  0.638363  2e-05  0.331801  0.432365  1.4e-05  0.858096  0.0
H  H23  1  0.42432661  0.45287820  0.00948301  1  0.638371  2e-05  0.331833  0.432428  1.4e-05  0.857998  0.0
H  H24  1  0.92433933  0.04711179  0.50947688  1  0.638267  2e-05  0.331806  0.432396  1.4e-05  0.858053  0.0
H  H25  1  0.57565693  0.54710916  0.99052405  1  0.638279  2e-05  0.331808  0.432381  1.4e-05  0.858076  0.0
H  H26  1  0.70586140  0.46805243  0.33437189  1  0.09076  3e-05  0.111983  0.115583  -2.1e-05  1.025253  0.0
H  H27  1  0.79413961  0.96804951  0.16562710  1  0.090717  3e-05  0.111987  0.115582  -2.1e-05  1.025236  0.0
H  H28  1  0.29414260  0.53194789  0.66562824  1  0.090763  3e-05  0.112004  0.115609  -2.1e-05  1.025281  0.0
H  H29  1  0.20585918  0.03194699  0.83437122  1  0.09078  3e-05  0.112006  0.115616  -2.1e-05  1.025281  0.0
H  H30  1  0.14553191  0.26234459  0.43890459  1  0.671436  -9e-06  0.29984  0.414188  -3.7e-05  0.919339  0.0
H  H31  1  0.35446593  0.76234411  0.06109479  1  0.671426  -9e-06  0.299828  0.414185  -3.7e-05  0.919343  0.0
H  H32  1  0.85446596  0.73765725  0.56109474  1  0.671428  -9e-06  0.29983  0.414178  -3.7e-05  0.91935  0.0
H  H33  1  0.64553546  0.23765696  0.93890469  1  0.671433  -9e-06  0.299812  0.414162  -3.7e-05  0.919375  0.0
H  H34  1  0.01104418  0.25647445  0.40553143  1  0.665916  2.5e-05  0.293213  0.412246  3.8e-05  0.92169  0.0
H  H35  1  0.48895278  0.75647384  0.09446844  1  0.665958  2.5e-05  0.293221  0.412289  3.8e-05  0.92163  0.0
H  H36  1  0.98895366  0.74352586  0.59446894  1  0.665946  2.5e-05  0.293241  0.412291  3.8e-05  0.921623  0.0
H  H37  1  0.51104684  0.24352648  0.90553149  1  0.665956  2.5e-05  0.293231  0.412298  3.8e-05  0.921619  0.0
H  H38  1  0.88340399  0.57193383  0.35599887  1  0.123976  0.0012  0.12499  0.135776  0.000628  0.955367  0.001
H  H39  1  0.61659732  0.07193334  0.14400154  1  0.124004  0.0012  0.124983  0.135773  0.000628  0.955395  0.001
H  H40  1  0.11659912  0.42806725  0.64400174  1  0.124081  0.0012  0.124956  0.135715  0.000628  0.95541  0.001
H  H41  1  0.38340143  0.92806469  0.85599783  1  0.12404  0.0012  0.124958  0.135714  0.000628  0.955441  0.001
H  H42  1  0.18981916  0.25508694  0.31877740  1  0.622773  -4e-06  0.310759  0.39765  -1.1e-05  0.915682  0.0
H  H43  1  0.31018041  0.75508779  0.18122312  1  0.622771  -4e-06  0.310765  0.397665  -1.1e-05  0.915663  0.0
H  H44  1  0.81018043  0.74491414  0.68122306  1  0.622788  -4e-06  0.310775  0.397685  -1.1e-05  0.915637  0.0
H  H45  1  0.68982092  0.24491557  0.81877794  1  0.622772  -4e-06  0.310736  0.397625  -1.1e-05  0.915714  0.0
H  H46  1  0.19476859  0.20970415  0.24142500  1  0.651289  -6.2e-05  0.29892  0.400734  -0.000102  0.937208  0.0
H  H47  1  0.30523189  0.70970487  0.25857560  1  0.651277  -6.2e-05  0.29891  0.40074  -0.000102  0.93719  0.0
H  H48  1  0.80523100  0.79029540  0.75857545  1  0.65129  -6.2e-05  0.298922  0.400743  -0.000102  0.937191  0.0
H  H49  1  0.69476859  0.29029621  0.74142490  1  0.651294  -6.2e-05  0.298915  0.400749  -0.000102  0.937188  0.0
H  H50  1  0.86413208  0.76395297  0.35761747  1  0.118191  0.002465  0.124093  0.095119  0.001124  0.998219  0.002
H  H51  1  0.63586993  0.26395324  0.14238333  1  0.118224  0.002465  0.124101  0.095141  0.001124  0.998193  0.002
H  H52  1  0.13586931  0.23604811  0.64238202  1  0.118218  0.002465  0.124099  0.095129  0.001124  0.998207  0.002
H  H53  1  0.36413058  0.73604556  0.85761612  1  0.118202  0.002465  0.124103  0.095127  0.001124  0.998202  0.002
H  H54  1  0.24867600  0.94548693  0.25723345  1  0.652479  4e-06  0.329142  0.41936  3e-06  0.873652  0.0
H  H55  1  0.25132163  0.44548618  0.24276733  1  0.652662  4e-06  0.329148  0.419375  3e-06  0.873646  0.0
H  H56  1  0.75132269  0.05451338  0.74276749  1  0.652655  4e-06  0.329162  0.419386  3e-06  0.873643  0.0
H  H57  1  0.74867623  0.55451337  0.75723251  1  0.652655  4e-06  0.32916  0.419381  3e-06  0.87365  0.0
H  H58  1  0.34977279  0.91611601  0.31663243  1  0.667088  0.000589  0.302329  0.414151  0.000702  0.912454  0.0
H  H59  1  0.15022752  0.41611542  0.18336798  1  0.667084  0.000589  0.302351  0.414208  0.000702  0.912402  0.0
H  H60  1  0.65022858  0.08388279  0.68336758  1  0.667083  0.000589  0.302341  0.414165  0.000702  0.912439  0.0
H  H61  1  0.84977209  0.58388337  0.81663195  1  0.667077  0.000589  0.302387  0.414247  0.000702  0.912337  0.0
H  H62  1  0.57907379  0.06421581  0.49278915  1  0.075429  -5.2e-05  0.107986  0.11342  -5.2e-05  1.025965  0.0
H  H63  1  0.92092227  0.56421387  0.00721102  1  0.075373  -5.2e-05  0.107984  0.113392  -5.2e-05  1.025941  0.0
H  H64  1  0.42091791  0.93578908  0.50721094  1  0.075273  -5.2e-05  0.108024  0.113484  -5.2e-05  1.025937  0.0
H  H65  1  0.07907828  0.43578568  0.99278738  1  0.075377  -5.2e-05  0.107985  0.11338  -5.2e-05  1.025934  0.0
H  H66  1  0.75373382  0.17942845  0.50383615  1  0.082791  0.000969  0.114722  0.118568  0.000493  1.003064  0.0
H  H67  1  0.74626333  0.67942724  0.99616156  1  0.082735  0.000969  0.114755  0.118592  0.000493  1.003116  0.0
H  H68  1  0.24625960  0.82057415  0.49616507  1  0.082704  0.000969  0.11476  0.118587  0.000493  1.003101  0.0
H  H69  1  0.25373821  0.32057155  0.00383373  1  0.082757  0.000969  0.114757  0.118592  0.000493  1.003098  0.0
H  H70  1  0.72214249  0.36847364  0.50768963  1  0.154368  0.002082  0.132939  0.118582  0.000943  0.961971  0.002
H  H71  1  0.77785623  0.86847165  0.99230851  1  0.154362  0.002082  0.132924  0.118536  0.000943  0.962042  0.002
H  H72  1  0.27785359  0.63153049  0.49231066  1  0.154373  0.002082  0.13294  0.118577  0.000943  0.961976  0.002
H  H73  1  0.22214615  0.13152790  0.00768787  1  0.154332  0.002082  0.132928  0.118537  0.000943  0.962008  0.002
H  H74  1  0.60056400  0.34694441  0.32742342  1  0.103418  6.9e-05  0.10983  0.115657  2.4e-05  1.025274  0.0
H  H75  1  0.89943437  0.84694523  0.17257871  1  0.103411  6.9e-05  0.109858  0.115652  2.4e-05  1.02529  0.0
H  H76  1  0.39943828  0.65305286  0.67257558  1  0.103335  6.9e-05  0.109848  0.115708  2.4e-05  1.025245  0.0
H  H77  1  0.10056690  0.15305432  0.82742393  1  0.103379  6.9e-05  0.109863  0.115676  2.4e-05  1.025171  0.0
H  H78  1  0.42244799  0.23775209  0.30820733  1  0.146477  0.000932  0.112574  0.129312  0.000502  1.018688  0.001
H  H79  1  0.07754980  0.73775306  0.19179417  1  0.146669  0.000932  0.112576  0.129346  0.000502  1.018644  0.001
H  H80  1  0.57755338  0.76224518  0.69179268  1  0.146575  0.000932  0.112552  0.129305  0.000502  1.018694  0.001
H  H81  1  0.92245065  0.26224497  0.80820685  1  0.146643  0.000932  0.112562  0.129332  0.000502  1.018667  0.001
H  H82  1  0.44621086  0.04981710  0.30373705  1  0.106433  0.002273  0.125856  0.097418  0.001004  1.027579  0.002
H  H83  1  0.05378890  0.54981731  0.19626313  1  0.106444  0.002273  0.125861  0.097438  0.001004  1.027565  0.002
H  H84  1  0.55379129  0.95017940  0.69626562  1  0.106431  0.002273  0.125811  0.097366  0.001004  1.027615  0.002
H  H85  1  0.94620904  0.45017996  0.80373462  1  0.106433  0.002273  0.125837  0.0974  0.001004  1.027596  0.002
C  C86  1  0.58445649  0.70391604  0.33147755  1  0.474615  -2.2e-05  0.109661  0.061128  -0.000783  3.952287  0.0
C  C87  1  0.91554562  0.20391458  0.16852173  1  0.474476  -2.2e-05  0.109706  0.061159  -0.000783  3.952202  0.0
C  C88  1  0.41554581  0.29608275  0.66852093  1  0.474578  -2.2e-05  0.109767  0.061199  -0.000783  3.95218  0.0
C  C89  1  0.08445387  0.79608269  0.83148134  1  0.474579  -2.2e-05  0.109751  0.061157  -0.000783  3.952204  0.0
C  C90  1  0.58709543  0.59753837  0.32778173  1  -0.009527  0.003143  0.008596  -0.063705  0.002106  3.880672  0.002
C  C91  1  0.91290678  0.09753613  0.17221764  1  -0.009201  0.003143  0.008598  -0.063716  0.002106  3.880553  0.002
C  C92  1  0.41290774  0.40246118  0.67221731  1  -0.009487  0.003143  0.008639  -0.063504  0.002106  3.880336  0.002
C  C93  1  0.08709188  0.90246037  0.82778434  1  -0.009504  0.003143  0.008635  -0.063526  0.002106  3.880372  0.002
C  C94  1  0.69745428  0.55049515  0.33630806  1  -0.001143  -0.003299  -0.055421  -0.03839  -0.003856  3.892307  -0.002
C  C95  1  0.80254711  0.05049376  0.16369079  1  -0.001242  -0.0033  -0.055436  -0.038412  -0.003857  3.892347  -0.002
C  C96  1  0.30254974  0.44950440  0.66369154  1  -0.001135  -0.0033  -0.055507  -0.038572  -0.003857  3.892345  -0.002
C  C97  1  0.19744989  0.94950427  0.83630849  1  -0.001125  -0.0033  -0.055505  -0.038545  -0.003857  3.892347  -0.002
C  C98  1  0.79830749  0.60866760  0.34749352  1  -0.012173  0.006039  -0.062462  -0.085543  0.004061  3.913315  0.005
C  C99  1  0.70169467  0.10866781  0.15250689  1  -0.012196  0.006039  -0.062424  -0.085495  0.004061  3.91336  0.005
C  C100  1  0.20169563  0.39133195  0.65250657  1  -0.012246  0.00604  -0.062381  -0.085391  0.004061  3.913295  0.005
C  C101  1  0.29830407  0.89133098  0.84749300  1  -0.012299  0.00604  -0.06239  -0.085413  0.004061  3.913234  0.005
C  C102  1  0.78837842  0.71448981  0.34849623  1  0.52282  -0.000859  0.06041  0.113672  -0.001256  3.92449  0.0
C  C103  1  0.71162454  0.21449001  0.15150360  1  0.522849  -0.000859  0.060418  0.113635  -0.001256  3.924467  0.0
C  C104  1  0.21162384  0.28550974  0.65150330  1  0.522833  -0.000859  0.060444  0.113676  -0.001256  3.924457  0.0
C  C105  1  0.28837587  0.78550802  0.84849846  1  0.522973  -0.00086  0.060431  0.113658  -0.001256  3.924413  0.0
C  C106  1  0.47400333  0.76572392  0.33029214  1  1.609123  -0.001098  0.219362  0.541361  -0.001165  4.199151  -0.001
C  C107  1  0.02599798  0.26572192  0.16970844  1  1.609065  -0.001098  0.219311  0.54137  -0.001165  4.199084  -0.001
C  C108  1  0.52599889  0.23427639  0.66970843  1  1.609116  -0.001098  0.219239  0.541167  -0.001165  4.199377  -0.001
C  C109  1  0.97400068  0.73427611  0.83029354  1  1.609086  -0.001098  0.219272  0.541298  -0.001165  4.199254  -0.001
C  C110  1  0.47944024  0.53001123  0.31743687  1  1.650014  0.001158  0.218032  0.640505  0.000752  4.212491  0.001
C  C111  1  0.02056396  0.03000920  0.18256249  1  1.650049  0.001158  0.218071  0.640608  0.000752  4.212368  0.001
C  C112  1  0.52056378  0.46998909  0.68256274  1  1.650098  0.001158  0.218031  0.640485  0.000752  4.212492  0.001
C  C113  1  0.97943741  0.96998883  0.81743752  1  1.650087  0.001158  0.218036  0.640453  0.000752  4.212551  0.001
C  C114  1  0.44520519  0.29473040  0.49723894  1  0.50909  -0.000161  0.10845  0.059056  -0.001074  3.950423  0.0
C  C115  1  0.05479265  0.79472716  0.00275989  1  0.509124  -0.000162  0.108444  0.058946  -0.001074  3.950606  0.0
C  C116  1  0.55479096  0.70527525  0.50275978  1  0.509199  -0.000163  0.108479  0.058984  -0.001074  3.950514  0.0
C  C117  1  0.94520878  0.20527240  0.99723855  1  0.509134  -0.000162  0.108507  0.059111  -0.001074  3.950483  0.0
C  C118  1  0.45443357  0.18886705  0.49337035  1  -0.058729  0.002526  0.004185  -0.059108  0.001754  3.909847  0.001
C  C119  1  0.04556250  0.68886457  0.00663112  1  -0.058725  0.002527  0.004109  -0.059258  0.001754  3.909834  0.001
C  C120  1  0.54556080  0.81113783  0.50662881  1  -0.058711  0.002527  0.004118  -0.059303  0.001754  3.909937  0.001
C  C121  1  0.95443797  0.31113498  0.99336938  1  -0.058731  0.002526  0.004088  -0.059374  0.001753  3.909933  0.001
C  C122  1  0.56728122  0.14631869  0.49659065  1  0.063161  -0.003126  -0.065988  -0.056907  -0.003649  3.905323  -0.002
C  C123  1  0.93271478  0.64631751  0.00340892  1  0.063155  -0.003126  -0.065935  -0.056738  -0.003649  3.905061  -0.002
C  C124  1  0.43271307  0.85368620  0.50341061  1  0.063103  -0.003126  -0.065963  -0.056804  -0.003649  3.905123  -0.002
C  C125  1  0.06728577  0.35368280  0.99658948  1  0.063159  -0.003126  -0.065949  -0.056701  -0.003649  3.905062  -0.002
C  C126  1  0.66495204  0.20962758  0.50259393  1  0.038918  0.005728  -0.068489  -0.093164  0.003879  3.940953  0.005
C  C127  1  0.83504500  0.70962708  0.99740585  1  0.038864  0.005728  -0.06852  -0.093204  0.003878  3.941051  0.005
C  C128  1  0.33504317  0.79037654  0.49740633  1  0.038911  0.005728  -0.068557  -0.093255  0.003878  3.941251  0.005
C  C129  1  0.16495557  0.29037248  0.00259202  1  0.038817  0.005728  -0.068513  -0.093245  0.003878  3.941066  0.005
C  C130  1  0.64906401  0.31498270  0.50476302  1  0.439097  -0.001263  0.066346  0.121001  -0.001784  3.878501  -0.001
C  C131  1  0.85093471  0.81498143  0.99523622  1  0.439142  -0.001264  0.066354  0.120999  -0.001784  3.878608  -0.001
C  C132  1  0.35093207  0.68502295  0.49523727  1  0.439105  -0.001263  0.066332  0.120943  -0.001783  3.878799  -0.001
C  C133  1  0.14906671  0.18501889  0.00476222  1  0.439079  -0.001263  0.066327  0.121001  -0.001783  3.878596  -0.001
C  C134  1  0.33035500  0.35134013  0.49785318  1  1.601333  -0.001222  0.209591  0.544705  -0.000922  4.2241  -0.001
C  C135  1  0.16964188  0.85133682  0.00214661  1  1.601212  -0.001222  0.209776  0.544981  -0.000922  4.223538  -0.001
C  C136  1  0.66964197  0.64866552  0.50214716  1  1.601479  -0.001222  0.209621  0.544798  -0.000922  4.223639  -0.001
C  C137  1  0.83035862  0.14866273  0.99785336  1  1.601376  -0.001221  0.209709  0.544867  -0.000922  4.223779  -0.001
C  C138  1  0.34836801  0.12072043  0.48321508  1  1.624592  0.001526  0.229508  0.635299  0.001099  4.184389  0.001
C  C139  1  0.15162991  0.62071787  0.01678547  1  1.624764  0.001526  0.22949  0.635367  0.001099  4.184201  0.001
C  C140  1  0.65162720  0.87928446  0.51678517  1  1.624546  0.001526  0.229512  0.635435  0.001099  4.184305  0.001
C  C141  1  0.84837231  0.37928245  0.98321510  1  1.624547  0.001525  0.229523  0.635458  0.001099  4.184182  0.001
C  C142  1  0.72552183  0.11231595  0.33126582  1  0.501331  2e-06  0.105332  0.04767  -0.000645  3.94131  0.0
C  C143  1  0.77447766  0.61231608  0.16873552  1  0.501331  2e-06  0.105373  0.04767  -0.000645  3.941476  0.0
C  C144  1  0.27448129  0.88768284  0.66873427  1  0.501406  2e-06  0.105291  0.047642  -0.000645  3.941248  0.0
C  C145  1  0.22552102  0.38768423  0.83126595  1  0.50136  2e-06  0.10531  0.047669  -0.000645  3.941261  0.0
C  C146  1  0.72108899  0.21902432  0.33435232  1  -0.042514  0.003393  0.011153  -0.037934  0.002358  3.865102  0.003
C  C147  1  0.77890955  0.71902445  0.16564835  1  -0.042718  0.003393  0.011088  -0.037988  0.002358  3.865073  0.003
C  C148  1  0.27891417  0.78097371  0.66564672  1  -0.042713  0.003393  0.011137  -0.037922  0.002358  3.864965  0.003
C  C149  1  0.22108909  0.28097586  0.83435416  1  -0.042589  0.003393  0.011199  -0.03789  0.002358  3.864968  0.003
C  C150  1  0.60990215  0.26455275  0.32437149  1  -0.026844  -0.003581  -0.062742  -0.060275  -0.004122  3.916766  -0.002
C  C151  1  0.89009546  0.76455356  0.17562963  1  -0.026848  -0.003581  -0.062771  -0.060275  -0.004122  3.916755  -0.002
C  C152  1  0.39010014  0.73544528  0.67562751  1  -0.026871  -0.003581  -0.062673  -0.060255  -0.004122  3.916729  -0.002
C  C153  1  0.10990408  0.23544599  0.82437240  1  -0.026953  -0.003581  -0.06279  -0.0603  -0.004122  3.916684  -0.002
C  C154  1  0.51023690  0.20506742  0.31347420  1  0.017899  0.005849  -0.071474  -0.10168  0.003949  3.93463  0.005
C  C155  1  0.98976163  0.70506816  0.18652701  1  0.017752  0.005848  -0.071455  -0.101675  0.003949  3.934507  0.005
C  C156  1  0.48976533  0.79492985  0.68652637  1  0.017708  0.005848  -0.071507  -0.101711  0.003949  3.934731  0.005
C  C157  1  0.01023796  0.29493063  0.81347345  1  0.017745  0.005849  -0.071442  -0.101667  0.003949  3.934612  0.005
C  C158  1  0.52218635  0.09923988  0.31126533  1  0.485749  -0.001615  0.058328  0.108606  -0.002099  3.908571  -0.001
C  C159  1  0.97781318  0.59924062  0.18873497  1  0.485748  -0.001615  0.058297  0.108534  -0.002099  3.908571  -0.001
C  C160  1  0.47781583  0.90075739  0.68873629  1  0.485729  -0.001615  0.058399  0.108684  -0.002099  3.908618  -0.001
C  C161  1  0.02218472  0.40075817  0.81126383  1  0.485725  -0.001615  0.058361  0.108653  -0.002099  3.908531  -0.001
C  C162  1  0.83511606  0.05006460  0.33867047  1  1.58618  -0.000883  0.230036  0.581509  -0.000811  4.161541  -0.001
C  C163  1  0.66488350  0.55006481  0.16133040  1  1.586175  -0.000883  0.230037  0.581501  -0.000812  4.161632  -0.001
C  C164  1  0.16488630  0.94993496  0.66132643  1  1.586128  -0.000882  0.229966  0.581389  -0.000811  4.161662  -0.001
C  C165  1  0.33511516  0.44993627  0.83867159  1  1.586113  -0.000883  0.230071  0.581484  -0.000811  4.161586  -0.001
C  C166  1  0.82685505  0.28808377  0.35006404  1  1.670374  0.001104  0.200183  0.587996  0.000819  4.265693  0.001
C  C167  1  0.67314345  0.78808553  0.14993605  1  1.670651  0.001104  0.200304  0.588112  0.000819  4.265369  0.001
C  C168  1  0.17314808  0.71191197  0.64993605  1  1.670604  0.001104  0.200201  0.587953  0.000819  4.265598  0.001
C  C169  1  0.32685610  0.21191555  0.85006545  1  1.670612  0.001104  0.200268  0.588136  0.000819  4.265269  0.001
N  N170  1  0.68383399  0.75980412  0.33963048  1  -1.208377  0.085395  -0.349295  -0.24891  0.055971  3.671831  0.073
N  N171  1  0.81616892  0.25980349  0.16036983  1  -1.208431  0.085396  -0.349349  -0.248925  0.055972  3.671852  0.073
N  N172  1  0.31616740  0.24019391  0.66036900  1  -1.208497  0.085396  -0.349392  -0.249032  0.055972  3.671867  0.073
N  N173  1  0.18383151  0.74019378  0.83963171  1  -1.20852  0.085398  -0.349367  -0.248973  0.055973  3.671893  0.073
N  N174  1  0.54122022  0.35493199  0.50231675  1  -1.198668  0.079074  -0.347955  -0.238989  0.052078  3.658185  0.068
N  N175  1  0.95877931  0.85492912  0.99768354  1  -1.198726  0.079073  -0.347903  -0.238817  0.052077  3.658212  0.068
N  N176  1  0.45877582  0.64507366  0.49768459  1  -1.198762  0.079072  -0.347933  -0.238829  0.052077  3.658183  0.068
N  N177  1  0.04122299  0.14506967  0.00231494  1  -1.198647  0.079072  -0.347936  -0.238909  0.052077  3.658177  0.068
N  N178  1  0.62733422  0.05481021  0.31975397  1  -1.219557  0.080234  -0.347232  -0.257773  0.052642  3.65849  0.069
N  N179  1  0.87266533  0.55481103  0.18024689  1  -1.219545  0.080231  -0.347246  -0.257747  0.05264  3.65852  0.069
N  N180  1  0.37266889  0.94518782  0.68024664  1  -1.21951  0.080232  -0.347238  -0.257816  0.052641  3.658413  0.069
N  N181  1  0.12733253  0.44518776  0.81975295  1  -1.219505  0.080233  -0.347276  -0.257877  0.052642  3.658463  0.069
O  O182  1  0.48719319  0.86403235  0.32645957  1  -1.122485  0.094302  -0.312529  -0.537491  0.059477  2.354318  0.087
O  O183  1  0.01280980  0.36403035  0.17354100  1  -1.122378  0.094304  -0.312491  -0.537491  0.059479  2.354254  0.087
O  O184  1  0.51280912  0.13596720  0.67353890  1  -1.122477  0.094305  -0.312511  -0.53744  0.059479  2.354392  0.087
O  O185  1  0.98719235  0.63596768  0.82646167  1  -1.122447  0.094303  -0.312505  -0.537495  0.059477  2.354358  0.087
O  O186  1  0.04624993  0.89295145  0.35873636  1  -1.219557  0.001492  -0.620287  -0.830768  0.000896  2.027978  0.001
O  O187  1  0.45374952  0.39295229  0.14126403  1  -1.219574  0.001492  -0.620256  -0.830737  0.000896  2.028014  0.001
O  O188  1  0.95375222  0.10704735  0.64126631  1  -1.219472  0.001492  -0.620318  -0.830716  0.000896  2.028178  0.001
O  O189  1  0.54625011  0.60704955  0.85873538  1  -1.219538  0.001492  -0.620304  -0.830815  0.000896  2.02806  0.001
O  O190  1  0.37643234  0.72382710  0.33419542  1  -1.160571  0.023486  -0.291084  -0.496871  0.014638  2.19399  0.02
O  O191  1  0.12356986  0.22382581  0.16580577  1  -1.160571  0.023488  -0.291083  -0.496892  0.01464  2.193939  0.02
O  O192  1  0.62357080  0.27617169  0.66580415  1  -1.160567  0.023487  -0.291034  -0.496791  0.014639  2.194014  0.02
O  O193  1  0.87642876  0.77617222  0.83419726  1  -1.160611  0.023486  -0.291088  -0.496896  0.014638  2.194008  0.02
O  O194  1  0.11369518  0.01490059  0.47536238  1  -1.289369  0.000162  -0.642388  -0.874598  8.2e-05  2.066025  0.0
O  O195  1  0.38630462  0.51490092  0.02463731  1  -1.289368  0.000162  -0.642423  -0.87465  8.2e-05  2.065955  0.0
O  O196  1  0.88629560  0.98510354  0.52463872  1  -1.289201  0.000162  -0.642425  -0.874682  8.2e-05  2.065923  0.0
O  O197  1  0.61370384  0.48510396  0.97536093  1  -1.289222  0.000162  -0.642455  -0.874681  8.2e-05  2.065949  0.0
O  O198  1  0.09447659  0.23157406  0.39991745  1  -1.31797  0.00045  -0.65315  -0.894854  0.000277  2.048073  0.0
O  O199  1  0.40552039  0.73157348  0.10008244  1  -1.317983  0.00045  -0.653149  -0.8949  0.000277  2.048056  0.0
O  O200  1  0.90552125  0.76842625  0.60008292  1  -1.31797  0.00045  -0.653159  -0.894878  0.000277  2.048028  0.0
O  O201  1  0.59447925  0.26842683  0.89991697  1  -1.317991  0.00045  -0.653141  -0.894889  0.000277  2.048025  0.0
O  O202  1  0.46079291  0.46809590  0.36524325  1  -1.151595  0.001127  -0.311589  -0.554227  0.000206  2.160608  0.002
O  O203  1  0.03921537  0.96809852  0.13475433  1  -1.151679  0.001127  -0.311583  -0.554216  0.000206  2.160507  0.002
O  O204  1  0.53921735  0.53189831  0.63475402  1  -1.151647  0.001127  -0.311601  -0.554242  0.000206  2.160631  0.002
O  O205  1  0.96078163  0.03189951  0.86524496  1  -1.15168  0.001127  -0.311578  -0.554201  0.000206  2.160651  0.002
O  O206  1  0.42010461  0.53556529  0.25825872  1  -1.218296  0.001687  -0.440325  -0.734952  0.00109  2.365803  0.001
O  O207  1  0.07989245  0.03556083  0.24174345  1  -1.218352  0.001687  -0.440388  -0.735045  0.00109  2.365724  0.001
O  O208  1  0.57989141  0.46443579  0.74174314  1  -1.21836  0.001687  -0.440345  -0.734972  0.00109  2.365743  0.001
O  O209  1  0.92010888  0.96443110  0.75825761  1  -1.218324  0.001687  -0.44035  -0.734941  0.00109  2.365805  0.001
O  O210  1  0.22778477  0.20257131  0.29097332  1  -1.255295  -3.7e-05  -0.626497  -0.825729  -6.8e-05  2.03689  0.0
O  O211  1  0.27221396  0.70257290  0.20902720  1  -1.255304  -3.7e-05  -0.626496  -0.825765  -6.8e-05  2.036877  0.0
O  O212  1  0.77221395  0.79742900  0.70902709  1  -1.255326  -3.7e-05  -0.626512  -0.825778  -6.8e-05  2.036866  0.0
O  O213  1  0.72778651  0.29742970  0.79097329  1  -1.255313  -3.7e-05  -0.626479  -0.825749  -6.8e-05  2.03697  0.0
O  O214  1  0.33727894  0.44884468  0.50101836  1  -1.06879  0.105597  -0.315884  -0.509754  0.066603  2.321972  0.096
O  O215  1  0.16271906  0.94884198  0.99897845  1  -1.068608  0.105601  -0.315986  -0.509825  0.066605  2.321656  0.096
O  O216  1  0.66271814  0.55116097  0.49897883  1  -1.068721  0.105594  -0.315955  -0.509779  0.0666  2.321624  0.096
O  O217  1  0.83728065  0.05115757  0.00101886  1  -1.0687  0.105593  -0.315983  -0.509832  0.0666  2.321757  0.096
O  O218  1  0.27341138  0.95243984  0.30687895  1  -1.301984  0.001489  -0.633507  -0.858426  0.000869  2.066878  0.001
O  O219  1  0.22658889  0.45243844  0.19312142  1  -1.302207  0.001489  -0.633547  -0.85852  0.00087  2.066798  0.001
O  O220  1  0.72658995  0.04756047  0.69312211  1  -1.302171  0.001489  -0.633549  -0.858478  0.000869  2.066923  0.001
O  O221  1  0.77341162  0.54755959  0.80687802  1  -1.302164  0.001489  -0.63358  -0.858554  0.00087  2.066748  0.001
O  O222  1  0.23701182  0.30110357  0.49829324  1  -1.180097  0.017154  -0.297166  -0.512115  0.010515  2.215881  0.014
O  O223  1  0.26298603  0.80110097  0.00170506  1  -1.180099  0.017154  -0.297246  -0.512269  0.010515  2.215676  0.014
O  O224  1  0.76298259  0.69890361  0.50170488  1  -1.180226  0.017152  -0.297159  -0.51217  0.010514  2.215675  0.014
O  O225  1  0.73701628  0.19890011  0.99829342  1  -1.180172  0.017153  -0.29721  -0.512211  0.010515  2.215801  0.014
O  O226  1  0.31059929  0.07494284  0.53608573  1  -1.170586  0.001527  -0.30429  -0.577229  0.000518  2.24533  0.002
O  O227  1  0.18939801  0.57493943  0.96391506  1  -1.17075  0.001528  -0.304243  -0.577199  0.000518  2.245247  0.002
O  O228  1  0.68939155  0.92506433  0.46391380  1  -1.170543  0.001528  -0.304209  -0.577229  0.000518  2.245144  0.002
O  O229  1  0.81060681  0.42506164  0.03608669  1  -1.170515  0.001528  -0.304222  -0.577246  0.000518  2.245155  0.002
O  O230  1  0.30968014  0.10772360  0.41978499  1  -1.198287  0.001521  -0.405111  -0.663103  0.000938  2.271033  0.001
O  O231  1  0.19031691  0.60771937  0.08021554  1  -1.198311  0.001521  -0.405116  -0.663165  0.000938  2.270906  0.001
O  O232  1  0.69031951  0.89228052  0.58021389  1  -1.198308  0.001521  -0.405138  -0.663154  0.000938  2.271062  0.001
O  O233  1  0.80968177  0.39227942  0.91978592  1  -1.198305  0.001521  -0.405138  -0.663164  0.000938  2.270984  0.001
O  O234  1  0.82315705  0.95244652  0.33147250  1  -1.130847  0.082961  -0.304327  -0.52831  0.052653  2.351168  0.076
O  O235  1  0.67684306  0.45244595  0.16852752  1  -1.130845  0.08296  -0.304338  -0.52832  0.052653  2.351146  0.076
O  O236  1  0.17684702  0.04755227  0.66852553  1  -1.130765  0.08296  -0.304343  -0.52831  0.052653  2.351187  0.076
O  O237  1  0.32315388  0.54755437  0.83147334  1  -1.130836  0.08296  -0.304403  -0.528375  0.052653  2.351168  0.076
O  O238  1  0.93260605  0.09227762  0.35099581  1  -1.179881  0.014209  -0.373547  -0.612684  0.008862  2.373309  0.012
O  O239  1  0.56739258  0.59227638  0.14900551  1  -1.179869  0.014209  -0.373519  -0.612669  0.008862  2.373377  0.012
O  O240  1  0.06739544  0.90772346  0.64900106  1  -1.179849  0.01421  -0.373503  -0.61263  0.008863  2.3734  0.012
O  O241  1  0.43260606  0.40772469  0.85099700  1  -1.17983  0.014209  -0.373526  -0.612674  0.008862  2.37335  0.012
O  O242  1  0.85188552  0.34932552  0.30212787  1  -1.180233  0.003595  -0.337704  -0.600075  0.001719  2.181532  0.004
O  O243  1  0.64811828  0.84933329  0.19786979  1  -1.180322  0.003594  -0.337759  -0.600107  0.001719  2.181408  0.004
O  O244  1  0.14812202  0.65066718  0.69787138  1  -1.180266  0.003594  -0.337727  -0.60008  0.001718  2.181545  0.004
O  O245  1  0.35188127  0.15066779  0.80213172  1  -1.180236  0.003594  -0.337787  -0.600176  0.001719  2.181326  0.004
O  O246  1  0.87556362  0.28043963  0.41133313  1  -1.178919  0.002312  -0.329223  -0.561432  0.001435  2.139479  0.002
O  O247  1  0.62443309  0.78043696  0.08866793  1  -1.178925  0.002312  -0.32926  -0.561467  0.001435  2.139454  0.002
O  O248  1  0.12443506  0.71956144  0.58866833  1  -1.178883  0.002311  -0.329224  -0.561395  0.001435  2.139452  0.002
O  O249  1  0.37556646  0.21956412  0.91133357  1  -1.179  0.002311  -0.329252  -0.561504  0.001435  2.139355  0.002
