# generated using pymatgen
data_ZnH14C22N3(O2F)2
_symmetry_space_group_name_H-M   'P 1'
_cell_length_a   15.97287502
_cell_length_b   17.36771130
_cell_length_c   17.91980982
_cell_angle_alpha   90.25197488
_cell_angle_beta   93.13144880
_cell_angle_gamma   96.09998168
_symmetry_Int_Tables_number   1
_chemical_formula_structural   ZnH14C22N3(O2F)2
_chemical_formula_sum   'Zn2 H28 C44 N6 O8 F4'
_cell_volume   4935.38707889
_cell_formula_units_Z   2
loop_
 _symmetry_equiv_pos_site_id
 _symmetry_equiv_pos_as_xyz
  1  'x, y, z'
loop_
 _atom_site_type_symbol
 _atom_site_label
 _atom_site_symmetry_multiplicity
 _atom_site_fract_x
 _atom_site_fract_y
 _atom_site_fract_z
 _atom_site_occupancy
 _atom_site_pbe_bader_charge
 _atom_site_pbe_bader_spin_density
 _atom_site_pbe_cm5_charge
 _atom_site_pbe_ddec_charge
 _atom_site_pbe_ddec_spin_density
 _atom_site_pbe_ddec_sum_bond_order
 _atom_site_pbe_magmom
Zn  Zn0  1  0.41268693  0.49759531  0.49543661  1  1.288204  0  0.665637  0.83633  0  2.412111  0
Zn  Zn1  1  0.58729189  0.50239444  0.50454113  1  1.287717  0  0.665573  0.836198  0  2.412304  0
H  H2  1  0.71423137  0.42662786  0.42653794  1  0.158415  0  0.136879  0.116562  0  0.961003  0
H  H3  1  0.87294474  0.42676885  0.42660911  1  0.102202  0  0.119932  0.131564  0  1.000893  0
H  H4  1  0.89249476  0.60204514  0.60094292  1  0.138034  0  0.131358  0.164887  0  0.963721  0
H  H5  1  0.10747458  0.39797999  0.39904795  1  0.138472  0  0.131326  0.164888  0  0.963965  0
H  H6  1  0.12704383  0.57325398  0.57338636  1  0.101662  0  0.119939  0.131501  0  1.001125  0
H  H7  1  0.28575460  0.57338451  0.57344848  1  0.159662  0  0.137  0.116773  0  0.960744  0
H  H8  1  0.61910173  0.25948151  0.50522755  1  0.142497  0  0.106405  0.112692  0  0.99867  0
H  H9  1  0.61401616  0.11414313  0.50509060  1  0.105771  0  0.105273  0.109351  0  1.018774  0
H  H10  1  0.34268498  0.09921071  0.49355598  1  0.10213  0  0.115587  0.141308  0  0.983643  0
H  H11  1  0.65731073  0.90078752  0.50651895  1  0.102645  0  0.115614  0.141264  0  0.983635  0
H  H12  1  0.38597895  0.88585046  0.49498039  1  0.105532  0  0.105374  0.109365  0  1.018551  0
H  H13  1  0.38089865  0.74051142  0.49482410  1  0.142365  0  0.106251  0.112624  0  0.998765  0
H  H14  1  0.36296555  0.49437154  0.73227942  1  0.070589  0  0.100109  0.110142  0  1.010053  0
H  H15  1  0.63210255  0.50508876  0.74227902  1  0.111685  0  0.101048  0.113856  0  1.004389  0
H  H16  1  0.36786704  0.49488651  0.25769612  1  0.111724  0  0.101006  0.112651  0  1.006011  0
H  H17  1  0.63699098  0.50533701  0.26775552  1  0.072391  0  0.100115  0.110042  0  1.010214  0
H  H18  1  0.69391828  0.45641888  0.87820432  1  0.034754  0  0.094068  0.130158  0  0.986804  0
H  H19  1  0.65337301  0.50628048  0.95270419  1  0.024261  0  0.086234  0.120998  0  1.061738  0
H  H20  1  0.70116039  0.55889519  0.87856207  1  0.035948  0  0.093879  0.129732  0  0.987938  0
H  H21  1  0.30477336  0.54307173  0.86406253  1  0.020268  0  0.092532  0.127954  0  0.989786  0
H  H22  1  0.34759771  0.49353646  0.94119129  1  0.039191  0  0.086076  0.120374  0  1.064153  0
H  H23  1  0.29781302  0.44053400  0.86309322  1  0.019825  0  0.093956  0.130512  0  0.987109  0
H  H24  1  0.70199635  0.55942428  0.13653168  1  0.023761  0  0.093998  0.130636  0  0.987794  0
H  H25  1  0.65238255  0.50563868  0.05882275  1  0.037389  0  0.086521  0.120759  0  1.063698  0
H  H26  1  0.69545740  0.45690590  0.13637757  1  0.019882  0  0.092598  0.127935  0  0.989359  0
H  H27  1  0.29900908  0.44078259  0.12100397  1  0.037225  0  0.093994  0.129762  0  0.987986  0
H  H28  1  0.34666681  0.49418123  0.04727732  1  0.025229  0  0.086404  0.12113  0  1.060945  0
H  H29  1  0.30585951  0.54324405  0.12216499  1  0.034842  0  0.093965  0.129937  0  0.987461  0
C  C30  1  0.49442303  0.34830706  0.49950213  1  1.602837  0  0.215384  0.610726  0  4.170607  0
C  C31  1  0.50383949  0.50009417  0.35429248  1  1.575231  0  0.213899  0.596846  0  4.155826  0
C  C32  1  0.50557737  0.65168332  0.50048868  1  1.602306  0  0.215415  0.610316  0  4.170892  0
C  C33  1  0.49611420  0.49981802  0.64569423  1  1.574499  0  0.214323  0.597522  0  4.155338  0
C  C34  1  0.75716515  0.46384284  0.46387162  1  0.444314  0  0.069784  0.140803  0  3.890833  0
C  C35  1  0.84383597  0.46417815  0.46402965  1  0.042235  0  -0.076979  -0.208464  0  3.924848  0
C  C36  1  0.89390531  0.51461658  0.51421729  1  0.404196  0  0.109223  0.228437  0  4.034849  0
C  C37  1  0.85552451  0.56237619  0.56169289  1  0.010794  0  -0.069478  -0.296392  0  3.885411  0
C  C38  1  0.76785201  0.55687793  0.55674419  1  1.156746  0  0.254423  0.463099  0  4.048702  0
C  C39  1  0.14444628  0.43765701  0.43829079  1  0.010095  0  -0.069465  -0.296577  0  3.885906  0
C  C40  1  0.10606955  0.48541317  0.48577211  1  0.403197  0  0.109079  0.228243  0  4.034835  0
C  C41  1  0.15614686  0.53584408  0.53596337  1  0.042378  0  -0.077001  -0.208356  0  3.924794  0
C  C42  1  0.24281766  0.53617474  0.53611470  1  0.444088  0  0.069652  0.140734  0  3.890436  0
C  C43  1  0.23211767  0.44314600  0.44323720  1  1.159357  0  0.254527  0.463157  0  4.048075  0
C  C44  1  0.48562191  0.26128026  0.49925978  1  0.036712  0  -0.017936  -0.133966  0  3.917921  0
C  C45  1  0.55923185  0.22287494  0.50253909  1  -0.029385  0  -0.080186  -0.058531  0  3.990857  0
C  C46  1  0.55670729  0.14299722  0.50256002  1  -0.060327  0  -0.091713  -0.164793  0  3.972435  0
C  C47  1  0.47795600  0.09785962  0.49923351  1  0.353248  0  0.089168  0.199129  0  4.05763  0
C  C48  1  0.40362130  0.13410541  0.49605883  1  0.0965  0  -0.090618  -0.273189  0  3.950127  0
C  C49  1  0.40822618  0.21442573  0.49608861  1  0.362762  0  0.108182  0.293592  0  4.028014  0
C  C50  1  0.59637668  0.86588868  0.50399162  1  0.09668  0  -0.090647  -0.273424  0  3.950459  0
C  C51  1  0.52204148  0.90213618  0.50081189  1  0.352627  0  0.089154  0.199254  0  4.05776  0
C  C52  1  0.44329156  0.85699804  0.49749716  1  -0.059758  0  -0.091947  -0.165014  0  3.972185  0
C  C53  1  0.44076787  0.77711911  0.49750249  1  -0.028166  0  -0.07986  -0.058217  0  3.990465  0
C  C54  1  0.51437731  0.73871253  0.50075778  1  0.02225  0  -0.018098  -0.134174  0  3.917972  0
C  C55  1  0.59177391  0.78556713  0.50394461  1  0.376363  0  0.108236  0.293905  0  4.028296  0
C  C56  1  0.49741632  0.49981598  0.72927616  1  -0.100908  0  -0.019631  -0.019401  0  4.018462  0
C  C57  1  0.42213876  0.49687846  0.76595550  1  -0.042982  0  -0.093717  -0.175121  0  3.978387  0
C  C58  1  0.42154028  0.49674656  0.84364061  1  0.033615  0  -0.003894  0.133719  0  3.945541  0
C  C59  1  0.49960470  0.49981227  0.88647508  1  0.067273  0  -0.002581  0.014896  0  4.026909  0
C  C60  1  0.57659120  0.50289399  0.84949852  1  -0.064545  0  -0.002437  0.134152  0  3.94315  0
C  C61  1  0.57385696  0.50274669  0.77164025  1  0.045514  0  -0.092088  -0.171751  0  3.96717  0
C  C62  1  0.50024499  0.49980721  0.96581863  1  -0.077156  0  -0.040618  -0.096864  0  4.128073  0
C  C63  1  0.49976721  0.49986760  0.03417865  1  -0.30171  0  -0.040128  -0.095198  0  4.128105  0
C  C64  1  0.50039409  0.49994130  0.11352355  1  0.066961  0  -0.002348  0.014549  0  4.027343  0
C  C65  1  0.42339823  0.49697013  0.15048548  1  -0.063819  0  -0.00304  0.134101  0  3.942956  0
C  C66  1  0.42611578  0.49715738  0.22834211  1  0.045593  0  -0.091768  -0.170775  0  3.968306  0
C  C67  1  0.50254540  0.50003542  0.27071294  1  -0.101076  0  -0.019521  -0.018868  0  4.017665  0
C  C68  1  0.57783780  0.50290874  0.23405578  1  -0.044511  0  -0.093995  -0.175532  0  3.979037  0
C  C69  1  0.57845727  0.50300589  0.15636801  1  0.027087  0  -0.00306  0.134821  0  3.945508  0
C  C70  1  0.66052796  0.50630019  0.89233231  1  -0.010298  0  -0.237317  -0.406253  0  3.979642  0
C  C71  1  0.33872836  0.49330546  0.88022439  1  -0.030558  0  -0.237274  -0.406012  0  3.980948  0
C  C72  1  0.66128193  0.50640939  0.11979523  1  -0.025541  0  -0.238177  -0.406919  0  3.98088  0
C  C73  1  0.33946926  0.49362700  0.10764207  1  -0.013543  0  -0.237437  -0.406231  0  3.978994  0
N  N74  1  0.71936477  0.50979611  0.51008996  1  -1.223105  0  -0.305655  -0.280489  0  3.447841  0
N  N75  1  0.98333047  0.52202707  0.52160427  1  -0.464826  0  -0.126958  -0.111045  0  3.217288  0
N  N76  1  0.01664568  0.47800212  0.47839132  1  -0.513382  0  -0.126598  -0.110154  0  3.216733  0
N  N77  1  0.28061193  0.49022376  0.48988944  1  -1.224275  0  -0.30566  -0.280648  0  3.447563  0
N  N78  1  0.46613534  0.01605816  0.49878682  1  -0.516057  0  -0.14856  -0.13478  0  3.268311  0
N  N79  1  0.53386130  0.98393646  0.50125297  1  -0.461659  0  -0.14862  -0.134961  0  3.268679  0
O  O80  1  0.42727001  0.38149770  0.49859041  1  -1.148513  0  -0.317795  -0.549616  0  2.361571  0
O  O81  1  0.56940498  0.38198416  0.50070187  1  -1.167003  0  -0.321463  -0.553291  0  2.304811  0
O  O82  1  0.57515481  0.49836178  0.38963846  1  -1.166821  0  -0.322038  -0.555143  0  2.323017  0
O  O83  1  0.43337581  0.50188616  0.38411888  1  -1.163728  0  -0.321566  -0.554244  0  2.345128  0
O  O84  1  0.57272395  0.61849596  0.50120037  1  -1.148711  0  -0.317815  -0.549322  0  2.361573  0
O  O85  1  0.43060374  0.61800166  0.49945722  1  -1.166322  0  -0.321368  -0.553045  0  2.304411  0
O  O86  1  0.42477910  0.50141723  0.61035059  1  -1.166512  0  -0.322052  -0.555184  0  2.322752  0
O  O87  1  0.56660689  0.49823912  0.61586431  1  -1.163713  0  -0.321867  -0.554792  0  2.345266  0
F  F88  1  0.72863048  0.60127507  0.60171971  1  -0.624151  0  -0.061091  -0.118403  0  1.344788  0
F  F89  1  0.27133206  0.39875346  0.39825194  1  -0.623886  0  -0.061153  -0.11841  0  1.344588  0
F  F90  1  0.33364847  0.24552109  0.49272182  1  -0.626118  0  -0.107937  -0.145155  0  1.347274  0
F  F91  1  0.66635132  0.75446776  0.50732198  1  -0.626665  0  -0.107942  -0.145184  0  1.347365  0
