# generated using pymatgen
data_CuNiH6C10(SN)4
_symmetry_space_group_name_H-M   'P 1'
_cell_length_a   6.85527801
_cell_length_b   6.85497739
_cell_length_c   16.12738005
_cell_angle_alpha   90.01079522
_cell_angle_beta   90.00000937
_cell_angle_gamma   90.00270260
_symmetry_Int_Tables_number   1
_chemical_formula_structural   CuNiH6C10(SN)4
_chemical_formula_sum   'Cu2 Ni2 H12 C20 S8 N8'
_cell_volume   757.87034048
_cell_formula_units_Z   2
loop_
 _symmetry_equiv_pos_site_id
 _symmetry_equiv_pos_as_xyz
  1  'x, y, z'
loop_
 _atom_site_type_symbol
 _atom_site_label
 _atom_site_symmetry_multiplicity
 _atom_site_fract_x
 _atom_site_fract_y
 _atom_site_fract_z
 _atom_site_occupancy
 _atom_site_pbe_cm5_charge
 _atom_site_pbe_ddec_charge
 _atom_site_pbe_ddec_spin_density
 _atom_site_pbe_ddec_sum_bond_order
 _atom_site_pbe_magmom
Cu  Cu0  1  0.50003971  0.50056348  0.24998127  1  0.705557  0.582213  -0.544515  2.233452  -0.423
Cu  Cu1  1  0.49999894  0.49937765  0.75001471  1  0.70533  0.58204  -0.543544  2.233707  -0.423
Ni  Ni2  1  0.50002392  0.99976449  0.99998169  1  0.283169  0.103844  0.119162  3.647017  0.08
Ni  Ni3  1  0.00000022  0.50009663  0.50001131  1  0.283274  0.103183  0.119128  3.647734  0.08
H  H4  1  0.49990833  0.18600056  0.38681920  1  0.105038  0.088619  -0.001902  1.045637  -0.002
H  H5  1  0.50001215  0.81531265  0.38687721  1  0.104843  0.088317  -0.001908  1.046117  -0.002
H  H6  1  0.49996377  0.18468246  0.61311629  1  0.10489  0.088383  -0.001899  1.045876  -0.002
H  H7  1  0.81473152  0.50070828  0.11310599  1  0.104904  0.088345  -0.001905  1.045937  -0.002
H  H8  1  0.81468496  0.49944610  0.88690800  1  0.10483  0.08835  -0.001897  1.046217  -0.002
H  H9  1  0.18533485  0.49951003  0.88690364  1  0.104813  0.08835  -0.001897  1.046212  -0.002
H  H10  1  0.18539162  0.50071386  0.11311588  1  0.104912  0.088512  -0.001906  1.046094  -0.002
H  H11  1  0.49995528  0.81398724  0.61312098  1  0.104912  0.088272  -0.001897  1.045872  -0.002
H  H12  1  0.99992037  0.99975827  0.35387242  1  0.139522  0.209916  7e-06  0.988948  0.0
H  H13  1  0.99996418  0.99944535  0.64616725  1  0.139833  0.210175  1.8e-05  0.987764  0.0
H  H14  1  0.99993200  0.99971944  0.14614556  1  0.139625  0.210036  7e-06  0.988849  0.0
H  H15  1  0.99997881  0.99945355  0.85389659  1  0.139704  0.209866  1.8e-05  0.988359  0.0
C  C16  1  0.50001140  0.10475950  0.18601954  1  0.111826  0.158735  -0.002174  4.035876  -0.002
C  C17  1  0.50002277  0.89606482  0.18607535  1  0.111175  0.158061  -0.002174  4.035107  -0.002
C  C18  1  0.49997358  0.10375231  0.81391132  1  0.111303  0.158196  -0.00218  4.03543  -0.002
C  C19  1  0.89569401  0.50138060  0.31391545  1  0.111373  0.158051  -0.002176  4.036679  -0.002
C  C20  1  0.89566632  0.49936404  0.68610167  1  0.111425  0.157639  -0.002174  4.037252  -0.002
C  C21  1  0.10433153  0.49937017  0.68610103  1  0.111346  0.15748  -0.002174  4.037209  -0.002
C  C22  1  0.10437527  0.50141737  0.31392100  1  0.111422  0.157454  -0.002175  4.037323  -0.002
C  C23  1  0.50005496  0.89507076  0.81392497  1  0.111514  0.158267  -0.002163  4.037319  -0.002
C  C24  1  0.49996468  0.10168855  0.32971108  1  0.027234  0.027108  -0.000208  3.965414  -0.001
C  C25  1  0.50000100  0.89955407  0.32974855  1  0.02702  0.026552  -0.000246  3.966495  -0.001
C  C26  1  0.49996909  0.10039728  0.67024185  1  0.026894  0.02654  -0.000211  3.96688  -0.001
C  C27  1  0.89899509  0.50111536  0.17023246  1  0.027315  0.027468  -0.000231  3.966612  -0.001
C  C28  1  0.89895579  0.49942519  0.82978155  1  0.027725  0.027518  -0.000206  3.966728  -0.001
C  C29  1  0.10105379  0.49945743  0.82978029  1  0.02774  0.027565  -0.000204  3.966673  -0.001
C  C30  1  0.10110330  0.50112864  0.17023677  1  0.027071  0.026276  -0.00023  3.967666  -0.001
C  C31  1  0.49998207  0.89829925  0.67024150  1  0.027345  0.027157  -0.000195  3.965711  -0.001
C  C32  1  0.99993348  0.99983106  0.28749152  1  -0.133547  -0.179797  0.000239  3.788419  0.0
C  C33  1  0.99996565  0.99935214  0.71255745  1  -0.133698  -0.179837  0.000278  3.788095  0.0
C  C34  1  0.99993785  0.99982462  0.21252646  1  -0.133224  -0.179454  0.000239  3.78832  0.0
C  C35  1  0.99997296  0.99935565  0.78750949  1  -0.133303  -0.179383  0.000278  3.788647  0.0
S  S36  1  0.50003614  0.22659922  0.09308309  1  -0.152728  -0.23089  0.009894  2.872338  0.008
S  S37  1  0.50001987  0.77361055  0.09326865  1  -0.151831  -0.230003  0.009942  2.875174  0.008
S  S38  1  0.49986415  0.22604320  0.90674902  1  -0.152312  -0.230631  0.009989  2.87553  0.008
S  S39  1  0.77355601  0.50091548  0.40679040  1  -0.152454  -0.230111  0.009909  2.872644  0.008
S  S40  1  0.77353121  0.49937117  0.59322235  1  -0.152244  -0.229792  0.009957  2.87293  0.008
S  S41  1  0.22646223  0.49935389  0.59322109  1  -0.152232  -0.229772  0.00996  2.873202  0.008
S  S42  1  0.22647973  0.50102803  0.40680278  1  -0.1524  -0.229918  0.009907  2.872863  0.008
S  S43  1  0.50017172  0.77305452  0.90682855  1  -0.152324  -0.230516  0.009946  2.871767  0.008
N  N44  1  0.49998165  0.20322073  0.25796821  1  -0.341607  -0.2306  -0.04296  3.608934  -0.056
N  N45  1  0.50003943  0.79785437  0.25805708  1  -0.341472  -0.229039  -0.043224  3.60872  -0.057
N  N46  1  0.49995983  0.20205613  0.74194448  1  -0.341334  -0.229134  -0.042884  3.608332  -0.057
N  N47  1  0.79736538  0.50113181  0.24194776  1  -0.341428  -0.230116  -0.043075  3.610142  -0.057
N  N48  1  0.79733043  0.49935290  0.75806748  1  -0.342002  -0.230366  -0.042919  3.610724  -0.057
N  N49  1  0.20267037  0.49939576  0.75806498  1  -0.341972  -0.23029  -0.042925  3.610396  -0.057
N  N50  1  0.20271116  0.50117176  0.24195456  1  -0.341314  -0.229179  -0.043098  3.610287  -0.057
N  N51  1  0.50002929  0.79669705  0.74196328  1  -0.341456  -0.229658  -0.042946  3.609538  -0.057
