# generated using pymatgen
data_Co3H64C72(N2O7)2
_symmetry_space_group_name_H-M   'P 1'
_cell_length_a   10.47782017
_cell_length_b   14.39390220
_cell_length_c   26.77836006
_cell_angle_alpha   86.01946334
_cell_angle_beta   78.75216657
_cell_angle_gamma   68.64429684
_symmetry_Int_Tables_number   1
_chemical_formula_structural   Co3H64C72(N2O7)2
_chemical_formula_sum   'Co6 H128 C144 N8 O28'
_cell_volume   3689.07212182
_cell_formula_units_Z   2
loop_
 _symmetry_equiv_pos_site_id
 _symmetry_equiv_pos_as_xyz
  1  'x, y, z'
loop_
 _atom_site_type_symbol
 _atom_site_label
 _atom_site_symmetry_multiplicity
 _atom_site_fract_x
 _atom_site_fract_y
 _atom_site_fract_z
 _atom_site_occupancy
 _atom_site_pbe_bader_charge
 _atom_site_pbe_bader_spin_density
 _atom_site_pbe_cm5_charge
 _atom_site_pbe_ddec_charge
 _atom_site_pbe_ddec_spin_density
 _atom_site_pbe_ddec_sum_bond_order
 _atom_site_pbe_magmom
Co  Co0  1  0.26440968  0.08451845  0.94441552  1  1.244281  2.563095  0.674428  0.882413  2.763969  2.486032  2.516
Co  Co1  1  0.29311560  0.41542104  0.55560715  1  1.243271  2.563303  0.67434  0.882172  2.763334  2.486762  2.516
Co  Co2  1  0.73559144  0.91548185  0.05558551  1  1.244257  2.563103  0.67444  0.882454  2.763973  2.48601  2.516
Co  Co3  1  0.70688192  0.58457776  0.44439432  1  1.243363  2.563298  0.674321  0.882096  2.763336  2.486793  2.516
Co  Co4  1  0.00000293  0.99999729  0.00000005  1  1.405278  2.637551  0.692209  1.131349  2.878004  2.399755  2.626
Co  Co5  1  0.99999925  0.50000078  0.50000081  1  1.407441  2.635691  0.691442  1.130858  2.875793  2.398856  2.625
H  H6  1  0.74885287  0.13903212  0.90036878  1  0.105119  0.000164  0.101244  0.102363  -3.1e-05  1.040414  0.0
H  H7  1  0.78806178  0.36076970  0.59962868  1  0.077374  0.000157  0.101597  0.10291  -3.5e-05  1.040188  0.0
H  H8  1  0.25114989  0.86096668  0.09963232  1  0.105146  0.000164  0.101268  0.102413  -3.1e-05  1.040396  0.0
H  H9  1  0.21194121  0.63922388  0.40036898  1  0.077667  0.000157  0.101605  0.102918  -3.5e-05  1.040251  0.0
H  H10  1  0.04027788  0.28208567  0.83936231  1  0.052707  0.000245  0.100814  0.099807  1.1e-05  1.010003  0.0
H  H11  1  0.16230090  0.21764476  0.66031708  1  0.056166  0.000246  0.100761  0.09975  1e-05  1.010715  0.0
H  H12  1  0.95972802  0.71790940  0.16063849  1  0.052745  0.000245  0.100814  0.099837  1.1e-05  1.010007  0.0
H  H13  1  0.83769939  0.78235106  0.33968409  1  0.056135  0.000246  0.100727  0.099691  1e-05  1.010786  0.0
H  H14  1  0.87870023  0.38538496  0.78253721  1  0.084757  0.000146  0.103847  0.107192  7e-05  0.989165  0.0
H  H15  1  0.04765442  0.11433043  0.71728917  1  0.093092  0.000141  0.103985  0.107992  6.8e-05  0.988746  0.0
H  H16  1  0.12130462  0.61461533  0.21746494  1  0.084834  0.000146  0.103845  0.107214  7e-05  0.989131  0.0
H  H17  1  0.95234033  0.88566986  0.28271334  1  0.09355  0.000141  0.103981  0.107967  6.8e-05  0.988832  0.0
H  H18  1  0.58789309  0.24051918  0.84349470  1  0.061663  0.000147  0.097971  0.099224  2e-05  1.00708  0.0
H  H19  1  0.67224586  0.25918006  0.65660617  1  0.066194  0.000146  0.09793  0.099074  2e-05  1.007543  0.0
H  H20  1  0.41211110  0.75948111  0.15650618  1  0.061595  0.000147  0.097939  0.099234  2e-05  1.006983  0.0
H  H21  1  0.32775458  0.74081426  0.34339172  1  0.066245  0.000146  0.097944  0.099119  2e-05  1.007547  0.0
H  H22  1  0.67115291  0.38460741  0.73799136  1  0.079448  -6.8e-05  0.103404  0.08895  -6.3e-05  1.011218  0.0
H  H23  1  0.79484167  0.11513211  0.76200375  1  0.048804  -9.8e-05  0.103115  0.088207  -8.9e-05  1.011713  0.0
H  H24  1  0.32885300  0.61538990  0.26200832  1  0.079479  -6.8e-05  0.103396  0.088931  -6.3e-05  1.011293  0.0
H  H25  1  0.20515825  0.88486520  0.23799705  1  0.048847  -9.8e-05  0.103096  0.088191  -8.9e-05  1.011761  0.0
H  H26  1  0.53476727  0.35685617  0.77930309  1  0.004058  5e-06  0.085788  0.051482  9e-06  0.990927  0.0
H  H27  1  0.67185145  0.14288667  0.72070757  1  -0.009771  8e-06  0.085985  0.051227  1e-05  0.990751  0.0
H  H28  1  0.46523639  0.64314338  0.22069772  1  0.00399  5e-06  0.085799  0.051425  9e-06  0.990902  0.0
H  H29  1  0.32814368  0.85711362  0.27929457  1  -0.009715  8e-06  0.085951  0.051202  1e-05  0.990757  0.0
H  H30  1  0.41852489  0.62822652  0.77829073  1  0.086341  0.00014  0.1093  0.097495  4.9e-05  0.973058  0.0
H  H31  1  0.82609247  0.87153347  0.72156085  1  0.049319  0.000147  0.109118  0.097489  5.2e-05  0.973199  0.0
H  H32  1  0.58148753  0.37177452  0.22171127  1  0.0864  0.00014  0.109318  0.097512  4.9e-05  0.973138  0.0
H  H33  1  0.17389921  0.12846458  0.27843808  1  0.049139  0.000147  0.109129  0.097474  5.2e-05  0.973157  0.0
H  H34  1  0.37654644  0.52517560  0.76439931  1  0.010401  3.1e-05  0.087566  0.05153  1.1e-05  0.991502  0.0
H  H35  1  0.66714732  0.97455471  0.73543998  1  -0.00014  2.8e-05  0.087655  0.052318  1e-05  0.99208  0.0
H  H36  1  0.62345811  0.47482843  0.23560418  1  0.010249  3.1e-05  0.087542  0.051516  1.1e-05  0.99149  0.0
H  H37  1  0.33284377  0.02544484  0.26455976  1  -0.000589  2.8e-05  0.087666  0.052338  1e-05  0.992087  0.0
H  H38  1  0.36243977  0.53736516  0.67865494  1  0.078135  0.000216  0.099433  0.104105  4.4e-05  1.010716  0.0
H  H39  1  0.57931851  0.96265878  0.82112120  1  0.067084  0.000215  0.099377  0.103817  4.3e-05  1.011698  0.0
H  H40  1  0.63755999  0.46263514  0.32134840  1  0.078103  0.000216  0.099402  0.104064  4.4e-05  1.01076  0.0
H  H41  1  0.42067287  0.03733928  0.17888094  1  0.067159  0.000215  0.099336  0.103727  4.3e-05  1.011692  0.0
H  H42  1  0.71349881  0.57449090  0.72405463  1  0.074048  0.000142  0.100675  0.102317  5e-05  1.006332  0.0
H  H43  1  0.01316414  0.92455695  0.77603849  1  0.072233  0.000142  0.10051  0.101211  5e-05  1.006237  0.0
H  H44  1  0.28650434  0.42551163  0.27594423  1  0.074068  0.000142  0.100683  0.102302  5e-05  1.006335  0.0
H  H45  1  0.98682926  0.07543514  0.22396073  1  0.0723  0.000142  0.10054  0.101269  5e-05  1.006125  0.0
H  H46  1  0.81608362  0.58737252  0.63221260  1  0.073451  7.1e-05  0.105982  0.111116  -0.000104  1.001142  0.0
H  H47  1  0.03661760  0.91166022  0.86791319  1  0.099948  6.4e-05  0.105709  0.110355  -0.000107  1.002753  0.0
H  H48  1  0.18391451  0.41263000  0.36778544  1  0.073996  7.1e-05  0.106007  0.111127  -0.000104  1.001268  0.0
H  H49  1  0.96338216  0.08833112  0.13208492  1  0.099816  6.4e-05  0.105699  0.110344  -0.000107  1.002783  0.0
H  H50  1  0.46147095  0.55357774  0.58863414  1  0.114502  0.000531  0.102199  0.107944  0.00011  1.049304  0.0
H  H51  1  0.60427563  0.94651482  0.91118863  1  0.115287  0.000534  0.102027  0.106694  0.000107  1.049055  0.0
H  H52  1  0.53852492  0.44642032  0.41136838  1  0.114413  0.000531  0.102236  0.108035  0.00011  1.04925  0.0
H  H53  1  0.39572167  0.05348697  0.08881254  1  0.115342  0.000533  0.101998  0.106557  0.000107  1.049109  0.0
H  H54  1  0.56613398  0.45058181  0.87070464  1  0.067103  -8.8e-05  0.103037  0.089493  -9e-05  1.008717  0.0
H  H55  1  0.88817283  0.04934285  0.62927373  1  0.055144  -6.2e-05  0.102927  0.088936  -6.9e-05  1.008442  0.0
H  H56  1  0.43387185  0.54941624  0.12929669  1  0.067128  -8.8e-05  0.103036  0.089515  -9e-05  1.008809  0.0
H  H57  1  0.11182073  0.95065745  0.37072706  1  0.055138  -6.2e-05  0.102898  0.088876  -6.9e-05  1.008478  0.0
H  H58  1  0.40096758  0.47771810  0.85388583  1  0.002202  8e-06  0.085524  0.049985  4e-06  1.011245  0.0
H  H59  1  0.73327119  0.02234885  0.64606041  1  0.015757  2.8e-05  0.085986  0.050393  1.5e-05  1.010649  0.0
H  H60  1  0.59903991  0.52228144  0.14611408  1  0.002025  8e-06  0.085517  0.050008  4e-06  1.011276  0.0
H  H61  1  0.26672424  0.97765070  0.35393889  1  0.015841  2.9e-05  0.08595  0.050375  1.5e-05  1.010548  0.0
H  H62  1  0.24009624  0.61194227  0.90283241  1  0.064271  5.8e-05  0.098142  0.09816  3.5e-05  1.024444  0.0
H  H63  1  0.75504746  0.88799516  0.59724177  1  0.034637  9.5e-05  0.098057  0.097795  5.1e-05  1.024924  0.0
H  H64  1  0.75991222  0.38805578  0.09716630  1  0.064212  5.8e-05  0.098148  0.098177  3.5e-05  1.024451  0.0
H  H65  1  0.24495065  0.11200140  0.40275925  1  0.034632  9.5e-05  0.098053  0.09775  5.1e-05  1.024998  0.0
H  H66  1  0.16349055  0.78505200  0.93609156  1  0.152434  0.0002  0.107498  0.128195  -9.3e-05  1.023398  0.0
H  H67  1  0.88453762  0.71475390  0.56409908  1  0.141536  0.00021  0.107531  0.12641  -8.8e-05  1.02515  0.0
H  H68  1  0.83650871  0.21494828  0.06390648  1  0.15206  0.0002  0.107503  0.128206  -9.3e-05  1.023515  0.0
H  H69  1  0.11546739  0.28524341  0.43590053  1  0.141444  0.00021  0.107522  0.126377  -8.8e-05  1.025182  0.0
H  H70  1  0.64206137  0.62401045  0.83654703  1  0.063496  6.2e-05  0.100138  0.098285  3e-05  1.018992  0.0
H  H71  1  0.10348708  0.87602963  0.66319285  1  0.060585  6.1e-05  0.100087  0.09761  3e-05  1.019212  0.0
H  H72  1  0.35794551  0.37598984  0.16345407  1  0.063889  6.2e-05  0.100137  0.098273  3e-05  1.018938  0.0
H  H73  1  0.89650769  0.12397514  0.33680743  1  0.060504  6.1e-05  0.100095  0.09757  3e-05  1.019269  0.0
H  H74  1  0.56480123  0.79832064  0.86904825  1  0.077264  0.000429  0.102771  0.105448  0.000185  1.027261  0.0
H  H75  1  0.23281852  0.70163417  0.63077456  1  0.101961  0.000421  0.102552  0.105761  0.000184  1.027905  0.0
H  H76  1  0.43520078  0.20167890  0.13095322  1  0.077274  0.000429  0.102747  0.105418  0.000185  1.027256  0.0
H  H77  1  0.76718417  0.29836985  0.36922594  1  0.10195  0.000421  0.102548  0.105809  0.000184  1.027904  0.0
H  H78  1  0.19926591  0.29056740  0.90640085  1  0.102321  0.001727  0.116079  0.088105  0.000358  1.019968  0.001
H  H79  1  0.39630454  0.20923789  0.59367034  1  0.072219  0.001746  0.116201  0.088249  0.000362  1.019194  0.001
H  H80  1  0.80072945  0.70943290  0.09360010  1  0.102326  0.001728  0.116077  0.088087  0.000358  1.01996  0.001
H  H81  1  0.60369553  0.79076389  0.40632904  1  0.072195  0.001747  0.11619  0.088226  0.000362  1.019182  0.001
H  H82  1  0.25349551  0.43579273  0.92853771  1  0.13074  0.000727  0.10865  0.113303  0.000315  1.033941  0.0
H  H83  1  0.61790615  0.06405261  0.57146509  1  0.090746  0.00078  0.108608  0.113835  0.000327  1.033566  0.0
H  H84  1  0.74650210  0.56420756  0.07146099  1  0.130689  0.000727  0.108662  0.113412  0.000315  1.033873  0.0
H  H85  1  0.38209250  0.93594768  0.42853452  1  0.090748  0.00078  0.108593  0.11379  0.000327  1.033608  0.0
H  H86  1  0.52593399  0.09081400  0.96926157  1  0.129962  0.002323  0.121861  0.098356  0.000874  1.004345  0.002
H  H87  1  0.58558093  0.40908927  0.53075568  1  0.140054  0.002307  0.122061  0.098632  0.000873  1.003796  0.002
H  H88  1  0.47406939  0.90918853  0.03073610  1  0.129934  0.002323  0.121867  0.09837  0.000873  1.004294  0.002
H  H89  1  0.41442183  0.59091177  0.46924430  1  0.140092  0.002307  0.122061  0.098676  0.000872  1.003799  0.002
H  H90  1  0.59487801  0.22619904  0.99296231  1  0.096448  0.000727  0.111482  0.123985  0.000227  1.007675  0.0
H  H91  1  0.81361949  0.27376134  0.50703305  1  0.103278  0.000738  0.111594  0.124372  0.000232  1.009326  0.0
H  H92  1  0.40512177  0.77380274  0.00703543  1  0.096409  0.000728  0.111471  0.123976  0.000227  1.007635  0.0
H  H93  1  0.18638252  0.72623895  0.49296805  1  0.103291  0.000737  0.111609  0.124363  0.000232  1.009288  0.0
H  H94  1  0.68272311  0.34372987  0.96323211  1  0.072102  1.6e-05  0.107827  0.121329  -1e-06  1.025239  0.0
H  H95  1  0.98955069  0.15630449  0.53679507  1  0.082873  7e-06  0.107924  0.121752  -1.2e-05  1.026036  0.0
H  H96  1  0.31727376  0.65627415  0.03676548  1  0.072047  1.6e-05  0.107844  0.121378  -1e-06  1.025203  0.0
H  H97  1  0.01044848  0.84369505  0.46320536  1  0.082871  6e-06  0.107917  0.121759  -1.2e-05  1.026019  0.0
H  H98  1  0.01824493  0.60102066  0.02752732  1  0.053398  -3.4e-05  0.10471  0.072333  -6.2e-05  0.992078  0.0
H  H99  1  0.64670932  0.89891098  0.47257271  1  0.050667  -3.4e-05  0.104604  0.071963  -6.1e-05  0.993473  0.0
H  H100  1  0.98175005  0.39897963  0.97247400  1  0.053427  -3.4e-05  0.104719  0.072365  -6.2e-05  0.99205  0.0
H  H101  1  0.35328463  0.10109528  0.52742473  1  0.050792  -3.3e-05  0.104596  0.071942  -6.1e-05  0.99347  0.0
H  H102  1  0.12674755  0.64605264  0.05426478  1  0.064272  -4.2e-05  0.097232  0.063314  -0.00011  1.02407  0.0
H  H103  1  0.82691783  0.85369958  0.44582841  1  0.058989  -4.4e-05  0.09737  0.0636  -0.000112  1.024074  0.0
H  H104  1  0.87324842  0.35395063  0.94573311  1  0.064325  -4.2e-05  0.097242  0.063301  -0.00011  1.024143  0.0
H  H105  1  0.17307866  0.14630369  0.55416993  1  0.05892  -4.4e-05  0.097385  0.063576  -0.000112  1.024099  0.0
H  H106  1  0.20466031  0.48905404  0.10448600  1  0.028705  0.0  0.08914  0.08781  1e-06  1.001077  0.0
H  H107  1  0.79805000  0.01063277  0.39554703  1  0.043026  -0.0  0.089127  0.087647  -1e-06  0.999962  0.0
H  H108  1  0.79534441  0.51095147  0.89551272  1  0.028802  0.0  0.089081  0.087652  1e-06  1.00099  0.0
H  H109  1  0.20194986  0.98937274  0.60445168  1  0.043017  -0.0  0.08915  0.087727  -1e-06  0.999963  0.0
H  H110  1  0.02261572  0.55003489  0.11782288  1  0.016769  1.9e-05  0.0902  0.085027  3e-06  0.99213  0.0
H  H111  1  0.69006880  0.94980791  0.38225083  1  0.022894  2.3e-05  0.09011  0.084856  5e-06  0.992478  0.0
H  H112  1  0.97738990  0.44996689  0.88217777  1  0.016662  1.9e-05  0.090197  0.084972  3e-06  0.992147  0.0
H  H113  1  0.30993129  0.05019686  0.61774706  1  0.023182  2.3e-05  0.090098  0.084847  5e-06  0.992484  0.0
H  H114  1  0.18408455  0.36588628  0.04945171  1  0.048105  -4.3e-05  0.086193  0.081054  -6.6e-05  0.992813  0.0
H  H115  1  0.59943773  0.13386123  0.45066871  1  0.022893  -4.1e-05  0.08618  0.08083  -6.5e-05  0.993209  0.0
H  H116  1  0.81592390  0.63411476  0.95055037  1  0.048177  -4.3e-05  0.086177  0.081081  -6.6e-05  0.992776  0.0
H  H117  1  0.40055711  0.86614279  0.54932992  1  0.023025  -4.1e-05  0.086166  0.08078  -6.5e-05  0.993273  0.0
H  H118  1  0.00465341  0.43291637  0.05309886  1  -0.004519  5e-06  0.083641  0.070011  8e-06  1.003348  0.0
H  H119  1  0.49053999  0.06703563  0.44688066  1  0.004966  1e-05  0.084356  0.071386  1.1e-05  1.004346  0.0
H  H120  1  0.99535482  0.56708317  0.94690030  1  -0.004324  5e-06  0.083641  0.069974  8e-06  1.003441  0.0
H  H121  1  0.50945836  0.93296540  0.55311692  1  0.004972  1e-05  0.084351  0.071358  1.1e-05  1.004325  0.0
H  H122  1  0.04539265  0.28472327  0.11159197  1  0.055335  5.8e-05  0.08411  0.118412  2e-06  1.02323  0.0
H  H123  1  0.44188804  0.21531893  0.38841988  1  0.056281  5.9e-05  0.083926  0.118436  2e-06  1.023783  0.0
H  H124  1  0.95461288  0.71527852  0.88841071  1  0.05556  5.8e-05  0.084116  0.118407  2e-06  1.023175  0.0
H  H125  1  0.55810665  0.78468435  0.61157830  1  0.056309  5.9e-05  0.083926  0.118427  2e-06  1.023862  0.0
H  H126  1  0.96104697  0.39709317  0.14722584  1  0.019858  1e-06  0.077124  0.097144  2e-06  1.019681  0.0
H  H127  1  0.50541360  0.10297398  0.35276145  1  0.007597  4e-06  0.077432  0.097617  2e-06  1.020153  0.0
H  H128  1  0.03895790  0.60291086  0.85277445  1  0.019861  1e-06  0.077106  0.097062  2e-06  1.019715  0.0
H  H129  1  0.49458416  0.89702855  0.64723696  1  0.00767  4e-06  0.07743  0.097621  2e-06  1.020096  0.0
H  H130  1  0.14202932  0.33026460  0.14430344  1  0.016487  4e-06  0.083689  0.113189  -1e-06  1.008636  0.0
H  H131  1  0.61679394  0.16960045  0.35580775  1  0.01682  5e-06  0.083309  0.112866  -1e-06  1.007737  0.0
H  H132  1  0.85797525  0.66974241  0.85569856  1  0.016313  4e-06  0.08367  0.113162  -1e-06  1.00864  0.0
H  H133  1  0.38320398  0.83040357  0.64419074  1  0.017037  5e-06  0.08333  0.112867  -1e-06  1.007764  0.0
C  C134  1  0.98942087  0.14927387  0.91251233  1  1.544993  -0.00315  0.218635  0.593669  -0.004363  4.163215  -0.002
C  C135  1  0.05118856  0.35044817  0.58730691  1  1.55436  -0.002866  0.217944  0.593473  -0.004039  4.165399  -0.002
C  C136  1  0.01058338  0.85072195  0.08748877  1  1.544503  -0.003152  0.218542  0.593482  -0.004363  4.163114  -0.002
C  C137  1  0.94881225  0.64954914  0.41269396  1  1.554034  -0.002868  0.217875  0.593358  -0.00404  4.16536  -0.002
C  C138  1  0.90244042  0.20614100  0.87448126  1  -0.026564  0.010281  -0.025193  -0.055095  0.005331  3.987852  0.008
C  C139  1  0.98322716  0.29359577  0.62536507  1  0.014486  0.010373  -0.024338  -0.052836  0.005387  3.984712  0.008
C  C140  1  0.09756331  0.79385556  0.12551902  1  -0.025586  0.010278  -0.025167  -0.054882  0.00533  3.987762  0.008
C  C141  1  0.01677246  0.70640079  0.37463446  1  0.014417  0.010373  -0.024383  -0.052753  0.005387  3.984707  0.008
C  C142  1  0.77615725  0.19324492  0.87449741  1  -0.022858  -0.00104  -0.086605  -0.087409  -0.001523  3.993968  -0.001
C  C143  1  0.84402615  0.30651443  0.62544450  1  -0.033007  -0.000826  -0.08743  -0.08891  -0.001303  3.992201  0.0
C  C144  1  0.22384215  0.80675462  0.12550182  1  -0.022856  -0.001041  -0.086585  -0.087476  -0.001524  3.993806  -0.001
C  C145  1  0.15597302  0.69347766  0.37455480  1  -0.033359  -0.000827  -0.087451  -0.08904  -0.001303  3.992267  0.0
C  C146  1  0.94031945  0.27410121  0.84027399  1  -0.032577  -0.001139  -0.086675  -0.093841  -0.001543  3.996568  -0.001
C  C147  1  0.05522000  0.22561463  0.65951207  1  -0.095107  -0.001085  -0.086582  -0.09349  -0.001518  3.995853  -0.001
C  C148  1  0.05968646  0.72589535  0.15972607  1  -0.032933  -0.001139  -0.086682  -0.093926  -0.001543  3.996565  -0.001
C  C149  1  0.94477595  0.77438268  0.34048880  1  -0.095358  -0.001085  -0.086489  -0.093399  -0.001517  3.995897  -0.001
C  C150  1  0.85028949  0.33128054  0.80848865  1  -0.05375  0.000998  -0.0883  -0.130251  0.000428  3.967279  0.001
C  C151  1  0.99081690  0.16844634  0.69137232  1  -0.047691  0.000969  -0.089036  -0.132974  0.000414  3.970201  0.001
C  C152  1  0.14971492  0.66871677  0.19151253  1  -0.053831  0.000998  -0.088241  -0.130171  0.000428  3.967018  0.001
C  C153  1  0.00918010  0.83155172  0.30862908  1  -0.047752  0.000969  -0.089072  -0.132973  0.000414  3.9702  0.001
C  C154  1  0.68709408  0.25003001  0.84252843  1  -0.114677  0.001127  -0.093161  -0.14062  0.000466  3.991142  0.001
C  C155  1  0.78002029  0.24972734  0.65747809  1  -0.061749  0.001204  -0.092549  -0.139825  0.000519  3.989726  0.001
C  C156  1  0.31290890  0.74996730  0.15747222  1  -0.114597  0.001128  -0.093179  -0.140661  0.000466  3.991064  0.001
C  C157  1  0.21998135  0.75026772  0.34252114  1  -0.061615  0.001204  -0.092538  -0.139854  0.000519  3.989591  0.001
C  C158  1  0.72148285  0.32105138  0.80983758  1  -0.000837  -0.002403  -0.005054  0.104352  -0.00262  3.964681  -0.002
C  C159  1  0.85306332  0.17871534  0.69012891  1  -0.03307  -0.002306  -0.005068  0.104302  -0.002525  3.966614  -0.002
C  C160  1  0.27852628  0.67894742  0.19016203  1  -0.000912  -0.002403  -0.005144  0.104124  -0.00262  3.9649  -0.002
C  C161  1  0.14693750  0.82128197  0.30987196  1  -0.033108  -0.002305  -0.005066  0.104333  -0.002524  3.966421  -0.002
C  C162  1  0.61970395  0.38662780  0.77804678  1  0.264261  1.6e-05  -0.06754  -0.111908  -6.5e-05  3.958983  0.0
C  C163  1  0.78529468  0.11311058  0.72195580  1  0.31733  4.3e-05  -0.067157  -0.109182  -4.2e-05  3.958935  0.0
C  C164  1  0.38030135  0.61337100  0.22195373  1  0.264228  1.6e-05  -0.067451  -0.111605  -6.5e-05  3.959015  0.0
C  C165  1  0.21470217  0.88688822  0.27804440  1  0.317128  4.3e-05  -0.067091  -0.109164  -4.2e-05  3.958811  0.0
C  C166  1  0.46458534  0.55204337  0.76242869  1  0.27302  -1.1e-05  -0.062899  -0.105306  -4.8e-05  3.968316  0.0
C  C167  1  0.78007400  0.94768163  0.73746054  1  0.318025  7e-06  -0.06393  -0.107954  -3e-05  3.969966  0.0
C  C168  1  0.53541990  0.44795767  0.23757271  1  0.273018  -1.1e-05  -0.062968  -0.105387  -4.8e-05  3.96842  0.0
C  C169  1  0.21991851  0.05231643  0.26254047  1  0.318783  7e-06  -0.063938  -0.107994  -3e-05  3.969846  0.0
C  C170  1  0.53072846  0.55619830  0.70753721  1  -0.002866  0.002544  -0.005588  0.106076  0.001302  3.963787  0.002
C  C171  1  0.79541958  0.94344276  0.79239091  1  -0.008564  0.00257  -0.005717  0.105331  0.001315  3.966191  0.002
C  C172  1  0.46927520  0.44380125  0.29246359  1  -0.002887  0.002543  -0.005558  0.10604  0.001302  3.963945  0.002
C  C173  1  0.20457622  0.05655306  0.20760989  1  -0.008576  0.00257  -0.005797  0.105182  0.001315  3.966167  0.002
C  C174  1  0.46158877  0.54912812  0.66899799  1  -0.091691  -0.000193  -0.094554  -0.143486  -0.000416  3.981927  0.0
C  C175  1  0.68055739  0.95074215  0.83085665  1  -0.067342  -0.000189  -0.094942  -0.14488  -0.000406  3.985289  0.0
C  C176  1  0.53841249  0.45087143  0.33100423  1  -0.091499  -0.000193  -0.09452  -0.143371  -0.000416  3.981952  0.0
C  C177  1  0.31943527  0.04925591  0.16914519  1  -0.067354  -0.000189  -0.094784  -0.1446  -0.000407  3.985183  0.0
C  C178  1  0.65893343  0.57016035  0.69400761  1  -0.03191  -0.000163  -0.092575  -0.139987  -0.000296  3.974935  0.0
C  C179  1  0.92408890  0.92915927  0.80601691  1  -0.067782  -0.000137  -0.091077  -0.135421  -0.000286  3.973315  0.0
C  C180  1  0.34107099  0.42984069  0.30599170  1  -0.031838  -0.000163  -0.092537  -0.139861  -0.000296  3.974881  0.0
C  C181  1  0.07590301  0.07083580  0.19398231  1  -0.067884  -0.000137  -0.091069  -0.13543  -0.000287  3.973162  0.0
C  C182  1  0.71622152  0.57724527  0.64308715  1  -0.089305  0.002916  -0.07977  -0.077971  0.001474  3.967406  0.002
C  C183  1  0.93742517  0.92208898  0.85696994  1  -0.051719  0.002929  -0.079024  -0.077326  0.001486  3.967077  0.002
C  C184  1  0.28377638  0.42275577  0.35691283  1  -0.089966  0.002916  -0.079814  -0.078051  0.001474  3.967493  0.002
C  C185  1  0.06257033  0.07790609  0.14302958  1  -0.051705  0.002929  -0.079076  -0.077401  0.001486  3.967213  0.002
C  C186  1  0.51758061  0.55746109  0.61808482  1  -0.044269  0.003379  -0.086091  -0.090248  0.001609  3.984168  0.002
C  C187  1  0.69380342  0.94245001  0.88179515  1  -0.064507  0.003396  -0.085256  -0.086188  0.00162  3.981526  0.002
C  C188  1  0.48241489  0.44253772  0.38191769  1  -0.044327  0.003379  -0.086183  -0.090506  0.001609  3.984262  0.002
C  C189  1  0.30619306  0.05754805  0.11820579  1  -0.06437  0.003397  -0.085355  -0.086189  0.00162  3.98159  0.002
C  C190  1  0.64531987  0.57136298  0.60468718  1  0.006761  0.005786  -0.022558  -0.051737  0.002933  3.997772  0.004
C  C191  1  0.82208100  0.92826703  0.89529298  1  -0.009016  0.005815  -0.023493  -0.054111  0.002954  3.998241  0.004
C  C192  1  0.35467534  0.42863657  0.39531331  1  0.006798  0.005787  -0.022538  -0.051611  0.002934  3.997702  0.004
C  C193  1  0.17791495  0.07173103  0.10470752  1  -0.009049  0.005814  -0.023383  -0.053995  0.002954  3.998299  0.004
C  C194  1  0.70544894  0.57886983  0.55022953  1  1.516907  0.010214  0.215437  0.58677  0.007529  4.171208  0.008
C  C195  1  0.83497931  0.92076867  0.94979692  1  1.524446  0.010251  0.215886  0.58623  0.007594  4.16846  0.008
C  C196  1  0.29454679  0.42113046  0.44977104  1  1.516784  0.010212  0.215425  0.586777  0.007529  4.171133  0.008
C  C197  1  0.16502225  0.07922938  0.05020284  1  1.524432  0.010253  0.215815  0.586021  0.007595  4.168597  0.008
C  C198  1  0.49251025  0.50171542  0.84805308  1  0.293484  3e-06  -0.067383  -0.112369  -7e-05  3.969654  0.0
C  C199  1  0.84299750  0.99824044  0.65188144  1  0.264717  2.1e-05  -0.067445  -0.11137  -4e-05  3.96744  0.0
C  C200  1  0.50749723  0.49828264  0.15194758  1  0.293717  3e-06  -0.067406  -0.112531  -7e-05  3.969997  0.0
C  C201  1  0.15699681  0.00176060  0.34811823  1  0.264475  2.1e-05  -0.067428  -0.111414  -4e-05  3.967364  0.0
C  C202  1  0.44645908  0.60644075  0.86784854  1  -0.001969  -0.001401  -0.005017  0.10363  -0.001535  3.96951  -0.001
C  C203  1  0.92132034  0.89352892  0.63205467  1  0.013374  -0.001289  -0.005115  0.103501  -0.001424  3.967128  -0.001
C  C204  1  0.55354645  0.39355730  0.13215115  1  -0.001898  -0.0014  -0.004993  0.103684  -0.001534  3.969534  -0.001
C  C205  1  0.07867591  0.10647138  0.36794635  1  0.013416  -0.001288  -0.005167  0.103479  -0.001423  3.967069  -0.001
C  C206  1  0.31205062  0.65230920  0.89577527  1  -0.074829  0.000932  -0.093243  -0.140486  0.000395  3.987417  0.001
C  C207  1  0.86040257  0.84762832  0.60424314  1  -0.024171  0.000928  -0.093604  -0.141277  0.000399  3.985267  0.001
C  C208  1  0.68795416  0.34768960  0.10422479  1  -0.075372  0.000932  -0.09327  -0.140542  0.000394  3.987331  0.001
C  C209  1  0.13959900  0.15236973  0.39575662  1  -0.024164  0.000928  -0.093583  -0.141226  0.000399  3.985257  0.001
C  C210  1  0.26857556  0.74879029  0.91466765  1  -0.074814  -0.000366  -0.082639  -0.085817  -0.000854  3.944958  0.0
C  C211  1  0.93213887  0.75110930  0.58540708  1  -0.046232  -0.000188  -0.081653  -0.081767  -0.000669  3.943428  0.0
C  C212  1  0.73142841  0.25120776  0.08533069  1  -0.073998  -0.000365  -0.082667  -0.085868  -0.000854  3.944963  0.0
C  C213  1  0.06786412  0.24889024  0.41459245  1  -0.045956  -0.000187  -0.081666  -0.081722  -0.000669  3.94347  0.0
C  C214  1  0.53780076  0.65944548  0.85877399  1  -0.091316  0.000569  -0.092239  -0.137744  0.000198  3.982263  0.0
C  C215  1  0.05670975  0.84055741  0.64104412  1  -0.04127  0.000555  -0.091822  -0.13586  0.000194  3.980986  0.0
C  C216  1  0.46220357  0.34055556  0.14122734  1  -0.091558  0.000569  -0.092212  -0.137687  0.000198  3.982155  0.0
C  C217  1  0.94328755  0.15944512  0.35895668  1  -0.041113  0.000554  -0.091756  -0.135729  0.000194  3.980959  0.0
C  C218  1  0.49475128  0.75654375  0.87654335  1  0.004359  -6.4e-05  -0.084459  -0.088426  -0.000422  3.971863  0.0
C  C219  1  0.12840832  0.74341071  0.62331950  1  -0.093486  -7.8e-05  -0.084311  -0.089444  -0.000458  3.973449  0.0
C  C220  1  0.50525500  0.24345356  0.12345596  1  0.003837  -6.3e-05  -0.084424  -0.088384  -0.000421  3.971824  0.0
C  C221  1  0.87159019  0.25659555  0.37668116  1  -0.093608  -7.8e-05  -0.084362  -0.089547  -0.000457  3.973568  0.0
C  C222  1  0.35954278  0.80182843  0.90460516  1  -0.039873  0.003944  -0.023871  -0.04962  0.00197  4.008715  0.003
C  C223  1  0.06620705  0.69807696  0.59540929  1  -0.033225  0.004041  -0.024136  -0.050499  0.002035  4.010001  0.003
C  C224  1  0.64045842  0.19817037  0.09539460  1  -0.039509  0.003944  -0.023878  -0.049601  0.00197  4.008701  0.003
C  C225  1  0.93379624  0.30192483  0.40459076  1  -0.033337  0.004041  -0.024099  -0.050536  0.002034  4.010108  0.003
C  C226  1  0.31186858  0.90579184  0.92280868  1  1.520612  -0.001041  0.209161  0.574062  -0.002247  4.160899  0.001
C  C227  1  0.14047314  0.59401841  0.57732106  1  1.510405  -0.000736  0.21068  0.575239  -0.002  4.158982  0.001
C  C228  1  0.68813321  0.09420472  0.07719063  1  1.520573  -0.001039  0.2092  0.574088  -0.002245  4.160846  0.001
C  C229  1  0.85952708  0.40598412  0.42267878  1  1.510494  -0.000735  0.210711  0.575339  -0.001999  4.158805  0.001
C  C230  1  0.28623594  0.28052145  0.92551719  1  0.42857  -0.002775  0.037276  0.074881  -0.003354  3.981878  -0.001
C  C231  1  0.49224892  0.21932308  0.57452289  1  0.459715  -0.002633  0.037408  0.075206  -0.003252  3.984186  -0.001
C  C232  1  0.71376256  0.71947959  0.07448122  1  0.428636  -0.002773  0.037312  0.075081  -0.003352  3.981868  -0.001
C  C233  1  0.50775138  0.78067647  0.42547642  1  0.460002  -0.002633  0.037443  0.075245  -0.003252  3.984257  -0.001
C  C234  1  0.31701086  0.36079857  0.93809755  1  -0.02205  0.003904  -0.085531  -0.182224  0.001699  3.980193  0.003
C  C235  1  0.61589201  0.13907848  0.56191074  1  -0.015794  0.00389  -0.084759  -0.182615  0.001703  3.980447  0.003
C  C236  1  0.68298959  0.63920247  0.06190184  1  -0.022342  0.003903  -0.085621  -0.182573  0.001699  3.980254  0.003
C  C237  1  0.38410679  0.86092330  0.43808894  1  -0.015835  0.003891  -0.084785  -0.1826  0.001703  3.980461  0.003
C  C238  1  0.46863408  0.16821884  0.96034010  1  0.466598  -0.001647  0.04933  0.105752  -0.002833  3.922258  -0.001
C  C239  1  0.59688732  0.33166791  0.53967768  1  0.475132  -0.001468  0.048153  0.104482  -0.002653  3.920902  -0.001
C  C240  1  0.53136607  0.83178219  0.03965763  1  0.466761  -0.00165  0.049309  0.105713  -0.002834  3.922228  -0.001
C  C241  1  0.40311148  0.66833387  0.46032200  1  0.475145  -0.001467  0.048115  0.104351  -0.002652  3.920814  -0.001
C  C242  1  0.50660649  0.24464967  0.97352576  1  -0.041108  0.005114  -0.076459  -0.163796  0.002134  3.910506  0.004
C  C243  1  0.72447320  0.25527770  0.52646835  1  -0.052046  0.005015  -0.076545  -0.164302  0.002109  3.913487  0.004
C  C244  1  0.49339508  0.75535062  0.02647287  1  -0.041355  0.005114  -0.076517  -0.163855  0.002134  3.910787  0.004
C  C245  1  0.27552829  0.74472334  0.47353193  1  -0.052034  0.005014  -0.07657  -0.164219  0.002108  3.91355  0.004
C  C246  1  0.42825604  0.34446628  0.96382044  1  -0.032549  -0.006609  0.014583  0.125751  -0.007379  3.974604  -0.004
C  C247  1  0.73642229  0.15543499  0.53617182  1  0.005802  -0.006306  0.014731  0.12579  -0.007077  3.971384  -0.004
C  C248  1  0.57174142  0.65553625  0.03617633  1  -0.032139  -0.00661  0.014704  0.125795  -0.007379  3.97465  -0.004
C  C249  1  0.26357637  0.84456604  0.46382741  1  0.005807  -0.006306  0.014742  0.125796  -0.007076  3.971432  -0.004
C  C250  1  0.46271424  0.42592342  0.98094269  1  0.0052  -0.000426  -0.011403  -0.017093  -0.000667  3.980191  0.0
C  C251  1  0.86955022  0.07403400  0.51904464  1  -0.006592  -0.000522  -0.011811  -0.016748  -0.000713  3.980656  0.0
C  C252  1  0.53728045  0.57408060  0.01905512  1  0.005042  -0.000426  -0.011437  -0.016898  -0.000667  3.980165  0.0
C  C253  1  0.13044842  0.92596480  0.48095571  1  -0.006525  -0.000522  -0.011825  -0.016842  -0.000713  3.980656  0.0
C  C254  1  0.35833188  0.51562187  0.00177318  1  0.479416  -0.000512  0.083697  0.208298  -0.000597  4.043943  0.0
C  C255  1  0.87581203  0.98429975  0.49820860  1  0.510191  -0.000434  0.0837  0.209724  -0.000519  4.042958  0.0
C  C256  1  0.64166432  0.48438140  0.99822351  1  0.479207  -0.000512  0.083668  0.208122  -0.000597  4.044114  0.0
C  C257  1  0.12418460  0.01570054  0.50179204  1  0.510094  -0.000434  0.083634  0.2097  -0.000519  4.042958  0.0
C  C258  1  0.60291658  0.41272544  0.97939236  1  0.015702  -0.001102  -0.097576  -0.231355  -0.001224  3.985081  -0.001
C  C259  1  0.99492293  0.08731253  0.52062025  1  -0.021244  -0.001172  -0.097521  -0.233581  -0.00128  3.988128  -0.001
C  C260  1  0.39708082  0.58728007  0.02060493  1  0.015312  -0.001102  -0.097613  -0.231547  -0.001224  3.985087  -0.001
C  C261  1  0.00507587  0.91268702  0.47938054  1  -0.021223  -0.001173  -0.097545  -0.233601  -0.00128  3.988136  -0.001
C  C262  1  0.11465654  0.57812014  0.04313783  1  0.385811  -2.2e-05  -0.065839  0.032161  -4.1e-05  3.877969  0.0
C  C263  1  0.73583949  0.92170210  0.45693776  1  0.409437  -2e-05  -0.065797  0.032295  -4.1e-05  3.87883  0.0
C  C264  1  0.88533934  0.42188239  0.95686245  1  0.384873  -2.2e-05  -0.065918  0.03194  -4.1e-05  3.878182  0.0
C  C265  1  0.26415827  0.07830192  0.54305990  1  0.40928  -2e-05  -0.065736  0.032521  -4.1e-05  3.878929  0.0
C  C266  1  0.10974555  0.50789291  0.08802377  1  -0.014409  8e-06  -0.170155  -0.190816  -2e-06  3.966061  0.0
C  C267  1  0.70547024  0.99190300  0.41203599  1  -0.056454  1e-05  -0.170248  -0.190159  -1e-06  3.964105  0.0
C  C268  1  0.89025955  0.49211037  0.91197569  1  -0.013872  8e-06  -0.170071  -0.190465  -2e-06  3.965739  0.0
C  C269  1  0.29452693  0.00810252  0.58796250  1  -0.056747  1e-05  -0.170328  -0.190391  -1e-06  3.964291  0.0
C  C270  1  0.08995680  0.41272536  0.07496264  1  -0.012799  -7e-06  -0.17016  -0.089479  -2.3e-05  3.953149  0.0
C  C271  1  0.57760212  0.08714231  0.42508999  1  0.001924  -3e-06  -0.170168  -0.090367  -1.8e-05  3.953915  0.0
C  C272  1  0.91005188  0.58727567  0.92503824  1  -0.013548  -7e-06  -0.170113  -0.089481  -2.3e-05  3.953251  0.0
C  C273  1  0.42239273  0.91286320  0.57490790  1  0.001798  -3e-06  -0.170135  -0.090232  -1.8e-05  3.953773  0.0
C  C274  1  0.05787161  0.35296478  0.12197464  1  -0.096117  1.2e-05  -0.248581  -0.352823  1e-06  3.968654  0.0
C  C275  1  0.53291225  0.14700963  0.37806836  1  -0.080015  1.3e-05  -0.248713  -0.353344  2e-06  3.969048  0.0
C  C276  1  0.94213033  0.64703924  0.87802661  1  -0.096206  1.2e-05  -0.248596  -0.352748  1e-06  3.968627  0.0
C  C277  1  0.46708625  0.85299066  0.62193042  1  -0.080218  1.3e-05  -0.248756  -0.353379  2e-06  3.968966  0.0
N  N278  1  0.35789466  0.18534805  0.93743251  1  -1.234739  0.065425  -0.347696  -0.271138  0.034236  3.627969  0.046
N  N279  1  0.48048779  0.31449698  0.56260821  1  -1.242563  0.065157  -0.347489  -0.270588  0.034146  3.628535  0.046
N  N280  1  0.64210309  0.81465224  0.06256702  1  -1.23485  0.065425  -0.347684  -0.271131  0.034236  3.627885  0.046
N  N281  1  0.51951535  0.68550481  0.43739102  1  -1.242908  0.065157  -0.347446  -0.270518  0.034144  3.628418  0.046
N  N282  1  0.56212038  0.49140162  0.79466720  1  -0.984775  3.3e-05  -0.334061  -0.137201  -2.9e-05  3.464269  0.0
N  N283  1  0.84912979  0.00837499  0.70529450  1  -0.977655  5e-06  -0.333857  -0.138156  -4.6e-05  3.463482  0.0
N  N284  1  0.43788837  0.50859644  0.20533316  1  -0.984716  3.3e-05  -0.334039  -0.137219  -2.9e-05  3.464324  0.0
N  N285  1  0.15086362  0.99162456  0.29470585  1  -0.977617  5e-06  -0.333763  -0.137908  -4.6e-05  3.463164  0.0
O  O286  1  0.22236468  0.52920968  0.00071424  1  -1.073364  0.000169  -0.189112  -0.224058  0.000103  2.577624  0.0
O  O287  1  0.75242920  0.97063700  0.49931958  1  -1.077035  0.000184  -0.18951  -0.224824  0.000109  2.578439  0.0
O  O288  1  0.77762874  0.47079434  0.99928387  1  -1.0724  0.000169  -0.189009  -0.223839  0.000103  2.577842  0.0
O  O289  1  0.24757051  0.02936553  0.50067980  1  -1.077033  0.000184  -0.189476  -0.22484  0.000109  2.578615  0.0
O  O290  1  0.10916019  0.15748831  0.91001948  1  -1.15722  0.091087  -0.324353  -0.574964  0.046368  2.399166  0.07
O  O291  1  0.17650605  0.34240455  0.58988923  1  -1.154735  0.091067  -0.324069  -0.575169  0.046433  2.401586  0.07
O  O292  1  0.89084211  0.84250602  0.08998140  1  -1.157341  0.091089  -0.324355  -0.574991  0.046369  2.399008  0.07
O  O293  1  0.82349334  0.65759276  0.41011112  1  -1.154681  0.091069  -0.324019  -0.575113  0.046435  2.401471  0.07
O  O294  1  0.93615455  0.09979331  0.94513581  1  -1.152031  0.063791  -0.299724  -0.554829  0.033537  2.42317  0.056
O  O295  1  0.98113762  0.39964832  0.55457089  1  -1.155002  0.063376  -0.299754  -0.555629  0.033285  2.423874  0.055
O  O296  1  0.06384544  0.90020176  0.05486409  1  -1.151952  0.063791  -0.299641  -0.554679  0.033535  2.423101  0.056
O  O297  1  0.01885833  0.60035347  0.44543260  1  -1.154714  0.063378  -0.299741  -0.555564  0.033287  2.42385  0.055
O  O298  1  0.81619090  0.59894485  0.53857263  1  -1.172714  0.054321  -0.31503  -0.596542  0.027605  2.402493  0.042
O  O299  1  0.95399145  0.90064749  0.96162689  1  -1.174389  0.054587  -0.315124  -0.596005  0.027729  2.401239  0.042
O  O300  1  0.18380230  0.40105917  0.46142667  1  -1.172776  0.054323  -0.315011  -0.596546  0.027608  2.402485  0.042
O  O301  1  0.04600981  0.09934833  0.03837234  1  -1.174359  0.054588  -0.315063  -0.595876  0.027728  2.401295  0.042
O  O302  1  0.64046182  0.56566448  0.51677365  1  -1.13926  0.110006  -0.312563  -0.545297  0.056288  2.383601  0.087
O  O303  1  0.72321037  0.93399522  0.98313578  1  -1.145078  0.110267  -0.312795  -0.545238  0.056477  2.382727  0.087
O  O304  1  0.35953195  0.43433283  0.48322744  1  -1.139073  0.110001  -0.31254  -0.545278  0.056286  2.383603  0.087
O  O305  1  0.27679419  0.06600433  0.01686510  1  -1.145151  0.110269  -0.312779  -0.545147  0.056475  2.382636  0.087
O  O306  1  0.38402321  0.96084378  0.90515744  1  -1.134993  0.102682  -0.311108  -0.533133  0.052167  2.289234  0.082
O  O307  1  0.25004077  0.53897380  0.59499229  1  -1.129552  0.10255  -0.312363  -0.533677  0.052033  2.290287  0.082
O  O308  1  0.61597671  0.03915502  0.09484261  1  -1.134854  0.102679  -0.311084  -0.533067  0.052163  2.289179  0.082
O  O309  1  0.74996207  0.46102574  0.40500642  1  -1.129639  0.102545  -0.312356  -0.533702  0.05203  2.29024  0.082
O  O310  1  0.20157794  0.94284412  0.95579397  1  -1.17403  0.094394  -0.301675  -0.583273  0.049495  2.462764  0.081
O  O311  1  0.09999538  0.55687968  0.54441348  1  -1.176175  0.094464  -0.301514  -0.583025  0.049463  2.463086  0.081
O  O312  1  0.79842453  0.05715468  0.04420549  1  -1.174065  0.09439  -0.301754  -0.583371  0.049494  2.462744  0.081
O  O313  1  0.90000027  0.44312062  0.45558911  1  -1.176183  0.094462  -0.301575  -0.58307  0.049462  2.462958  0.081
