# generated using pymatgen
data_VH8C12SO5
_symmetry_space_group_name_H-M   'P 1'
_cell_length_a   6.77022228
_cell_length_b   12.25594035
_cell_length_c   17.40109541
_cell_angle_alpha   90.00157901
_cell_angle_beta   89.99931917
_cell_angle_gamma   90.03829915
_symmetry_Int_Tables_number   1
_chemical_formula_structural   VH8C12SO5
_chemical_formula_sum   'V4 H32 C48 S4 O20'
_cell_volume   1443.86323120
_cell_formula_units_Z   4
loop_
 _symmetry_equiv_pos_site_id
 _symmetry_equiv_pos_as_xyz
  1  'x, y, z'
loop_
 _atom_site_type_symbol
 _atom_site_label
 _atom_site_symmetry_multiplicity
 _atom_site_fract_x
 _atom_site_fract_y
 _atom_site_fract_z
 _atom_site_occupancy
 _atom_site_pbe_bader_charge
 _atom_site_pbe_bader_spin_density
 _atom_site_pbe_cm5_charge
 _atom_site_pbe_ddec_charge
 _atom_site_pbe_ddec_spin_density
 _atom_site_pbe_ddec_sum_bond_order
 _atom_site_pbe_magmom
V  V0  1  0.05705134  0.73310527  0.99907869  1  2.10381  -0.739662  1.422268  1.83515  -0.801345  3.017579  -0.752
V  V1  1  0.44364540  0.26723602  0.49908728  1  2.091927  0.895041  1.399781  1.827528  0.936323  2.964429  0.907
V  V2  1  0.94364622  0.23271450  0.50091435  1  2.094272  0.884732  1.401754  1.828435  0.925667  2.969888  0.896
V  V3  1  0.55731313  0.76682363  0.00090743  1  2.098982  0.776442  1.415206  1.829888  0.814371  3.00753  0.789
H  H4  1  0.40187500  0.49367416  0.93346837  1  0.103688  8e-05  0.107346  0.145046  3.3e-05  1.026338  0.0
H  H5  1  0.09926907  0.50543875  0.43303117  1  0.148123  1.1e-05  0.10744  0.145451  -0.000309  1.024975  0.0
H  H6  1  0.59911773  0.99444426  0.56695074  1  0.149811  7e-06  0.107397  0.145498  -0.000312  1.025008  0.0
H  H7  1  0.90161739  0.00643244  0.06651335  1  0.105296  -7.1e-05  0.107223  0.144958  -4e-05  1.026056  0.0
H  H8  1  0.43747697  0.34002526  0.82635776  1  0.081754  3e-05  0.098034  0.10874  3e-05  1.013205  0.0
H  H9  1  0.06169094  0.65877705  0.32579723  1  0.077076  2.2e-05  0.097613  0.108562  1.6e-05  1.014469  0.0
H  H10  1  0.56167763  0.84109066  0.67418715  1  0.076456  -4e-06  0.097597  0.108502  -2e-06  1.014083  0.0
H  H11  1  0.93739863  0.16010902  0.17358874  1  0.083475  4.4e-05  0.097917  0.108559  4.7e-05  1.013211  0.0
H  H12  1  0.15522035  0.19104547  0.84000814  1  0.07545  6e-05  0.093526  0.104134  6e-05  1.039675  0.0
H  H13  1  0.34153300  0.80915209  0.33954974  1  0.069421  2.2e-05  0.093122  0.103648  2.3e-05  1.040749  0.0
H  H14  1  0.84164159  0.69097261  0.66042416  1  0.071478  3.5e-05  0.093091  0.103795  3.3e-05  1.041449  0.0
H  H15  1  0.65539454  0.30902766  0.15992069  1  0.075221  1.7e-05  0.093556  0.104212  2.4e-05  1.039282  0.0
H  H16  1  0.92007742  0.23543133  0.95795865  1  0.127841  -5e-06  0.095692  0.117763  -4e-06  1.074957  0.0
H  H17  1  0.57676145  0.76603816  0.45772172  1  0.133295  3e-06  0.095511  0.117778  3e-06  1.074318  0.0
H  H18  1  0.07679696  0.73429279  0.54222524  1  0.141203  3e-06  0.095665  0.118117  4e-06  1.073572  0.0
H  H19  1  0.42017883  0.26453509  0.04195229  1  0.129144  4e-06  0.095689  0.117943  1e-06  1.074655  0.0
H  H20  1  0.05805084  0.50877139  0.82275964  1  0.128167  2.6e-05  0.104031  0.110284  8.4e-05  1.034332  0.0
H  H21  1  0.44348832  0.49079658  0.32182744  1  0.101474  -3.4e-05  0.104473  0.110641  -0.0002  1.033799  0.0
H  H22  1  0.94226742  0.00958203  0.67854775  1  0.122136  -7.3e-05  0.104453  0.110707  -0.000225  1.034084  0.0
H  H23  1  0.55748945  0.99131194  0.17728568  1  0.130262  -0.0001  0.103903  0.109795  -0.000238  1.034508  0.0
H  H24  1  0.44031505  0.51053972  0.66680825  1  0.104891  -3.6e-05  0.108948  0.113481  -0.000204  1.00522  0.0
H  H25  1  0.06091844  0.48859645  0.16572203  1  0.10044  2.5e-05  0.108195  0.112247  7.3e-05  1.006527  0.0
H  H26  1  0.56054594  0.01125539  0.83413943  1  0.101994  -0.000114  0.108287  0.11195  -0.000234  1.007185  0.0
H  H27  1  0.93940242  0.98930174  0.33301233  1  0.0985  -6.5e-05  0.109009  0.11354  -0.000225  1.005107  0.0
H  H28  1  0.45780859  0.61602110  0.79026601  1  0.116701  1e-06  0.113176  0.12151  -0.000127  0.981269  0.0
H  H29  1  0.04306055  0.38282850  0.28908034  1  0.109978  8.3e-05  0.113451  0.122014  -6.9e-05  0.980243  0.0
H  H30  1  0.54248479  0.11705188  0.71081971  1  0.114137  0.000108  0.113803  0.122711  -6.5e-05  0.981046  0.0
H  H31  1  0.95708054  0.88380556  0.20958437  1  0.116667  -6.4e-05  0.113273  0.121608  -1.6e-05  0.981242  0.0
H  H32  1  0.04018557  0.40408467  0.69950934  1  0.1195  0.000103  0.112125  0.121989  -6.5e-05  0.985527  0.0
H  H33  1  0.46141956  0.59575269  0.19874554  1  0.099178  -3e-06  0.111748  0.121524  -0.000135  0.984945  0.0
H  H34  1  0.96028797  0.90459985  0.80164675  1  0.108046  -6.5e-05  0.112021  0.12197  -1.4e-05  0.985579  0.0
H  H35  1  0.53942954  0.09606226  0.30051255  1  0.116507  0.000137  0.112301  0.122176  -5.7e-05  0.986055  0.0
C  C36  1  0.30974854  0.42202423  0.92538954  1  -0.225331  8.8e-05  -0.111977  -0.208071  0.00015  3.974761  0.0
C  C37  1  0.19041526  0.57747907  0.42491160  1  -0.273456  -6.8e-05  -0.11157  -0.207167  -0.000168  3.97268  0.0
C  C38  1  0.69031273  0.92248855  0.57506127  1  -0.275147  -8.2e-05  -0.111682  -0.207202  -0.000182  3.972851  0.0
C  C39  1  0.80947364  0.07802188  0.07459318  1  -0.225003  -8.7e-05  -0.111838  -0.207997  -0.000161  3.974516  0.0
C  C40  1  0.32339959  0.34133598  0.87048457  1  -0.072001  9e-06  -0.118664  -0.113729  -2e-06  4.072723  0.0
C  C41  1  0.17575549  0.65803401  0.36993211  1  -0.073667  1.3e-05  -0.119506  -0.11569  3.3e-05  4.075535  0.0
C  C42  1  0.67572973  0.84192339  0.63003910  1  -0.074341  1.9e-05  -0.119291  -0.115324  3.8e-05  4.075844  0.0
C  C43  1  0.82327224  0.15876083  0.12947682  1  -0.073584  2.1e-05  -0.11846  -0.113514  3.8e-05  4.072646  0.0
C  C44  1  0.17200664  0.26109110  0.87792721  1  0.012398  8.9e-05  -0.121673  -0.113632  8.5e-05  4.065298  0.0
C  C45  1  0.32581341  0.73900752  0.37741613  1  -0.003506  -3.7e-05  -0.122359  -0.113958  -2.6e-05  4.066907  0.0
C  C46  1  0.82584226  0.76108778  0.62255037  1  -0.005373  -2.3e-05  -0.122377  -0.114449  -1.7e-05  4.067818  0.0
C  C47  1  0.67203846  0.23896610  0.12201649  1  0.008731  -4.5e-05  -0.121559  -0.113583  -3.5e-05  4.065957  0.0
C  C48  1  0.04713498  0.28215706  0.93859518  1  -0.297216  0.000107  -0.114106  -0.20288  8e-05  3.996648  0.0
C  C49  1  0.45061422  0.71865253  0.43822615  1  -0.278803  0.000103  -0.114382  -0.203651  0.000106  3.996151  0.0
C  C50  1  0.95063157  0.78156084  0.56173403  1  -0.285128  6.5e-05  -0.114271  -0.203502  7e-05  3.995539  0.0
C  C51  1  0.54716938  0.21785546  0.06133473  1  -0.29679  -8.7e-05  -0.114331  -0.203203  -7.3e-05  3.997373  0.0
C  C52  1  0.75925841  0.56894248  0.81309495  1  -0.047872  0.008919  -0.008364  -0.029333  0.008026  3.952256  0.006
C  C53  1  0.74202801  0.43032504  0.31206460  1  -0.031535  -0.006095  -0.008582  -0.030733  -0.006004  3.949398  -0.006
C  C54  1  0.24119273  0.06973384  0.68804945  1  -0.027031  -0.004491  -0.00864  -0.030395  -0.004512  3.948786  -0.005
C  C55  1  0.25866154  0.93102157  0.18684197  1  -0.048652  0.008485  -0.008728  -0.029628  0.007702  3.951892  0.005
C  C56  1  0.92458208  0.51001139  0.78777193  1  -0.012562  -0.003165  -0.077298  -0.087057  -0.002921  3.952198  -0.002
C  C57  1  0.57696375  0.48951647  0.28686495  1  0.009256  0.008594  -0.076084  -0.083717  0.007551  3.948652  0.005
C  C58  1  0.07588539  0.01078659  0.71341596  1  -0.018738  0.007215  -0.075971  -0.083732  0.006314  3.949291  0.004
C  C59  1  0.42392090  0.99008712  0.21221136  1  -0.015782  -0.00177  -0.076942  -0.085543  -0.001583  3.95005  -0.001
C  C60  1  0.77034566  0.63172503  0.88568188  1  1.50479  -0.001117  0.235155  0.624898  -0.001355  4.107649  -0.001
C  C61  1  0.73082933  0.36769249  0.38481738  1  1.532886  0.028811  0.237652  0.631422  0.029917  4.110181  0.023
C  C62  1  0.23039059  0.13226447  0.61522202  1  1.535672  0.028962  0.237319  0.631643  0.030044  4.109448  0.023
C  C63  1  0.27024848  0.86807181  0.11433660  1  1.506054  0.002005  0.234692  0.623935  0.001821  4.107761  0.001
C  C64  1  0.57416841  0.51066910  0.70153737  1  -0.008216  0.008392  -0.076135  -0.09375  0.007376  3.964579  0.005
C  C65  1  0.92707261  0.48849039  0.20045980  1  -0.0185  -0.003241  -0.076538  -0.093363  -0.002999  3.96512  -0.002
C  C66  1  0.42650667  0.01145562  0.79951548  1  -0.024792  -0.00177  -0.076286  -0.092252  -0.001589  3.965038  -0.001
C  C67  1  0.07337072  0.98921363  0.29835099  1  -0.001712  0.007274  -0.076428  -0.093583  0.006366  3.964937  0.004
C  C68  1  0.58412474  0.56934968  0.76973372  1  -0.053927  -0.002738  -0.074768  -0.085203  -0.002483  3.948714  -0.002
C  C69  1  0.91694134  0.42973935  0.26862727  1  -0.072746  0.007763  -0.074105  -0.084479  0.006789  3.948811  0.005
C  C70  1  0.41631364  0.07020214  0.73135725  1  -0.078116  0.008224  -0.074131  -0.085481  0.007227  3.949861  0.005
C  C71  1  0.08340489  0.93056035  0.23012815  1  -0.055913  -0.001856  -0.074482  -0.085654  -0.001712  3.948834  -0.002
C  C72  1  0.73939145  0.45143201  0.67634421  1  -0.022292  -0.005865  -0.008487  -0.029136  -0.005796  3.956157  -0.005
C  C73  1  0.76201299  0.54801065  0.17537623  1  -0.04971  0.009095  -0.00898  -0.031332  0.008202  3.962551  0.006
C  C74  1  0.26127612  0.95205638  0.82472389  1  -0.05431  0.008595  -0.009389  -0.031679  0.007802  3.962201  0.005
C  C75  1  0.23860487  0.04851413  0.32360205  1  -0.020481  -0.004511  -0.008535  -0.029674  -0.004529  3.9559  -0.005
C  C76  1  0.91445897  0.45153395  0.71961408  1  -0.068579  0.00763  -0.075505  -0.085104  0.006679  3.945708  0.005
C  C77  1  0.58700331  0.54803903  0.21871759  1  0.002357  -0.002932  -0.075952  -0.086466  -0.002653  3.944658  -0.002
C  C78  1  0.08595916  0.95225303  0.78157931  1  0.007514  -0.001866  -0.075886  -0.086962  -0.00172  3.944799  -0.002
C  C79  1  0.41375489  0.04852575  0.28038310  1  -0.062995  0.008248  -0.075444  -0.085331  0.007256  3.945544  0.005
C  C80  1  0.72895770  0.38491673  0.60524048  1  1.52324  0.028641  0.236949  0.633328  0.029759  4.108825  0.022
C  C81  1  0.77238572  0.61505155  0.10463718  1  1.506407  -0.000604  0.234731  0.629107  -0.000826  4.103593  -0.001
C  C82  1  0.27226596  0.88484639  0.89537842  1  1.50744  0.001438  0.234373  0.628852  0.001216  4.103098  0.001
C  C83  1  0.22844842  0.11497181  0.39474950  1  1.522248  0.028777  0.236741  0.633639  0.029819  4.108628  0.022
S  S84  1  0.11328821  0.39943791  0.98578363  1  0.205809  8.9e-05  0.07909  0.185423  0.000208  2.991055  0.0
S  S85  1  0.38616539  0.60111242  0.48543175  1  0.21344  0.000315  0.07978  0.186897  6e-05  2.989181  0.0
S  S86  1  0.88607720  0.89903503  0.51453792  1  0.213112  0.000322  0.079769  0.186827  6.4e-05  2.990176  0.0
S  S87  1  0.61310044  0.10056114  0.01418735  1  0.205949  -4.5e-05  0.079252  0.18546  -0.000206  2.991464  0.0
O  O88  1  0.78525749  0.81357722  0.00266538  1  -0.853924  -0.062717  -0.611792  -0.777996  -0.059925  1.832389  -0.058
O  O89  1  0.71421520  0.18726130  0.50269816  1  -0.861024  -0.077817  -0.615013  -0.786202  -0.077315  1.83293  -0.078
O  O90  1  0.21425245  0.31267093  0.49731890  1  -0.861571  -0.078377  -0.615644  -0.787189  -0.077862  1.833095  -0.078
O  O91  1  0.28486608  0.68642490  0.99733234  1  -0.850533  0.060331  -0.610273  -0.775461  0.05532  1.830328  0.056
O  O92  1  0.94080288  0.64767372  0.91499591  1  -1.133724  0.002641  -0.348906  -0.60546  0.003742  2.4239  0.016
O  O93  1  0.56044004  0.35318732  0.41434505  1  -1.143785  0.016034  -0.347492  -0.608201  0.011081  2.415209  -0.004
O  O94  1  0.06010268  0.14670922  0.58560375  1  -1.143622  0.016202  -0.347575  -0.60812  0.011184  2.416188  -0.004
O  O95  1  0.44070768  0.85208322  0.08519303  1  -1.136931  -0.000353  -0.34834  -0.605386  -0.002623  2.424212  -0.015
O  O96  1  0.55891832  0.36868172  0.57566554  1  -1.143641  0.017409  -0.349764  -0.61302  0.012289  2.4045  -0.003
O  O97  1  0.94269884  0.63303176  0.07560951  1  -1.139023  0.002568  -0.350584  -0.609848  0.003682  2.412356  0.016
O  O98  1  0.44256798  0.86689230  0.92424382  1  -1.141717  -0.000253  -0.349942  -0.609779  -0.00254  2.412224  -0.015
O  O99  1  0.05843842  0.13127218  0.42431259  1  -1.143342  0.01745  -0.3498  -0.61296  0.012352  2.405134  -0.002
O  O100  1  0.89189707  0.34710393  0.57949474  1  -1.130861  0.022925  -0.347316  -0.583323  0.01699  2.358279  0.003
O  O101  1  0.60955632  0.65266608  0.07841894  1  -1.123269  -0.000275  -0.348907  -0.581443  -0.002328  2.367256  -0.014
O  O102  1  0.10941758  0.84704200  0.92166176  1  -1.122014  0.002594  -0.349077  -0.580785  0.003404  2.366351  0.016
O  O103  1  0.39148501  0.15269548  0.42051862  1  -1.129291  0.023118  -0.347  -0.583521  0.01715  2.357695  0.003
O  O104  1  0.60750189  0.66652220  0.91395041  1  -1.128886  -0.001253  -0.347521  -0.585695  -0.003108  2.38273  -0.015
O  O105  1  0.89378133  0.33255436  0.41259359  1  -1.135919  0.021746  -0.346185  -0.588425  0.015983  2.371707  0.002
O  O106  1  0.39348546  0.16733388  0.58747264  1  -1.138852  0.021935  -0.345769  -0.588937  0.016196  2.370628  0.002
O  O107  1  0.10733779  0.83328874  0.08593261  1  -1.127863  0.003537  -0.347518  -0.58439  0.004181  2.381021  0.017
