# generated using pymatgen
data_GdCdH12C22N5O8
_symmetry_space_group_name_H-M   'P 1'
_cell_length_a   11.05900638
_cell_length_b   13.62124983
_cell_length_c   17.89202952
_cell_angle_alpha   90.00000053
_cell_angle_beta   90.50125240
_cell_angle_gamma   90.00000815
_symmetry_Int_Tables_number   1
_chemical_formula_structural   GdCdH12C22N5O8
_chemical_formula_sum   'Gd4 Cd4 H48 C88 N20 O32'
_cell_volume   2695.10725515
_cell_formula_units_Z   4
loop_
 _symmetry_equiv_pos_site_id
 _symmetry_equiv_pos_as_xyz
  1  'x, y, z'
loop_
 _atom_site_type_symbol
 _atom_site_label
 _atom_site_symmetry_multiplicity
 _atom_site_fract_x
 _atom_site_fract_y
 _atom_site_fract_z
 _atom_site_occupancy
 _atom_site_pbe_bader_charge
 _atom_site_pbe_bader_spin_density
 _atom_site_pbe_cm5_charge
 _atom_site_pbe_ddec_charge
 _atom_site_pbe_ddec_spin_density
 _atom_site_pbe_ddec_sum_bond_order
 _atom_site_pbe_magmom
Gd  Gd0  1  0.56427635  0.13592515  0.00401139  1  2.174238  0  1.486047  1.99141  0  2.272807  0
Gd  Gd1  1  0.93572355  0.63592555  0.49598903  1  2.174238  0  1.486058  1.991368  0  2.27287  0
Gd  Gd2  1  0.43572333  0.86407493  0.99598900  1  2.174235  0  1.48604  1.991379  0  2.272873  0
Gd  Gd3  1  0.06427612  0.36407453  0.50401136  1  2.17424  0  1.486048  1.99138  0  2.272895  0
Cd  Cd4  1  0.75872209  0.14370859  0.76693298  1  1.242588  0  0.788864  0.786563  0  2.339131  0
Cd  Cd5  1  0.74127827  0.64370823  0.73306677  1  1.242582  0  0.788862  0.78658  0  2.339106  0
Cd  Cd6  1  0.24127759  0.85629148  0.23306685  1  1.242597  0  0.788874  0.786572  0  2.339086  0
Cd  Cd7  1  0.25872231  0.35629111  0.26693307  1  1.242593  0  0.78886  0.786549  0  2.339111  0
H  H8  1  0.08363513  0.96259890  0.94456078  1  0.112  0  0.113344  0.124703  0  1.015972  0
H  H9  1  0.41636434  0.46259928  0.55543903  1  0.111986  0  0.113349  0.124743  0  1.015942  0
H  H10  1  0.91636455  0.03740117  0.05543905  1  0.111986  0  0.11335  0.124742  0  1.015956  0
H  H11  1  0.58363534  0.53740153  0.44456080  1  0.111988  0  0.113345  0.124743  0  1.015914  0
H  H12  1  0.77985051  0.77204521  0.61027428  1  0.113121  0  0.121295  0.091882  0  1.029686  0
H  H13  1  0.72014897  0.27204483  0.88972602  1  0.113144  0  0.121296  0.091866  0  1.029684  0
H  H14  1  0.22014917  0.22795487  0.38972611  1  0.11314  0  0.121301  0.091889  0  1.029676  0
H  H15  1  0.27984981  0.72795524  0.11027380  1  0.113125  0  0.1213  0.09189  0  1.029641  0
H  H16  1  0.97118511  0.01850497  0.70614479  1  0.109818  0  0.109556  0.112658  0  1.011893  0
H  H17  1  0.52881522  0.51850458  0.79385552  1  0.109818  0  0.109564  0.112649  0  1.011891  0
H  H18  1  0.02881547  0.98149511  0.29385561  1  0.109817  0  0.109561  0.112645  0  1.011894  0
H  H19  1  0.47118446  0.48149549  0.20614431  1  0.109831  0  0.109563  0.112659  0  1.011898  0
H  H20  1  0.12864872  0.99352778  0.60895773  1  0.05631  0  0.113391  0.120185  0  0.976005  0
H  H21  1  0.37135165  0.49352816  0.89104153  1  0.056273  0  0.113387  0.120168  0  0.976  0
H  H22  1  0.87135186  0.00647229  0.39104155  1  0.056288  0  0.11339  0.120164  0  0.97599  0
H  H23  1  0.62864893  0.50647265  0.10895831  1  0.056267  0  0.113383  0.120169  0  0.976012  0
H  H24  1  0.11024476  0.84789797  0.52204985  1  0.119676  0  0.122429  0.09426  0  0.996035  0
H  H25  1  0.38975560  0.34789909  0.97794997  1  0.119689  0  0.122423  0.094255  0  0.996034  0
H  H26  1  0.88975492  0.15210137  0.47794998  1  0.119681  0  0.122414  0.094273  0  0.996009  0
H  H27  1  0.61024499  0.65210172  0.02204987  1  0.11968  0  0.122433  0.094275  0  0.99604  0
H  H28  1  0.21103735  0.24263928  0.86757069  1  0.098958  0  0.112609  0.120931  0  1.001608  0
H  H29  1  0.28896298  0.74263966  0.63242912  1  0.098963  0  0.112595  0.120906  0  1.001582  0
H  H30  1  0.78896323  0.75736080  0.13242914  1  0.098972  0  0.112606  0.12092  0  1.001578  0
H  H31  1  0.71103670  0.25736042  0.36757071  1  0.098967  0  0.1126  0.120913  0  1.001575  0
H  H32  1  0.88159495  0.00165336  0.88553542  1  0.104162  0  0.117483  0.088073  0  1.005477  0
H  H33  1  0.61840539  0.50165371  0.61446377  1  0.104163  0  0.117486  0.088082  0  1.005486  0
H  H34  1  0.11840563  0.99834672  0.11446386  1  0.104161  0  0.117492  0.088085  0  1.005465  0
H  H35  1  0.38159520  0.49834710  0.38553551  1  0.10416  0  0.117495  0.088091  0  1.005487  0
H  H36  1  0.00627220  0.26869635  0.80700162  1  0.073627  0  0.117468  0.089524  0  0.991376  0
H  H37  1  0.49372723  0.76869601  0.69299875  1  0.073438  0  0.117479  0.089545  0  0.991356  0
H  H38  1  0.99372748  0.73130373  0.19299877  1  0.073429  0  0.117473  0.089526  0  0.991363  0
H  H39  1  0.50627244  0.23130406  0.30700164  1  0.073435  0  0.117476  0.089533  0  0.99136  0
H  H40  1  0.96472173  0.32503925  0.29870280  1  0.086854  0  0.119399  0.094404  0  1.010618  0
H  H41  1  0.53527821  0.82503959  0.20129706  1  0.086848  0  0.11939  0.094401  0  1.010612  0
H  H42  1  0.03527885  0.67496083  0.70129704  1  0.086857  0  0.119384  0.094422  0  1.010622  0
H  H43  1  0.46472147  0.17496122  0.79870277  1  0.086858  0  0.119392  0.094426  0  1.010594  0
H  H44  1  0.78187355  0.25518294  0.23213458  1  0.094099  0  0.110427  0.119103  0  1.012959  0
H  H45  1  0.71812638  0.75518331  0.26786527  1  0.094106  0  0.110433  0.119118  0  1.012957  0
H  H46  1  0.21812703  0.74481713  0.76786525  1  0.0941  0  0.110428  0.11912  0  1.012945  0
H  H47  1  0.28187330  0.24481750  0.73213456  1  0.094106  0  0.110435  0.11912  0  1.012937  0
H  H48  1  0.98403586  0.26289664  0.02795559  1  0.113288  0  0.110532  0.122505  0  1.002272  0
H  H49  1  0.51596407  0.76289699  0.47204482  1  0.113282  0  0.110534  0.122527  0  1.002247  0
H  H50  1  0.01596472  0.73710344  0.97204480  1  0.113275  0  0.110527  0.122501  0  1.002253  0
H  H51  1  0.48403561  0.23710309  0.52795501  1  0.113276  0  0.110536  0.122526  0  1.002262  0
H  H52  1  0.16103414  0.32975389  0.10246118  1  0.0824  0  0.117038  0.091039  0  0.99309  0
H  H53  1  0.33896576  0.82975354  0.39753874  1  0.082401  0  0.117039  0.091029  0  0.99307  0
H  H54  1  0.83896554  0.67024692  0.89753865  1  0.082408  0  0.117021  0.09101  0  0.993108  0
H  H55  1  0.66103392  0.17024653  0.60246109  1  0.082403  0  0.117018  0.090991  0  0.993117  0
C  C56  1  0.86345144  0.89474614  0.66801669  1  -0.029714  0  -0.003474  -0.024222  0  3.995592  0
C  C57  1  0.63654897  0.39474649  0.83198362  1  -0.029709  0  -0.003538  -0.02421  0  3.995562  0
C  C58  1  0.13654824  0.10525393  0.33198426  1  -0.029717  0  -0.0035  -0.024077  0  3.995446  0
C  C59  1  0.36345162  0.60525432  0.16801566  1  -0.029714  0  -0.003497  -0.024097  0  3.995462  0
C  C60  1  0.60838966  0.00772694  0.87446787  1  1.549159  0  0.220193  0.610336  0  4.179456  0
C  C61  1  0.89161068  0.50772659  0.62553188  1  1.549227  0  0.220209  0.610332  0  4.179449  0
C  C62  1  0.39161002  0.99227314  0.12553196  1  1.54914  0  0.220157  0.610282  0  4.179476  0
C  C63  1  0.10838990  0.49227275  0.37446796  1  1.549149  0  0.220135  0.610251  0  4.17951  0
C  C64  1  0.66123585  0.93895573  0.82109885  1  0.397535  0  0.07361  -0.003913  0  3.980325  0
C  C65  1  0.83876456  0.43895537  0.67890146  1  0.39747  0  0.073645  -0.003852  0  3.980333  0
C  C66  1  0.33876383  0.06104288  0.17890154  1  0.3975  0  0.073581  -0.003979  0  3.98024  0
C  C67  1  0.16123602  0.56104324  0.32109838  1  0.397498  0  0.073586  -0.003978  0  3.980282  0
C  C68  1  0.77247619  0.89614909  0.72689282  1  0.978463  0  0.207377  0.302903  0  4.04643  0
C  C69  1  0.72752421  0.39614872  0.77310749  1  0.97847  0  0.20737  0.302854  0  4.046318  0
C  C70  1  0.22752439  0.10385098  0.27310757  1  0.978469  0  0.207383  0.302832  0  4.046299  0
C  C71  1  0.27247546  0.60385063  0.22689234  1  0.97846  0  0.207392  0.302869  0  4.046373  0
C  C72  1  0.65446214  0.83609733  0.81301177  1  0.436362  0  0.082219  0.005343  0  3.953974  0
C  C73  1  0.84553825  0.33609696  0.68698854  1  0.436362  0  0.082263  0.005382  0  3.953885  0
C  C74  1  0.34553754  0.16390422  0.18698806  1  0.436168  0  0.082261  0.005398  0  3.953833  0
C  C75  1  0.15446233  0.66390385  0.31301130  1  0.436173  0  0.082257  0.005372  0  3.953879  0
C  C76  1  0.60842499  0.75447486  0.86109956  1  1.617011  0  0.221118  0.608746  0  4.213669  0
C  C77  1  0.89157539  0.25447450  0.63890019  1  1.617017  0  0.221092  0.608717  0  4.213624  0
C  C78  1  0.39157560  0.24552375  0.13890028  1  1.617187  0  0.221054  0.60863  0  4.213693  0
C  C79  1  0.10842429  0.74552411  0.36109964  1  1.617202  0  0.22106  0.608663  0  4.213705  0
C  C80  1  0.28459718  0.07502691  0.94348805  1  1.61129  0  0.231247  0.628673  0  4.156632  0
C  C81  1  0.21540222  0.57502654  0.55651176  1  1.611293  0  0.231258  0.628667  0  4.156667  0
C  C82  1  0.71540249  0.92497390  0.05651234  1  1.611302  0  0.231226  0.628645  0  4.15671  0
C  C83  1  0.78459746  0.42497353  0.44348807  1  1.611273  0  0.231259  0.628634  0  4.156713  0
C  C84  1  0.16227540  0.09960982  0.90970827  1  0.006831  0  0.008472  0.020646  0  3.910685  0
C  C85  1  0.33772491  0.59960946  0.59029154  1  0.006841  0  0.00848  0.020662  0  3.910659  0
C  C86  1  0.83772518  0.90039026  0.09029213  1  0.006841  0  0.008457  0.020615  0  3.910724  0
C  C87  1  0.66227477  0.40039061  0.40970829  1  0.00686  0  0.008491  0.020678  0  3.910652  0
C  C88  1  0.06823107  0.03141930  0.91506735  1  -0.032679  0  -0.074634  -0.137905  0  3.936212  0
C  C89  1  0.43176923  0.53141896  0.58493190  1  -0.032701  0  -0.074664  -0.137991  0  3.9362  0
C  C90  1  0.93176951  0.96858151  0.08493248  1  -0.032705  0  -0.074651  -0.137969  0  3.936237  0
C  C91  1  0.56823136  0.46858112  0.41506794  1  -0.032694  0  -0.074661  -0.137982  0  3.936186  0
C  C92  1  0.85829402  0.82015534  0.61412444  1  0.521452  0  0.052746  0.064052  0  3.944276  0
C  C93  1  0.64170638  0.32015569  0.88587531  1  0.521407  0  0.052809  0.06414  0  3.944336  0
C  C94  1  0.14170657  0.17984474  0.38587540  1  0.521404  0  0.05277  0.064041  0  3.944276  0
C  C95  1  0.35829330  0.67984513  0.11412452  1  0.521398  0  0.052757  0.06403  0  3.944263  0
C  C96  1  0.96276892  0.95873587  0.66611523  1  -0.011192  0  -0.05984  -0.043276  0  3.9123  0
C  C97  1  0.53723240  0.45873694  0.83388509  1  -0.011199  0  -0.059827  -0.043289  0  3.912139  0
C  C98  1  0.03723257  0.04126274  0.33388517  1  -0.011208  0  -0.059806  -0.043292  0  3.912197  0
C  C99  1  0.46276818  0.54126387  0.16611475  1  -0.011201  0  -0.05979  -0.043254  0  3.912264  0
C  C100  1  0.05134383  0.94412923  0.61231759  1  0.020594  0  -0.080759  -0.129245  0  3.980802  0
C  C101  1  0.44865654  0.44413035  0.88768279  1  0.020625  0  -0.080786  -0.129243  0  3.980726  0
C  C102  1  0.94865765  0.05587011  0.38768281  1  0.020623  0  -0.080773  -0.129214  0  3.980746  0
C  C103  1  0.55134314  0.55587120  0.11231760  1  0.020646  0  -0.08078  -0.129275  0  3.980778  0
C  C104  1  0.04166355  0.86451686  0.56365539  1  0.471018  0  0.054125  0.103637  0  3.958869  0
C  C105  1  0.45833771  0.36451724  0.93634442  1  0.471033  0  0.054141  0.103646  0  3.958898  0
C  C106  1  0.95833794  0.13548249  0.43634445  1  0.471042  0  0.054132  0.103601  0  3.958833  0
C  C107  1  0.54166287  0.63548357  0.06365541  1  0.471038  0  0.054121  0.103631  0  3.958812  0
C  C108  1  0.13989567  0.18759073  0.87179177  1  -0.083808  0  -0.076956  -0.145037  0  3.947285  0
C  C109  1  0.36010465  0.68759038  0.62820804  1  -0.083569  0  -0.07696  -0.14502  0  3.947235  0
C  C110  1  0.86010491  0.81241008  0.12820807  1  -0.083794  0  -0.076951  -0.145011  0  3.947306  0
C  C111  1  0.63989503  0.31240970  0.37179179  1  -0.083782  0  -0.076947  -0.145022  0  3.947244  0
C  C112  1  0.95717552  0.05275660  0.88207695  1  0.486627  0  0.049144  0.095676  0  3.951932  0
C  C113  1  0.54282392  0.55275621  0.61792391  1  0.486644  0  0.049131  0.095679  0  3.95188  0
C  C114  1  0.04282325  0.94724421  0.11792399  1  0.486634  0  0.049131  0.095678  0  3.951974  0
C  C115  1  0.45717576  0.44724386  0.38207704  1  0.486633  0  0.049124  0.095653  0  3.951964  0
C  C116  1  0.02664338  0.20236910  0.83893362  1  0.535273  0  0.047739  0.090133  0  3.955157  0
C  C117  1  0.47335695  0.70236877  0.66106563  1  0.535234  0  0.047739  0.09012  0  3.955164  0
C  C118  1  0.97335630  0.79762951  0.16106565  1  0.535368  0  0.047719  0.090138  0  3.955127  0
C  C119  1  0.52664364  0.29762984  0.33893420  1  0.535363  0  0.047719  0.090133  0  3.955119  0
C  C120  1  0.96563835  0.31006118  0.23875865  1  0.479286  0  0.045592  0.088405  0  3.942846  0
C  C121  1  0.53436159  0.81006079  0.26124121  1  0.479283  0  0.045596  0.088413  0  3.942844  0
C  C122  1  0.03436133  0.68993963  0.76124118  1  0.479285  0  0.045632  0.088421  0  3.942862  0
C  C123  1  0.46563809  0.18993928  0.73875862  1  0.479283  0  0.045598  0.088396  0  3.942825  0
C  C124  1  0.86463842  0.27167483  0.20208651  1  -0.023527  0  -0.075307  -0.137307  0  3.933558  0
C  C125  1  0.63536151  0.77167519  0.29791391  1  -0.023514  0  -0.075353  -0.137381  0  3.933547  0
C  C126  1  0.13536126  0.72832525  0.79791388  1  -0.023508  0  -0.07538  -0.137433  0  3.933542  0
C  C127  1  0.36463908  0.22832562  0.70208593  1  -0.023615  0  -0.075376  -0.137396  0  3.933519  0
C  C128  1  0.97760494  0.27582937  0.08789138  1  -0.023346  0  -0.077837  -0.142001  0  3.941162  0
C  C129  1  0.52239408  0.77582899  0.41210847  1  -0.023356  0  -0.077847  -0.142081  0  3.941208  0
C  C130  1  0.02239474  0.72417071  0.91210845  1  -0.023349  0  -0.077838  -0.142037  0  3.941143  0
C  C131  1  0.47760559  0.22417109  0.58789136  1  -0.023359  0  -0.077851  -0.142095  0  3.941202  0
C  C132  1  0.07477970  0.31303149  0.12882420  1  0.504787  0  0.04256  0.084588  0  3.965317  0
C  C133  1  0.42522020  0.81303115  0.37117572  1  0.504778  0  0.042552  0.084606  0  3.965351  0
C  C134  1  0.92522089  0.68696933  0.87117564  1  0.504786  0  0.042578  0.08463  0  3.965346  0
C  C135  1  0.57477948  0.18696893  0.62882411  1  0.50478  0  0.042609  0.084705  0  3.965341  0
C  C136  1  0.76262911  0.21361334  0.08351317  1  1.53507  0  0.188195  0.558584  0  4.253912  0
C  C137  1  0.73736900  0.71361518  0.41648891  1  1.534845  0  0.188218  0.558602  0  4.253818  0
C  C138  1  0.23736876  0.78638527  0.91648889  1  1.534832  0  0.188212  0.558596  0  4.25383  0
C  C139  1  0.26263158  0.28638490  0.58351093  1  1.534833  0  0.188207  0.558615  0  4.253836  0
C  C140  1  0.87018665  0.25427848  0.12520773  1  -0.016248  0  0.006838  0.029057  0  3.930875  0
C  C141  1  0.62981237  0.75427884  0.37479268  1  -0.016257  0  0.006916  0.029197  0  3.930774  0
C  C142  1  0.12981303  0.74572160  0.87479266  1  -0.016263  0  0.006908  0.029183  0  3.930752  0
C  C143  1  0.37018731  0.24572124  0.62520715  1  -0.016162  0  0.006918  0.029179  0  3.930796  0
N  N144  1  0.94604778  0.80321049  0.56465001  1  -1.259854  0  -0.376353  -0.33435  0  3.511306  0
N  N145  1  0.55395261  0.30321083  0.93535030  1  -1.259851  0  -0.376336  -0.334369  0  3.511339  0
N  N146  1  0.05395280  0.19678958  0.43534982  1  -1.259853  0  -0.37634  -0.33436  0  3.511279  0
N  N147  1  0.44604707  0.69678998  0.06465009  1  -1.259862  0  -0.376343  -0.334373  0  3.511297  0
N  N148  1  0.72283180  0.81173319  0.75252951  1  -1.194099  0  -0.356372  -0.384234  0  3.484888  0
N  N149  1  0.77716859  0.31173282  0.74747024  1  -1.194122  0  -0.356363  -0.384208  0  3.48484  0
N  N150  1  0.27716878  0.18826615  0.24747033  1  -1.194113  0  -0.356402  -0.38425  0  3.484862  0
N  N151  1  0.22283109  0.68826578  0.25252959  1  -1.194108  0  -0.356376  -0.38421  0  3.484877  0
N  N152  1  0.06922484  0.33009894  0.20286256  1  -1.223662  0  -0.327237  -0.241256  0  3.492238  0
N  N153  1  0.43077505  0.83009860  0.29713735  1  -1.223659  0  -0.327227  -0.241246  0  3.492246  0
N  N154  1  0.93077483  0.66990114  0.79713727  1  -1.223665  0  -0.327233  -0.241252  0  3.492266  0
N  N155  1  0.56922463  0.16990075  0.70286248  1  -1.223652  0  -0.327244  -0.241279  0  3.49222  0
N  N156  1  0.93680688  0.13604044  0.84357723  1  -1.234291  0  -0.323577  -0.238425  0  3.497164  0
N  N157  1  0.56319348  0.63604079  0.65642252  1  -1.234307  0  -0.323572  -0.238438  0  3.49713  0
N  N158  1  0.06319280  0.86395964  0.15642260  1  -1.234205  0  -0.323573  -0.238456  0  3.497168  0
N  N159  1  0.43680710  0.36396002  0.34357732  1  -1.234203  0  -0.32357  -0.238436  0  3.497154  0
N  N160  1  0.73682974  0.97483277  0.76675633  1  -1.203556  0  -0.354043  -0.368933  0  3.447776  0
N  N161  1  0.76317068  0.47483313  0.73324342  1  -1.203548  0  -0.354097  -0.368982  0  3.447779  0
N  N162  1  0.26316903  0.02516731  0.23324405  1  -1.203493  0  -0.354037  -0.368881  0  3.447789  0
N  N163  1  0.23683081  0.52516768  0.26675530  1  -1.203494  0  -0.354062  -0.368909  0  3.447863  0
O  O164  1  0.64305812  0.09807327  0.87442018  1  -1.177044  0  -0.352941  -0.611283  0  2.315006  0
O  O165  1  0.85694223  0.59807293  0.62557957  1  -1.177032  0  -0.352951  -0.61128  0  2.314962  0
O  O166  1  0.35694246  0.90192680  0.12557910  1  -1.177039  0  -0.352919  -0.611262  0  2.314997  0
O  O167  1  0.14305745  0.40192642  0.37442082  1  -1.177056  0  -0.352903  -0.611248  0  2.315007  0
O  O168  1  0.53052317  0.98100987  0.92227547  1  -1.198228  0  -0.420968  -0.694091  0  2.495564  0
O  O169  1  0.96947634  0.48100952  0.57772483  1  -1.198247  0  -0.42097  -0.69408  0  2.4956  0
O  O170  1  0.46947651  0.01899021  0.07772436  1  -1.198263  0  -0.420986  -0.694096  0  2.495591  0
O  O171  1  0.03052333  0.51898982  0.42227556  1  -1.198254  0  -0.42098  -0.694069  0  2.495584  0
O  O172  1  0.36800849  0.13865544  0.93844101  1  -1.177313  0  -0.36247  -0.632902  0  2.258102  0
O  O173  1  0.13199092  0.63865506  0.56155880  1  -1.177306  0  -0.362455  -0.632881  0  2.258125  0
O  O174  1  0.63199118  0.86134464  0.06155883  1  -1.177307  0  -0.362464  -0.632889  0  2.258056  0
O  O175  1  0.86800876  0.36134501  0.43844103  1  -1.177309  0  -0.36248  -0.632904  0  2.258021  0
O  O176  1  0.56249518  0.77381963  0.92395434  1  -1.197039  0  -0.416292  -0.65298  0  2.398564  0
O  O177  1  0.93750520  0.27381928  0.57604596  1  -1.197038  0  -0.416294  -0.652996  0  2.398625  0
O  O178  1  0.43750540  0.22618045  0.07604549  1  -1.197048  0  -0.416263  -0.652913  0  2.398465  0
O  O179  1  0.06249448  0.72618080  0.42395443  1  -1.197043  0  -0.416274  -0.652928  0  2.398545  0
O  O180  1  0.67463792  0.17937271  0.12055605  1  -1.17235  0  -0.368414  -0.599922  0  2.155581  0
O  O181  1  0.82536199  0.67937310  0.37944492  1  -1.172262  0  -0.368446  -0.59994  0  2.155393  0
O  O182  1  0.32536175  0.82062736  0.87944434  1  -1.17227  0  -0.368423  -0.599917  0  2.155406  0
O  O183  1  0.17463859  0.32062698  0.62055548  1  -1.172258  0  -0.368442  -0.599951  0  2.155379  0
O  O184  1  0.76396966  0.21508897  0.01213853  1  -1.129348  0  -0.376498  -0.627786  0  2.213825  0
O  O185  1  0.73602936  0.71508935  0.48786244  1  -1.129196  0  -0.376508  -0.62782  0  2.21393  0
O  O186  1  0.23603002  0.78491111  0.98786242  1  -1.129184  0  -0.376517  -0.627813  0  2.213903  0
O  O187  1  0.26397032  0.28491073  0.51213795  1  -1.129193  0  -0.376511  -0.627812  0  2.213915  0
O  O188  1  0.29116032  0.99114842  0.97402801  1  -1.184693  0  -0.377023  -0.639794  0  2.341619  0
O  O189  1  0.20884006  0.49114804  0.52597180  1  -1.184705  0  -0.377026  -0.639783  0  2.34162  0
O  O190  1  0.70883936  0.00885165  0.02597182  1  -1.184703  0  -0.376984  -0.63974  0  2.341699  0
O  O191  1  0.79116052  0.50885130  0.47402860  1  -1.184701  0  -0.377021  -0.639735  0  2.341741  0
O  O192  1  0.62492196  0.66689112  0.83850814  1  -1.159883  0  -0.330051  -0.549149  0  2.24535  0
O  O193  1  0.87507750  0.16689076  0.66149161  1  -1.159895  0  -0.330068  -0.549162  0  2.245352  0
O  O194  1  0.37507681  0.33310749  0.16149169  1  -1.159846  0  -0.330046  -0.549116  0  2.245411  0
O  O195  1  0.12492309  0.83310785  0.33850823  1  -1.159858  0  -0.330024  -0.549109  0  2.245356  0
