# generated using pymatgen
data_CuH7C9N2
_symmetry_space_group_name_H-M   'P 1'
_cell_length_a   33.69035149
_cell_length_b   34.31785406
_cell_length_c   34.46183119
_cell_angle_alpha   90.09183348
_cell_angle_beta   90.08882060
_cell_angle_gamma   90.00749295
_symmetry_Int_Tables_number   1
_chemical_formula_structural   CuH7C9N2
_chemical_formula_sum   'Cu12 H84 C108 N24'
_cell_volume   39844.00006294
_cell_formula_units_Z   12
loop_
 _symmetry_equiv_pos_site_id
 _symmetry_equiv_pos_as_xyz
  1  'x, y, z'
loop_
 _atom_site_type_symbol
 _atom_site_label
 _atom_site_symmetry_multiplicity
 _atom_site_fract_x
 _atom_site_fract_y
 _atom_site_fract_z
 _atom_site_occupancy
 _atom_site_pbe_bader_charge
 _atom_site_pbe_bader_spin_density
 _atom_site_pbe_cm5_charge
 _atom_site_pbe_ddec_charge
 _atom_site_pbe_ddec_spin_density
 _atom_site_pbe_ddec_sum_bond_order
 _atom_site_pbe_magmom
Cu  Cu0  1  0.87556277  0.90918387  0.82581728  1  0.538836  0  0.484943  0.202066  0  2.124833  0
Cu  Cu1  1  0.83948887  0.87502784  0.90340007  1  0.544679  0  0.485277  0.205809  0  2.110038  0
Cu  Cu2  1  0.92337846  0.84492496  0.87229852  1  0.542364  0  0.485403  0.205761  0  2.11586  0
Cu  Cu3  1  0.11775218  0.58215370  0.33389397  1  0.541974  0  0.486229  0.203266  0  2.130906  0
Cu  Cu4  1  0.15890466  0.62318377  0.40590750  1  0.54593  0  0.485829  0.206817  0  2.111562  0
Cu  Cu5  1  0.07507772  0.65323789  0.37485162  1  0.542869  0  0.485262  0.204059  0  2.116064  0
Cu  Cu6  1  0.37461281  0.09294119  0.65078149  1  0.545045  0  0.486758  0.20568  0  2.120152  0
Cu  Cu7  1  0.33918422  0.12762652  0.57296408  1  0.542797  0  0.485642  0.203542  0  2.124336  0
Cu  Cu8  1  0.40387428  0.17543936  0.62092174  1  0.543404  0  0.484349  0.204682  0  2.113852  0
Cu  Cu9  1  0.62601544  0.41035497  0.15011952  1  0.544264  0  0.486476  0.205721  0  2.117569  0
Cu  Cu10  1  0.66303361  0.37441736  0.07335287  1  0.543586  0  0.484744  0.203485  0  2.120183  0
Cu  Cu11  1  0.59870970  0.32676327  0.12139642  1  0.541259  0  0.486061  0.203926  0  2.122218  0
H  H12  1  0.36069196  0.40073787  0.44846046  1  0.037519  0  0.096642  0.098872  0  1.011591  0
H  H13  1  0.46119496  0.35750603  0.38466559  1  0.063518  0  0.097728  0.100096  0  1.014028  0
H  H14  1  0.39794644  0.45865912  0.34383804  1  0.045054  0  0.096908  0.09868  0  1.01201  0
H  H15  1  0.60252412  0.04262028  0.84342515  1  0.061382  0  0.097255  0.099182  0  1.014726  0
H  H16  1  0.53926374  0.14260147  0.88674197  1  0.059106  0  0.097347  0.099938  0  1.012887  0
H  H17  1  0.64391494  0.10206066  0.94606356  1  0.031314  0  0.096527  0.098378  0  1.012236  0
H  H18  1  0.78807958  0.64907020  0.09429759  1  0.055282  0  0.097264  0.099616  0  1.013118  0
H  H19  1  0.89124767  0.71021355  0.13636966  1  0.047446  0  0.097019  0.09933  0  1.011664  0
H  H20  1  0.84880798  0.60865013  0.19667407  1  0.057539  0  0.097013  0.098937  0  1.014187  0
H  H21  1  0.15060440  0.89487257  0.69527806  1  0.033793  0  0.096924  0.098755  0  1.015194  0
H  H22  1  0.11190977  0.79070923  0.63657590  1  0.047678  0  0.097303  0.099582  0  1.011264  0
H  H23  1  0.21171298  0.85535772  0.59271468  1  0.06683  0  0.097216  0.099033  0  1.014716  0
H  H24  1  0.80453133  0.96312956  0.79796955  1  0.092186  0  0.120219  0.112434  0  0.987955  0
H  H25  1  0.76005902  0.92524593  0.90962836  1  0.119253  0  0.120393  0.111631  0  0.989629  0
H  H26  1  0.99983846  0.83638727  0.81883842  1  0.10064  0  0.120408  0.11098  0  0.989843  0
H  H27  1  0.93870036  0.93110444  0.76109944  1  0.135425  0  0.120397  0.112757  0  0.98867  0
H  H28  1  0.82993901  0.82249989  0.97814454  1  0.124902  0  0.120519  0.111242  0  0.989722  0
H  H29  1  0.94626472  0.78554889  0.93923094  1  0.109744  0  0.120256  0.112572  0  0.98784  0
H  H30  1  0.18488469  0.52250646  0.30923605  1  0.095385  0  0.120577  0.112879  0  0.988625  0
H  H31  1  0.24002266  0.57563712  0.40993831  1  0.100033  0  0.12034  0.110296  0  0.990312  0
H  H32  1  0.00109828  0.66468634  0.31843803  1  0.118811  0  0.120597  0.111262  0  0.989786  0
H  H33  1  0.05277123  0.55930994  0.27092138  1  0.105059  0  0.120406  0.11245  0  0.988638  0
H  H34  1  0.17052990  0.67832012  0.47869857  1  0.100342  0  0.120305  0.110643  0  0.991279  0
H  H35  1  0.05374193  0.71482964  0.44049475  1  0.080709  0  0.120545  0.113187  0  0.988582  0
H  H36  1  0.32577108  0.01410189  0.65675443  1  0.092561  0  0.120314  0.11103  0  0.991164  0
H  H37  1  0.28534093  0.05661974  0.54514969  1  0.0789  0  0.120288  0.112496  0  0.988272  0
H  H38  1  0.46305158  0.19897551  0.68947084  1  0.128265  0  0.120428  0.112816  0  0.987501  0
H  H39  1  0.42731097  0.08346393  0.72616272  1  0.102126  0  0.120231  0.110482  0  0.992574  0
H  H40  1  0.31705609  0.18988108  0.50830832  1  0.100327  0  0.120481  0.11306  0  0.987891  0
H  H41  1  0.41224160  0.25031897  0.56792820  1  0.099271  0  0.120308  0.111027  0  0.990951  0
H  H42  1  0.67413108  0.48940867  0.15590140  1  0.086852  0  0.120417  0.110933  0  0.991211  0
H  H43  1  0.71929468  0.44417643  0.04711106  1  0.074086  0  0.120397  0.112535  0  0.987635  0
H  H44  1  0.54194430  0.30218429  0.19086944  1  0.069057  0  0.120249  0.112566  0  0.988339  0
H  H45  1  0.57248567  0.41997490  0.22522981  1  0.072716  0  0.120404  0.111676  0  0.990541  0
H  H46  1  0.68444867  0.31216014  0.00836757  1  0.112211  0  0.120233  0.112817  0  0.986302  0
H  H47  1  0.58997148  0.25162946  0.06851768  1  0.099157  0  0.120339  0.111267  0  0.990849  0
H  H48  1  0.66768532  0.02542076  0.83996976  1  0.053687  0  0.098824  0.095951  0  0.994414  0
H  H49  1  0.72062779  0.99094019  0.90558333  1  0.027055  0  0.097561  0.095767  0  0.991798  0
H  H50  1  0.67384410  0.04051139  0.92789206  1  0.075224  0  0.096582  0.095941  0  0.998737  0
H  H51  1  0.72557681  0.98777455  0.81639162  1  0.050488  0  0.09857  0.098786  0  0.991409  0
H  H52  1  0.32696015  0.46834722  0.34260778  1  0.026282  0  0.099107  0.096901  0  0.991825  0
H  H53  1  0.28382392  0.51316512  0.40895076  1  0.024653  0  0.097612  0.096433  0  0.991499  0
H  H54  1  0.33415264  0.46653936  0.43165759  1  0.048593  0  0.096885  0.097016  0  0.996629  0
H  H55  1  0.26448995  0.50022054  0.32250080  1  0.047884  0  0.098867  0.099483  0  0.991121  0
H  H56  1  0.22602961  0.92029655  0.58825933  1  0.057402  0  0.098846  0.095783  0  0.993321  0
H  H57  1  0.26086960  0.97353172  0.65313314  1  0.022561  0  0.097466  0.095924  0  0.991147  0
H  H58  1  0.21241446  0.92609432  0.67643410  1  0.025528  0  0.096584  0.095946  0  0.998424  0
H  H59  1  0.26221409  0.97844339  0.56389047  1  0.039442  0  0.098482  0.098797  0  0.993203  0
H  H60  1  0.77772955  0.58080373  0.08949486  1  0.040259  0  0.099219  0.09682  0  0.992803  0
H  H61  1  0.73571635  0.53273550  0.15404697  1  0.045815  0  0.097578  0.095886  0  0.992253  0
H  H62  1  0.78314898  0.58117750  0.17870363  1  0.06113  0  0.096562  0.096873  0  0.997299  0
H  H63  1  0.74398970  0.52119535  0.06575238  1  0.029184  0  0.099036  0.099584  0  0.991992  0
H  H64  1  0.07889085  0.89662159  0.70325663  1  0.050213  0  0.098484  0.096308  0  0.993021  0
H  H65  1  0.03852653  0.83194323  0.75275161  1  0.035336  0  0.097519  0.096688  0  0.990623  0
H  H66  1  0.08745399  0.80732048  0.70437739  1  0.064405  0  0.097382  0.098496  0  0.995673  0
H  H67  1  0.01768281  0.91764714  0.73584213  1  0.048  0  0.09861  0.0986  0  0.992104  0
H  H68  1  0.47538346  0.35157602  0.32100384  1  0.041887  0  0.099137  0.096346  0  0.995321  0
H  H69  1  0.50853139  0.41532924  0.26572388  1  0.058278  0  0.097865  0.096618  0  0.99089  0
H  H70  1  0.45955445  0.43952840  0.31224577  1  0.038823  0  0.096428  0.095977  0  0.999352  0
H  H71  1  0.51354462  0.32567352  0.26526094  1  0.034227  0  0.098715  0.098882  0  0.992702  0
H  H72  1  0.91833309  0.60346405  0.20599688  1  0.046635  0  0.098671  0.096173  0  0.993417  0
H  H73  1  0.96422893  0.66717851  0.25226740  1  0.059998  0  0.097737  0.09664  0  0.991159  0
H  H74  1  0.91717716  0.69313384  0.20294479  1  0.047366  0  0.097214  0.097635  0  0.995969  0
H  H75  1  0.97642010  0.57884458  0.24158939  1  0.060008  0  0.098842  0.099256  0  0.991041  0
H  H76  1  0.52845529  0.14954359  0.82011034  1  0.067603  0  0.098672  0.0962  0  0.993688  0
H  H77  1  0.48875544  0.08596701  0.76853123  1  0.039537  0  0.097354  0.09603  0  0.991113  0
H  H78  1  0.53722725  0.06031536  0.81564738  1  0.040677  0  0.09657  0.097116  0  0.997634  0
H  H79  1  0.49240541  0.17553173  0.76330225  1  0.0568  0  0.098783  0.099453  0  0.991809  0
H  H80  1  0.89738305  0.72039891  0.06929343  1  0.037003  0  0.098908  0.096422  0  0.992805  0
H  H81  1  0.83217406  0.76113049  0.01977361  1  0.057424  0  0.097398  0.095968  0  0.991785  0
H  H82  1  0.80626717  0.71347907  0.06682572  1  0.053674  0  0.09653  0.096991  0  0.997257  0
H  H83  1  0.92315834  0.75606338  0.01242804  1  0.081427  0  0.098898  0.099137  0  0.991432  0
H  H84  1  0.35428776  0.32981771  0.45338106  1  0.040512  0  0.099224  0.097217  0  0.992219  0
H  H85  1  0.41884371  0.28594867  0.50112133  1  0.040119  0  0.097552  0.096593  0  0.990679  0
H  H86  1  0.44561231  0.33342767  0.45324765  1  0.037285  0  0.097252  0.09777  0  0.995545  0
H  H87  1  0.33051036  0.26933355  0.48487634  1  0.063622  0  0.099285  0.100052  0  0.991665  0
H  H88  1  0.64796026  0.17280470  0.95274698  1  0.066739  0  0.098909  0.096363  0  0.992224  0
H  H89  1  0.58348165  0.21451023  0.00241371  1  0.041148  0  0.097579  0.096623  0  0.991103  0
H  H90  1  0.55681838  0.16657389  0.95476030  1  0.071108  0  0.097519  0.09844  0  0.995321  0
H  H91  1  0.67090503  0.23338391  0.98434035  1  0.069342  0  0.09903  0.099275  0  0.99223  0
H  H92  1  0.10436565  0.78112846  0.56953698  1  0.03285  0  0.098881  0.096774  0  0.994104  0
H  H93  1  0.16918451  0.74089772  0.51917919  1  0.029375  0  0.097382  0.096242  0  0.991385  0
H  H94  1  0.19528422  0.78969486  0.56583421  1  0.072903  0  0.096621  0.097107  0  0.997088  0
H  H95  1  0.07801872  0.74520492  0.51332411  1  0.05575  0  0.098946  0.098994  0  0.991479  0
C  C96  1  0.37492725  0.43248337  0.39617449  1  -0.014415  0  -0.017749  0.117927  0  4.091116  0
C  C97  1  0.38027032  0.40239559  0.42329600  1  -0.038876  0  -0.093704  -0.189957  0  3.91079  0
C  C98  1  0.41065991  0.37468830  0.41897706  1  0.007489  0  -0.017016  0.117872  0  4.091275  0
C  C99  1  0.43671201  0.37813547  0.38743790  1  -0.035777  0  -0.093963  -0.188862  0  3.910051  0
C  C100  1  0.43193030  0.40763437  0.35951578  1  -0.067395  0  -0.017486  0.117959  0  4.091442  0
C  C101  1  0.40112932  0.43483260  0.36457762  1  -0.018045  0  -0.093664  -0.189933  0  3.906421  0
C  C102  1  0.62786882  0.06966869  0.89455501  1  -0.022678  0  -0.018471  0.117905  0  4.090297  0
C  C103  1  0.59999334  0.06645217  0.86429319  1  -0.071887  0  -0.093644  -0.188839  0  3.906013  0
C  C104  1  0.56855597  0.09307121  0.86045000  1  0.007718  0  -0.016427  0.11917  0  4.091331  0
C  C105  1  0.56439536  0.12260174  0.88852069  1  -0.057447  0  -0.094183  -0.190087  0  3.909677  0
C  C106  1  0.59177835  0.12669033  0.91900533  1  -0.026882  0  -0.016707  0.118806  0  4.090817  0
C  C107  1  0.62317302  0.09987885  0.92178060  1  -0.007154  0  -0.093241  -0.190206  0  3.909511  0
C  C108  1  0.81587376  0.62428446  0.14517369  1  0.021509  0  -0.017335  0.118614  0  4.091584  0
C  C109  1  0.81264346  0.65146741  0.11485946  1  -0.081537  0  -0.093761  -0.189974  0  3.910361  0
C  C110  1  0.84006282  0.68204970  0.11075436  1  -0.038127  0  -0.017759  0.118135  0  4.090591  0
C  C111  1  0.87053523  0.68583758  0.13844805  1  -0.019133  0  -0.093713  -0.189683  0  3.906596  0
C  C112  1  0.87457166  0.65915980  0.16907361  1  0.014214  0  -0.017336  0.117787  0  4.088605  0
C  C113  1  0.84672488  0.62882299  0.17229251  1  -0.05237  0  -0.094  -0.189755  0  3.910726  0
C  C114  1  0.18363269  0.87982976  0.64368658  1  0.021793  0  -0.016565  0.117302  0  4.093337  0
C  C115  1  0.15325705  0.87444821  0.67110235  1  -0.051226  0  -0.093936  -0.189814  0  3.911659  0
C  C116  1  0.12685010  0.84282515  0.66863265  1  -0.023894  0  -0.01697  0.119613  0  4.087075  0
C  C117  1  0.13157040  0.81595782  0.63821899  1  -0.041439  0  -0.095122  -0.191264  0  3.906891  0
C  C118  1  0.16136494  0.82070715  0.61006287  1  0.017775  0  -0.016711  0.11913  0  4.089672  0
C  C119  1  0.18761009  0.85232650  0.61362977  1  -0.074044  0  -0.093558  -0.188181  0  3.90768  0
C  C120  1  0.79919483  0.94978796  0.82602727  1  0.390116  0  0.005308  -0.059844  0  3.954776  0
C  C121  1  0.76726141  0.95520906  0.85171135  1  0.055249  0  -0.039863  0.01539  0  4.13284  0
C  C122  1  0.77684226  0.93108333  0.88341306  1  0.359523  0  0.007738  -0.054696  0  3.938537  0
C  C123  1  0.97938603  0.85858384  0.80867076  1  0.407985  0  0.007116  -0.052226  0  3.938983  0
C  C124  1  0.98338813  0.88510725  0.77777677  1  0.034368  0  -0.040127  0.01378  0  4.136477  0
C  C125  1  0.94844422  0.90745759  0.77970299  1  0.353052  0  0.005881  -0.059729  0  3.95542  0
C  C126  1  0.85768724  0.81718924  0.96309028  1  0.379537  0  0.007765  -0.052466  0  3.934766  0
C  C127  1  0.88938462  0.79234751  0.97306474  1  -0.033726  0  -0.0401  0.01488  0  4.134562  0
C  C128  1  0.91733850  0.79883333  0.94347636  1  0.398234  0  0.005762  -0.059149  0  3.951077  0
C  C129  1  0.19285605  0.53959683  0.33460739  1  0.384531  0  0.005452  -0.059695  0  3.957736  0
C  C130  1  0.22749661  0.53804142  0.35737206  1  0.012754  0  -0.039955  0.014806  0  4.135516  0
C  C131  1  0.22078192  0.56617229  0.38645059  1  0.407034  0  0.007667  -0.051148  0  3.936543  0
C  C132  1  0.01920623  0.63965482  0.31087650  1  0.380795  0  0.007731  -0.052795  0  3.937978  0
C  C133  1  0.01302435  0.61100806  0.28216845  1  0.016084  0  -0.039764  0.015327  0  4.13438  0
C  C134  1  0.04524671  0.58543043  0.28712984  1  0.378295  0  0.005522  -0.058716  0  3.954976  0
C  C135  1  0.14259378  0.68342799  0.46383856  1  0.382869  0  0.007518  -0.052551  0  3.938145  0
C  C136  1  0.11113919  0.70858160  0.47373504  1  0.056972  0  -0.039444  0.017181  0  4.13317  0
C  C137  1  0.08267889  0.70155132  0.44463255  1  0.415224  0  0.005926  -0.060502  0  3.954216  0
C  C138  1  0.31922112  0.03035065  0.63051605  1  0.389668  0  0.006504  -0.054865  0  3.941816  0
C  C139  1  0.29473761  0.02027028  0.59888103  1  0.066798  0  -0.03941  0.015609  0  4.132769  0
C  C140  1  0.29924413  0.05174685  0.57316442  1  0.3953  0  0.00548  -0.058512  0  3.954783  0
C  C141  1  0.45009087  0.17024167  0.69311380  1  0.391953  0  0.005341  -0.060009  0  3.949752  0
C  C142  1  0.45679286  0.14251787  0.72245295  1  0.017189  0  -0.038901  0.017412  0  4.130241  0
C  C143  1  0.43235763  0.11101321  0.71157426  1  0.377567  0  0.007723  -0.053237  0  3.941705  0
C  C144  1  0.34079586  0.19954067  0.52735865  1  0.377463  0  0.004919  -0.060493  0  3.953327  0
C  C145  1  0.36331200  0.23401212  0.52603313  1  0.05369  0  -0.040261  0.015277  0  4.135325  0
C  C146  1  0.38999024  0.23006605  0.55726844  1  0.390781  0  0.007149  -0.05383  0  3.943258  0
C  C147  1  0.68166654  0.47261995  0.13024308  1  0.417347  0  0.006642  -0.054336  0  3.9409  0
C  C148  1  0.70774495  0.48179137  0.09967734  1  -0.003798  0  -0.039358  0.016864  0  4.132667  0
C  C149  1  0.70417137  0.44975830  0.07436651  1  0.425753  0  0.005432  -0.059666  0  3.95185  0
C  C150  1  0.55358898  0.33154246  0.19388782  1  0.391114  0  0.005453  -0.059732  0  3.952302  0
C  C151  1  0.54578615  0.35958363  0.22271556  1  0.049572  0  -0.039332  0.016353  0  4.129505  0
C  C152  1  0.56857966  0.39194844  0.21110581  1  0.432469  0  0.006898  -0.055593  0  3.940258  0
C  C153  1  0.66092507  0.30247400  0.02756420  1  0.367114  0  0.005745  -0.059785  0  3.949842  0
C  C154  1  0.63848470  0.26793091  0.02633705  1  0.058025  0  -0.040428  0.015288  0  4.134113  0
C  C155  1  0.61212847  0.27186263  0.05777069  1  0.385674  0  0.006972  -0.055143  0  3.941916  0
C  C156  1  0.66106457  0.04272337  0.89873557  1  -0.094169  0  -0.097216  -0.144647  0  3.996099  0
C  C157  1  0.67839310  0.02194789  0.86979786  1  -0.03647  0  -0.101295  -0.091268  0  4.087507  0
C  C158  1  0.71168656  0.99648491  0.87552340  1  -0.053559  0  -0.105132  -0.101836  0  4.094699  0
C  C159  1  0.73334067  0.98045180  0.84637774  1  -0.015999  0  -0.096854  -0.126492  0  4.0404  0
C  C160  1  0.34250350  0.46021166  0.40159183  1  -0.043092  0  -0.096917  -0.144837  0  3.996119  0
C  C161  1  0.32073084  0.47651345  0.37273614  1  -0.050716  0  -0.101141  -0.092115  0  4.09061  0
C  C162  1  0.28793051  0.50244796  0.37926392  1  0.05546  0  -0.105432  -0.102769  0  4.092719  0
C  C163  1  0.26123988  0.51274241  0.35156719  1  -0.09912  0  -0.096692  -0.12669  0  4.043482  0
C  C164  1  0.20999288  0.91336447  0.64735429  1  -0.071424  0  -0.098016  -0.145355  0  3.997065  0
C  C165  1  0.22988970  0.93100127  0.61799587  1  -0.020961  0  -0.101197  -0.090106  0  4.084422  0
C  C166  1  0.25485805  0.96452189  0.62318427  1  -0.043284  0  -0.106068  -0.10345  0  4.092242  0
C  C167  1  0.26994818  0.98625242  0.59378681  1  -0.007778  0  -0.095606  -0.125575  0  4.039922  0
C  C168  1  0.78829336  0.59170754  0.14913947  1  -0.127772  0  -0.096955  -0.146459  0  3.995949  0
C  C169  1  0.77076522  0.57230031  0.11934738  1  0.007175  0  -0.101937  -0.091866  0  4.091531  0
C  C170  1  0.74496870  0.53937475  0.12432636  1  -0.022671  0  -0.105484  -0.101679  0  4.093315  0
C  C171  1  0.73301692  0.51548819  0.09509565  1  -0.017992  0  -0.096996  -0.128171  0  4.043758  0
C  C172  1  0.09502772  0.83743992  0.69694631  1  -0.077431  0  -0.097128  -0.146878  0  3.993732  0
C  C173  1  0.07331288  0.86666884  0.71278407  1  -0.02843  0  -0.101221  -0.092366  0  4.092485  0
C  C174  1  0.04171790  0.86109183  0.74021944  1  -0.005672  0  -0.105314  -0.102636  0  4.088194  0
C  C175  1  0.01537675  0.88930141  0.75021629  1  -0.108654  0  -0.096025  -0.125177  0  4.044823  0
C  C176  1  0.45790649  0.41076515  0.32586616  1  -0.073146  0  -0.097214  -0.145166  0  3.99707  0
C  C177  1  0.47847238  0.38107610  0.30927989  1  -0.020143  0  -0.101135  -0.0907  0  4.087517  0
C  C178  1  0.50350459  0.38552558  0.27593489  1  0.008865  0  -0.106786  -0.104854  0  4.094021  0
C  C179  1  0.52017749  0.35549683  0.25605529  1  -0.080721  0  -0.096099  -0.125374  0  4.039697  0
C  C180  1  0.90710189  0.66338082  0.19687907  1  -0.002417  0  -0.097198  -0.1449  0  3.992759  0
C  C181  1  0.92643769  0.63332180  0.21408340  1  -0.104145  0  -0.101697  -0.093225  0  4.095818  0
C  C182  1  0.95824517  0.63770116  0.24153628  1  -0.018905  0  -0.105593  -0.102683  0  4.094041  0
C  C183  1  0.98138426  0.60782451  0.25402298  1  -0.093203  0  -0.096473  -0.126442  0  4.043288  0
C  C184  1  0.54126235  0.08961793  0.82767000  1  -0.008373  0  -0.097736  -0.148006  0  3.996127  0
C  C185  1  0.52262617  0.11982185  0.80993681  1  -0.084419  0  -0.101395  -0.091366  0  4.089073  0
C  C186  1  0.49673181  0.11573096  0.77704920  1  -0.030501  0  -0.105792  -0.102777  0  4.087939  0
C  C187  1  0.48284783  0.14601292  0.75560079  1  -0.064161  0  -0.096381  -0.127135  0  4.040465  0
C  C188  1  0.83631999  0.70892955  0.07814185  1  -0.084997  0  -0.097338  -0.147065  0  3.993728  0
C  C189  1  0.86700058  0.72677969  0.05986799  1  -0.024322  0  -0.101295  -0.0915  0  4.089896  0
C  C190  1  0.86251873  0.75265353  0.02745857  1  -0.048919  0  -0.105963  -0.102775  0  4.092243  0
C  C191  1  0.89310324  0.76611460  0.00560392  1  -0.04404  0  -0.096318  -0.125953  0  4.042587  0
C  C192  1  0.41523730  0.34261748  0.44652447  1  -0.034511  0  -0.096605  -0.144768  0  3.991212  0
C  C193  1  0.38461599  0.32253530  0.46233091  1  -0.050257  0  -0.101354  -0.093608  0  4.093958  0
C  C194  1  0.38916044  0.29067798  0.48900284  1  -0.03938  0  -0.105498  -0.102332  0  4.091831  0
C  C195  1  0.35951140  0.26581971  0.49884025  1  -0.072806  0  -0.096431  -0.126718  0  4.043212  0
C  C196  1  0.58724124  0.15833719  0.94712357  1  -0.068812  0  -0.096888  -0.145772  0  3.991988  0
C  C197  1  0.61769449  0.17912661  0.96248458  1  -0.083987  0  -0.101366  -0.091917  0  4.093403  0
C  C198  1  0.61295913  0.21063550  0.98960846  1  -0.049345  0  -0.10559  -0.10328  0  4.091449  0
C  C199  1  0.64222051  0.23619418  0.99898058  1  -0.060394  0  -0.096276  -0.125833  0  4.043318  0
C  C200  1  0.16533020  0.79371152  0.57748401  1  -0.096799  0  -0.097528  -0.147068  0  3.994394  0
C  C201  1  0.13468246  0.77521012  0.55967732  1  -0.027963  0  -0.101307  -0.092372  0  4.093645  0
C  C202  1  0.13890500  0.74916451  0.52729062  1  -0.029648  0  -0.105671  -0.102643  0  4.091868  0
C  C203  1  0.10798487  0.73526643  0.50602829  1  -0.057181  0  -0.09679  -0.12701  0  4.042622  0
N  N204  1  0.81171835  0.91298802  0.87696140  1  -0.775712  0  -0.337408  -0.13927  0  3.770734  0
N  N205  1  0.82580603  0.92489746  0.84146943  1  -0.772287  0  -0.339722  -0.140867  0  3.779461  0
N  N206  1  0.92540759  0.89494143  0.80907988  1  -0.777495  0  -0.339637  -0.139273  0  3.775961  0
N  N207  1  0.94481639  0.86480765  0.82728502  1  -0.776613  0  -0.337498  -0.14129  0  3.775242  0
N  N208  1  0.90321745  0.82507900  0.91786944  1  -0.777181  0  -0.339775  -0.143323  0  3.776732  0
N  N209  1  0.86625734  0.83668112  0.93025737  1  -0.773246  0  -0.33573  -0.137936  0  3.77254  0
N  N210  1  0.18499027  0.58290686  0.38123952  1  -0.793847  0  -0.336428  -0.140052  0  3.774354  0
N  N211  1  0.16749972  0.56617469  0.34920871  1  -0.75515  0  -0.341002  -0.142023  0  3.785126  0
N  N212  1  0.06883284  0.59810056  0.31613949  1  -0.764104  0  -0.340789  -0.142878  0  3.780641  0
N  N213  1  0.05245193  0.63160983  0.33109204  1  -0.778835  0  -0.337468  -0.138768  0  3.7722  0
N  N214  1  0.09629745  0.67469441  0.41935714  1  -0.77483  0  -0.338421  -0.140068  0  3.772999  0
N  N215  1  0.13342158  0.66324060  0.43149914  1  -0.78899  0  -0.337109  -0.140217  0  3.774212  0
N  N216  1  0.32397665  0.07854050  0.58853281  1  -0.781193  0  -0.340173  -0.142625  0  3.782114  0
N  N217  1  0.33665849  0.06505281  0.62399613  1  -0.775809  0  -0.337683  -0.138849  0  3.776615  0
N  N218  1  0.41288004  0.11946106  0.67850401  1  -0.770845  0  -0.338271  -0.13876  0  3.778672  0
N  N219  1  0.42408507  0.15615314  0.66681521  1  -0.789868  0  -0.337751  -0.141379  0  3.772144  0
N  N220  1  0.38371416  0.19595240  0.57555452  1  -0.782037  0  -0.337372  -0.140097  0  3.776327  0
N  N221  1  0.35339536  0.17680145  0.55676512  1  -0.76341  0  -0.339794  -0.141242  0  3.779402  0
N  N222  1  0.67841450  0.42354572  0.08896563  1  -0.780951  0  -0.339397  -0.142021  0  3.778065  0
N  N223  1  0.66422273  0.43793796  0.12353650  1  -0.777952  0  -0.337268  -0.138558  0  3.777635  0
N  N224  1  0.58818353  0.38364638  0.17807145  1  -0.784451  0  -0.337292  -0.137792  0  3.77411  0
N  N225  1  0.57861706  0.34623599  0.16716395  1  -0.768308  0  -0.339065  -0.141305  0  3.778085  0
N  N226  1  0.61852637  0.30601831  0.07605661  1  -0.78763  0  -0.337633  -0.137721  0  3.777053  0
N  N227  1  0.64859456  0.32522500  0.05709815  1  -0.769558  0  -0.339496  -0.141711  0  3.777877  0
