# generated using pymatgen
data_Zn4H6C60I9O13F15
_symmetry_space_group_name_H-M   'P 1'
_cell_length_a   17.83407388
_cell_length_b   17.78888664
_cell_length_c   17.80861768
_cell_angle_alpha   69.55107892
_cell_angle_beta   64.69086628
_cell_angle_gamma   87.46098987
_symmetry_Int_Tables_number   1
_chemical_formula_structural   Zn4H6C60I9O13F15
_chemical_formula_sum   'Zn4 H6 C60 I9 O13 F15'
_cell_volume   4748.65639434
_cell_formula_units_Z   1
loop_
 _symmetry_equiv_pos_site_id
 _symmetry_equiv_pos_as_xyz
  1  'x, y, z'
loop_
 _atom_site_type_symbol
 _atom_site_label
 _atom_site_symmetry_multiplicity
 _atom_site_fract_x
 _atom_site_fract_y
 _atom_site_fract_z
 _atom_site_occupancy
 _atom_site_pbe_bader_charge
 _atom_site_pbe_bader_spin_density
 _atom_site_pbe_cm5_charge
 _atom_site_pbe_ddec_charge
 _atom_site_pbe_ddec_spin_density
 _atom_site_pbe_ddec_sum_bond_order
 _atom_site_pbe_magmom
Zn  Zn0  1  0.56336809  0.43019556  0.43859586  1  1.320043  0  0.674297  0.974158  0  2.355903  0
Zn  Zn1  1  0.47004449  0.58840697  0.42337648  1  1.318392  0  0.680988  0.979006  0  2.332438  0
Zn  Zn2  1  0.56292162  0.53319006  0.54828032  1  1.318336  0  0.675437  0.977246  0  2.388481  0
Zn  Zn3  1  0.38937301  0.43121884  0.60694831  1  1.321274  0  0.684505  0.990211  0  2.26952  0
H  H4  1  0.75852509  0.92817029  0.32687607  1  0.119731  0  0.090784  0.109124  0  1.053508  0
H  H5  1  0.07163799  0.70321277  0.58536261  1  0.114534  0  0.102111  0.134703  0  1.028264  0
H  H6  1  0.46856080  0.48752708  0.20973961  1  0.088329  0  0.112653  0.123378  0  0.996642  0
H  H7  1  0.40616804  0.42094710  0.18685691  1  0.07719  0  0.103012  0.113647  0  1.021898  0
H  H8  1  0.61528488  0.53809437  0.82492361  1  0.096234  0  0.087958  0.108834  0  1.051134  0
H  H9  1  0.60637876  0.13671857  0.41002714  1  0.05765  0  0.091006  0.110196  0  1.053324  0
C  C10  1  0.28840313  0.54172273  0.53772347  1  1.654962  0  0.237169  0.656675  0  4.161274  0
C  C11  1  0.59325544  0.07148979  0.43326576  1  0.046632  0  -0.105041  -0.171368  0  4.020728  0
C  C12  1  0.65306529  0.02904761  0.39301763  1  -0.184986  0  -0.044665  0.026959  0  3.888448  0
C  C13  1  0.70634612  0.45556801  0.46495630  1  1.604313  0  0.227393  0.644402  0  4.140149  0
C  C14  1  0.63491226  0.94496617  0.41222910  1  -0.024091  0  -0.004818  0.08245  0  3.986261  0
C  C15  1  0.55007762  0.90865553  0.47251520  1  0.048407  0  -0.011668  -0.06044  0  3.952235  0
C  C16  1  0.69438571  0.89972402  0.37044351  1  0.041427  0  -0.107874  -0.183751  0  3.988605  0
C  C17  1  0.67149890  0.82104703  0.38430673  1  -0.226156  0  -0.042005  0.071075  0  3.923461  0
C  C18  1  0.52865171  0.83401973  0.47047326  1  0.449818  0  0.102371  0.233637  0  4.012055  0
C  C19  1  0.79679946  0.44820813  0.44086442  1  0.072366  0  -0.031328  -0.243812  0  3.977856  0
C  C20  1  0.20524443  0.56430390  0.54075440  1  0.111541  0  -0.028611  -0.250244  0  3.988385  0
C  C21  1  0.32764103  0.17704161  0.59052408  1  0.531382  0  0.099235  0.172363  0  4.070147  0
C  C22  1  0.93060400  0.41313672  0.35120675  1  0.556595  0  0.089747  0.127714  0  4.069067  0
C  C23  1  0.84594154  0.41555587  0.37609522  1  0.588015  0  0.102104  0.18719  0  4.076846  0
C  C24  1  0.83807832  0.47881824  0.47746954  1  0.534012  0  0.116692  0.259499  0  4.001726  0
C  C25  1  0.56040703  0.53669781  0.27353810  1  1.59864  0  0.237284  0.641213  0  4.143781  0
C  C26  1  0.92580870  0.48797115  0.44578034  1  0.069068  0  -0.013958  -0.05897  0  3.98937  0
C  C27  1  0.97233027  0.44890078  0.38449463  1  0.076546  0  -0.012882  -0.076292  0  4.0751  0
C  C28  1  0.96947947  0.53113698  0.47377155  1  0.056673  0  -0.006331  -0.032589  0  3.959536  0
C  C29  1  0.05269457  0.51777951  0.46082454  1  0.104677  0  -0.001306  -0.010346  0  3.977261  0
C  C30  1  0.09681271  0.48034916  0.39795144  1  0.567491  0  0.098033  0.134171  0  4.054756  0
C  C31  1  0.05926570  0.44956648  0.35982425  1  0.521746  0  0.091601  0.14676  0  4.064211  0
C  C32  1  0.47206899  0.15659767  0.54494113  1  -0.214984  0  -0.037924  0.004781  0  3.827913  0
C  C33  1  0.93843385  0.59692973  0.50199711  1  0.48183  0  0.094494  0.216303  0  4.054196  0
C  C34  1  0.97978839  0.63913561  0.52754173  1  -0.144993  0  -0.064685  -0.126715  0  3.918088  0
C  C35  1  0.05612314  0.61556520  0.53158811  1  0.039184  0  -0.002022  0.121404  0  4.019871  0
C  C36  1  0.09124408  0.55158946  0.50062024  1  0.011059  0  -0.015728  -0.083877  0  3.955617  0
C  C37  1  0.44250960  0.45279688  0.73277124  1  1.613266  0  0.225342  0.628762  0  4.160625  0
C  C38  1  0.09762206  0.65438047  0.56257719  1  0.079043  0  -0.111041  -0.279558  0  3.982955  0
C  C39  1  0.17184164  0.63070198  0.56300840  1  0.417391  0  0.113278  0.317406  0  4.065453  0
C  C40  1  0.16199870  0.52445605  0.51412753  1  0.512159  0  0.116148  0.260542  0  4.008045  0
C  C41  1  0.42497259  0.43806788  0.82739138  1  0.074479  0  -0.028485  -0.155176  0  3.997549  0
C  C42  1  0.58396800  0.54775170  0.17853681  1  0.026526  0  -0.017112  -0.104227  0  4.030949  0
C  C43  1  0.45333102  0.07815328  0.54879669  1  0.023901  0  -0.005263  0.019501  0  3.935993  0
C  C44  1  0.35227059  0.35263547  0.98444104  1  0.554186  0  0.091278  0.133974  0  4.054743  0
C  C45  1  0.37093428  0.36916167  0.89605683  1  0.540064  0  0.097792  0.170242  0  4.074074  0
C  C46  1  0.46366715  0.48702226  0.85067633  1  -0.188694  0  -0.037333  0.0032  0  3.805149  0
C  C47  1  0.45755213  0.46334261  0.93838834  1  0.035495  0  -0.003076  0.020646  0  3.915583  0
C  C48  1  0.39335033  0.39880333  0.00951338  1  0.037468  0  -0.010097  -0.0302  0  3.989923  0
C  C49  1  0.55756467  0.70281080  0.45019243  1  1.607299  0  0.227876  0.637622  0  4.181788  0
C  C50  1  0.51479871  0.49826536  0.95914321  1  0.078025  0  -0.006259  0.048503  0  3.9708  0
C  C51  1  0.49530948  0.48543537  0.04857349  1  -0.050551  0  -0.00144  0.048997  0  3.961839  0
C  C52  1  0.42303221  0.43157217  0.11735202  1  0.036407  0  -0.093078  -0.155656  0  3.984893  0
C  C53  1  0.37615139  0.38682942  0.09980488  1  -0.204662  0  -0.045796  0.031808  0  3.884596  0
C  C54  1  0.36715010  0.04310811  0.59479185  1  0.094468  0  -0.010202  -0.019553  0  3.986785  0
C  C55  1  0.59551456  0.53714236  0.89202593  1  -0.027766  0  -0.107385  -0.171492  0  4.024386  0
C  C56  1  0.65223678  0.56927625  0.90934397  1  -0.206609  0  -0.048221  0.041855  0  3.868114  0
C  C57  1  0.63174762  0.56506968  0.99800283  1  0.024531  0  -0.013706  -0.042806  0  3.995433  0
C  C58  1  0.55179487  0.52244301  0.06845125  1  0.030971  0  0.002421  0.05665  0  3.94198  0
C  C59  1  0.68471473  0.59740310  0.02301021  1  0.547823  0  0.093376  0.139555  0  4.045484  0
C  C60  1  0.66236134  0.58737630  0.11078425  1  0.509744  0  0.094451  0.154615  0  4.084073  0
C  C61  1  0.42968900  0.29412863  0.54908634  1  1.631758  0  0.226725  0.632293  0  4.168423  0
C  C62  1  0.52974422  0.51691401  0.15648325  1  0.028704  0  -0.083621  -0.143056  0  3.960428  0
C  C63  1  0.41022178  0.20758670  0.56279435  1  0.097116  0  -0.029605  -0.156518  0  4.001298  0
C  C64  1  0.58664223  0.78799909  0.43241230  1  0.08815  0  -0.029545  -0.169247  0  3.986499  0
C  C65  1  0.51410531  0.03222823  0.50481403  1  -0.019985  0  -0.004909  0.057927  0  3.954303  0
C  C66  1  0.30599859  0.09666444  0.60858248  1  0.530089  0  0.087874  0.13092  0  4.059569  0
C  C67  1  0.49241077  0.94919759  0.52665587  1  0.072929  0  -0.00886  0.026812  0  3.940137  0
C  C68  1  0.41483955  0.91022765  0.60465912  1  -0.221211  0  -0.054426  -0.019707  0  3.856752  0
C  C69  1  0.35082275  0.95571888  0.63131206  1  -0.153176  0  -0.058619  -0.017172  0  3.870343  0
I  I70  1  0.23502038  0.89932834  0.74046563  1  0.172123  0  0.076373  0.004014  0  1.488728  0
I  I71  1  0.92908960  0.73965089  0.55675627  1  0.185501  0  0.124391  0.060252  0  1.525438  0
I  I72  1  0.27786744  0.30437568  0.21418545  1  0.158791  0  0.070265  -0.021629  0  1.385801  0
I  I73  1  0.76758509  0.62177184  0.79582382  1  0.133406  0  0.036472  -0.071581  0  1.532636  0
I  I74  1  0.50881339  0.60843694  0.75860843  1  0.16351  0  0.116544  0.036989  0  1.678589  0
I  I75  1  0.76260047  0.75245135  0.32846475  1  0.142076  0  0.082647  0.004947  0  1.329289  0
I  I76  1  0.77071109  0.09365975  0.29602905  1  0.117748  0  0.076041  -0.021274  0  1.317203  0
I  I77  1  0.58774817  0.19155519  0.53827850  1  0.163568  0  0.115759  0.026056  0  1.496554  0
I  I78  1  0.41095728  0.79103192  0.69013647  1  0.166997  0  0.069561  -0.03043  0  1.750606  0
O  O79  1  0.49336995  0.49476673  0.50544432  1  -1.238563  0  -0.574214  -1.039238  0  2.525687  0
O  O80  1  0.52780445  0.69131080  0.40133133  1  -1.147037  0  -0.301251  -0.523836  0  2.297519  0
O  O81  1  0.38819100  0.31761492  0.61337551  1  -1.148877  0  -0.301788  -0.524506  0  2.286878  0
O  O82  1  0.56557684  0.65035994  0.51554247  1  -1.15992  0  -0.309421  -0.547926  0  2.376047  0
O  O83  1  0.48622662  0.33608866  0.47211668  1  -1.177478  0  -0.319074  -0.552197  0  2.354731  0
O  O84  1  0.60166803  0.49012559  0.30955361  1  -1.163289  0  -0.308104  -0.536128  0  2.291263  0
O  O85  1  0.38149862  0.44177302  0.71715796  1  -1.148659  0  -0.303873  -0.527149  0  2.302269  0
O  O86  1  0.34939556  0.59457077  0.47663780  1  -1.156753  0  -0.304918  -0.534071  0  2.308459  0
O  O87  1  0.67906876  0.51446451  0.48947048  1  -1.159807  0  -0.309328  -0.541255  0  2.371241  0
O  O88  1  0.29007304  0.47436350  0.59311529  1  -1.153009  0  -0.299241  -0.524276  0  2.288804  0
O  O89  1  0.66482486  0.40533337  0.45604323  1  -1.148228  0  -0.313344  -0.550747  0  2.355746  0
O  O90  1  0.50074158  0.57355564  0.30937504  1  -1.156366  0  -0.306279  -0.532317  0  2.275275  0
O  O91  1  0.51929089  0.47269760  0.67650645  1  -1.173731  0  -0.317299  -0.547226  0  2.365178  0
F  F92  1  0.10809960  0.42130962  0.29596881  1  -0.616622  0  -0.087832  -0.111093  0  1.431529  0
F  F93  1  0.71637130  0.61882900  0.13027219  1  -0.619235  0  -0.094701  -0.114896  0  1.347213  0
F  F94  1  0.29510074  0.28803429  0.04524817  1  -0.624825  0  -0.090689  -0.107522  0  1.448148  0
F  F95  1  0.33481210  0.31740906  0.87751151  1  -0.613774  0  -0.086504  -0.099722  0  1.366172  0
F  F96  1  0.76011208  0.63989173  0.96175676  1  -0.624261  0  -0.095054  -0.109591  0  1.438983  0
F  F97  1  0.22446067  0.07253779  0.63750006  1  -0.624739  0  -0.092877  -0.109161  0  1.43797  0
F  F98  1  0.26696037  0.22603719  0.60133714  1  -0.606576  0  -0.088134  -0.102126  0  1.352383  0
F  F99  1  0.18902205  0.45495045  0.50330246  1  -0.615822  0  -0.088083  -0.120704  0  1.39433  0
F  F100  1  0.21315345  0.67000363  0.58972538  1  -0.62124  0  -0.093264  -0.128636  0  1.307709  0
F  F101  1  0.97256949  0.37632576  0.29318473  1  -0.617241  0  -0.092932  -0.108325  0  1.373674  0
F  F102  1  0.81159422  0.38499354  0.33717710  1  -0.608708  0  -0.080306  -0.093012  0  1.382376  0
F  F103  1  0.79086075  0.49459255  0.55148798  1  -0.61221  0  -0.08023  -0.104036  0  1.4263  0
F  F104  1  0.18071633  0.48342462  0.36396971  1  -0.63005  0  -0.085298  -0.104236  0  1.422806  0
F  F105  1  0.87024834  0.62543206  0.49254826  1  -0.623072  0  -0.088511  -0.122369  0  1.478835  0
F  F106  1  0.44670315  0.80515032  0.50549373  1  -0.635851  0  -0.092019  -0.117203  0  1.419783  0
