# generated using pymatgen
data_CdH12C12(IN)2
_symmetry_space_group_name_H-M   'P 1'
_cell_length_a   7.82474482
_cell_length_b   10.03622554
_cell_length_c   10.44028601
_cell_angle_alpha   118.72795871
_cell_angle_beta   98.36776431
_cell_angle_gamma   90.00034634
_symmetry_Int_Tables_number   1
_chemical_formula_structural   CdH12C12(IN)2
_chemical_formula_sum   'Cd2 H24 C24 I4 N4'
_cell_volume   708.99697606
_cell_formula_units_Z   2
loop_
 _symmetry_equiv_pos_site_id
 _symmetry_equiv_pos_as_xyz
  1  'x, y, z'
loop_
 _atom_site_type_symbol
 _atom_site_label
 _atom_site_symmetry_multiplicity
 _atom_site_fract_x
 _atom_site_fract_y
 _atom_site_fract_z
 _atom_site_occupancy
 _atom_site_pbe_bader_spin_density
 _atom_site_pbe_cm5_charge
 _atom_site_pbe_ddec_charge
 _atom_site_pbe_ddec_spin_density
 _atom_site_pbe_ddec_sum_bond_order
 _atom_site_pbe_magmom
Cd  Cd0  1  0.75000035  0.92279921  0.99999892  1  0  0.485258  0.550471  0  2.558927  0
Cd  Cd1  1  0.24999942  0.07720142  0.00000081  1  0  0.485256  0.550486  0  2.558901  0
H  H2  1  0.03758397  0.97688256  0.28207700  1  0  0.093383  0.073178  0  1.064358  0
H  H3  1  0.46241271  0.69480149  0.71792209  1  0  0.093391  0.073174  0  1.064366  0
H  H4  1  0.96241470  0.02312040  0.71792556  1  0  0.093395  0.073195  0  1.064337  0
H  H5  1  0.53758668  0.30519576  0.28207799  1  0  0.093382  0.073166  0  1.064341  0
H  H6  1  0.32468932  0.81300215  0.44403592  1  0  0.084728  0.127248  0  1.038032  0
H  H7  1  0.17530771  0.36896672  0.55596451  1  0  0.084708  0.127208  0  1.038055  0
H  H8  1  0.67530922  0.18699969  0.55596708  1  0  0.084713  0.127234  0  1.038031  0
H  H9  1  0.82469085  0.63103510  0.44403752  1  0  0.084726  0.127232  0  1.038017  0
H  H10  1  0.15913971  0.85911775  0.55232869  1  0  0.079797  0.123495  0  1.045678  0
H  H11  1  0.34085552  0.30678823  0.44766751  1  0  0.079792  0.123448  0  1.045746  0
H  H12  1  0.84085849  0.14088067  0.44767273  1  0  0.079786  0.12347  0  1.04574  0
H  H13  1  0.65914287  0.69321125  0.55233059  1  0  0.079792  0.123454  0  1.045728  0
H  H14  1  0.22524042  0.98545148  0.49002521  1  0  0.087324  0.131182  0  1.003372  0
H  H15  1  0.27475786  0.49542848  0.50997811  1  0  0.087318  0.131155  0  1.00333  0
H  H16  1  0.77475672  0.01454922  0.50997711  1  0  0.087329  0.131187  0  1.003332  0
H  H17  1  0.72524209  0.50457449  0.49002556  1  0  0.087318  0.13115  0  1.003333  0
H  H18  1  0.06572010  0.56304514  0.31242379  1  0  0.102099  0.112736  0  0.993105  0
H  H19  1  0.43427884  0.25061710  0.68757275  1  0  0.10213  0.112748  0  0.993193  0
H  H20  1  0.93428106  0.43695664  0.68757758  1  0  0.102091  0.112733  0  0.993094  0
H  H21  1  0.56572457  0.74938122  0.31242639  1  0  0.102131  0.112744  0  0.993193  0
H  H22  1  0.84436143  0.44037359  0.09048741  1  0  0.097767  0.111588  0  1.036072  0
H  H23  1  0.65564022  0.34988064  0.90950641  1  0  0.097726  0.11151  0  1.035983  0
H  H24  1  0.15564081  0.55962589  0.90951210  1  0  0.097761  0.11157  0  1.036087  0
H  H25  1  0.34436308  0.65011655  0.09049220  1  0  0.097759  0.111581  0  1.0361  0
C  C26  1  0.99618909  0.85814991  0.24499807  1  0  0.038242  0.029859  0  3.922182  0
C  C27  1  0.50380796  0.61314770  0.75499965  1  0  0.038242  0.029863  0  3.922333  0
C  C28  1  0.00381336  0.14185186  0.75500345  1  0  0.038248  0.029873  0  3.92223  0
C  C29  1  0.49619284  0.38685068  0.24500111  1  0  0.038267  0.029916  0  3.922193  0
C  C30  1  0.06886609  0.78385420  0.32139370  1  0  -0.000735  0.142916  0  3.948208  0
C  C31  1  0.43113210  0.46245865  0.67860213  1  0  -0.000736  0.142846  0  3.948402  0
C  C32  1  0.93113359  0.21614528  0.67860455  1  0  -0.000725  0.142908  0  3.948235  0
C  C33  1  0.56886874  0.53753970  0.32139671  1  0  -0.000776  0.142836  0  3.948373  0
C  C34  1  0.20067228  0.86525432  0.45890988  1  0  -0.248059  -0.418806  0  3.971782  0
C  C35  1  0.29932598  0.40634266  0.54108831  1  0  -0.248017  -0.418642  0  3.971827  0
C  C36  1  0.79932747  0.13474633  0.54109082  1  0  -0.248034  -0.41876  0  3.971792  0
C  C37  1  0.70067237  0.59365686  0.45891171  1  0  -0.248  -0.418644  0  3.971806  0
C  C38  1  0.01189650  0.62992831  0.26121227  1  0  -0.072482  -0.091611  0  3.927902  0
C  C39  1  0.48810390  0.36871044  0.73878569  1  0  -0.072495  -0.091593  0  3.927986  0
C  C40  1  0.98810584  0.37007233  0.73878873  1  0  -0.072488  -0.091597  0  3.927907  0
C  C41  1  0.51189811  0.63128675  0.26121278  1  0  -0.072508  -0.091585  0  3.927924  0
C  C42  1  0.88657268  0.55995432  0.13472587  1  0  -0.082638  -0.147958  0  3.964732  0
C  C43  1  0.61342484  0.42522981  0.86526660  1  0  -0.082744  -0.148052  0  3.965028  0
C  C44  1  0.11342826  0.44004516  0.86527349  1  0  -0.082648  -0.147976  0  3.964807  0
C  C45  1  0.38657528  0.57477300  0.13472840  1  0  -0.082697  -0.148041  0  3.964904  0
C  C46  1  0.81759132  0.64412530  0.06709599  1  0  0.113517  0.159035  0  3.986022  0
C  C47  1  0.68240787  0.57702227  0.93290155  1  0  0.113581  0.159101  0  3.986031  0
C  C48  1  0.18240974  0.35587532  0.93290389  1  0  0.113534  0.159071  0  3.985978  0
C  C49  1  0.31759410  0.42297496  0.06709883  1  0  0.113566  0.159062  0  3.985978  0
I  I50  1  0.95527973  0.20673689  0.19583538  1  0  -0.204505  -0.386421  0  1.473976  0
I  I51  1  0.54471967  0.01090136  0.80416518  1  0  -0.20451  -0.386424  0  1.473972  0
I  I52  1  0.04472001  0.79326378  0.80416628  1  0  -0.204493  -0.386416  0  1.473986  0
I  I53  1  0.45528125  0.98909814  0.19583515  1  0  -0.20451  -0.386425  0  1.473957  0
N  N54  1  0.87489495  0.79139802  0.12354605  1  0  -0.331058  -0.241671  0  3.542701  0
N  N55  1  0.62510222  0.66785160  0.87645094  1  0  -0.331029  -0.241602  0  3.542461  0
N  N56  1  0.12510469  0.20860149  0.87645412  1  0  -0.331084  -0.241709  0  3.542748  0
N  N57  1  0.37489732  0.33214675  0.12354775  1  0  -0.331085  -0.2417  0  3.542556  0
