# generated using pymatgen
data_La2H18C24(N2O5)3
_symmetry_space_group_name_H-M   'P 1'
_cell_length_a   11.10314801
_cell_length_b   11.34858785
_cell_length_c   11.67095302
_cell_angle_alpha   80.81882440
_cell_angle_beta   89.96259339
_cell_angle_gamma   73.86291187
_symmetry_Int_Tables_number   1
_chemical_formula_structural   La2H18C24(N2O5)3
_chemical_formula_sum   'La4 H36 C48 N12 O30'
_cell_volume   1393.07756955
_cell_formula_units_Z   2
loop_
 _symmetry_equiv_pos_site_id
 _symmetry_equiv_pos_as_xyz
  1  'x, y, z'
loop_
 _atom_site_type_symbol
 _atom_site_label
 _atom_site_symmetry_multiplicity
 _atom_site_fract_x
 _atom_site_fract_y
 _atom_site_fract_z
 _atom_site_occupancy
 _atom_site_hle17_bader_spin_density
 _atom_site_hle17_ddec_charge
 _atom_site_hle17_ddec_spin_density
 _atom_site_hle17_ddec_sum_bond_order
 _atom_site_hle17_magmom
 _atom_site_hse06_10hf_bader_spin_density
 _atom_site_hse06_10hf_ddec_charge
 _atom_site_hse06_10hf_ddec_spin_density
 _atom_site_hse06_10hf_ddec_sum_bond_order
 _atom_site_hse06_10hf_magmom
 _atom_site_hse06_bader_spin_density
 _atom_site_hse06_ddec_charge
 _atom_site_hse06_ddec_spin_density
 _atom_site_hse06_ddec_sum_bond_order
 _atom_site_hse06_magmom
 _atom_site_pbe_bader_spin_density
 _atom_site_pbe_cm5_charge
 _atom_site_pbe_ddec_charge
 _atom_site_pbe_ddec_spin_density
 _atom_site_pbe_ddec_sum_bond_order
 _atom_site_pbe_magmom
La  La0  1  0.29469451  0.00498285  0.98032327  1  0  2.034487  0  1.808557  0  0  1.898001  0  2.327168  0  0  1.999231  0  2.234117  0  0  1.397974  1.822105  0  2.39203  0
La  La1  1  0.70530678  0.99501919  0.01967605  1  0  2.034446  0  1.808642  0  0  1.897985  0  2.327212  0  0  1.999214  0  2.234164  0  0  1.397961  1.822068  0  2.392096  0
La  La2  1  0.69414428  0.00781379  0.57187772  1  0  2.141113  0  1.710326  0  0  2.028326  0  2.189686  0  0  2.122607  0  2.097886  0  0  1.392044  1.956381  0  2.256052  0
La  La3  1  0.30585753  0.99218639  0.42812104  1  0  2.141046  0  1.710421  0  0  2.028272  0  2.18977  0  0  2.12256  0  2.097962  0  0  1.392021  1.956324  0  2.256133  0
H  H4  1  0.83853645  0.14348342  0.37690326  1  0  0.407727  0  0.904776  0  0  0.370525  0  0.97925  0  0  0.381773  0  0.963273  0  0  0.293928  0.36251  0  0.990603  0
H  H5  1  0.16146383  0.85651583  0.62309650  1  0  0.407771  0  0.904737  0  0  0.370573  0  0.979206  0  0  0.381818  0  0.963232  0  0  0.293947  0.362557  0  0.99056  0
H  H6  1  0.89678039  0.99134817  0.40326204  1  0  0.435915  0  0.860283  0  0  0.403912  0  0.925692  0  0  0.416178  0  0.907682  0  0  0.30331  0.395121  0  0.938568  0
H  H7  1  0.10321989  0.00865108  0.59673858  1  0  0.435939  0  0.860248  0  0  0.40394  0  0.925653  0  0  0.416206  0  0.907642  0  0  0.303318  0.395149  0  0.938527  0
H  H8  1  0.98140636  0.84559176  0.67358130  1  0  0.416593  0  0.870391  0  0  0.386366  0  0.941687  0  0  0.396428  0  0.926939  0  0  0.305212  0.379076  0  0.952366  0
H  H9  1  0.01859275  0.15440842  0.32641832  1  0  0.416503  0  0.870338  0  0  0.38627  0  0.941791  0  0  0.396333  0  0.927042  0  0  0.305148  0.37898  0  0.95247  0
H  H10  1  0.91185677  0.91630788  0.77258589  1  0  0.429139  0  0.873795  0  0  0.398013  0  0.937455  0  0  0.410488  0  0.919249  0  0  0.297953  0.389046  0  0.950524  0
H  H11  1  0.08814298  0.08369323  0.22741444  1  0  0.429157  0  0.873763  0  0  0.398031  0  0.937418  0  0  0.410505  0  0.919213  0  0  0.297964  0.389066  0  0.950484  0
H  H12  1  0.76938354  0.18824374  0.72397612  1  0  0.436143  0  0.843425  0  0  0.409161  0  0.903948  0  0  0.419836  0  0.888128  0  0  0.30513  0.401455  0  0.915361  0
H  H13  1  0.23061738  0.81175644  0.27602350  1  0  0.436119  0  0.843451  0  0  0.409136  0  0.903982  0  0  0.419813  0  0.888158  0  0  0.305122  0.401432  0  0.915393  0
H  H14  1  0.86780149  0.18200972  0.62432819  1  0  0.433605  0  0.865818  0  0  0.400732  0  0.932277  0  0  0.412462  0  0.91513  0  0  0.291999  0.392332  0  0.944524  0
H  H15  1  0.13219969  0.81798953  0.37567243  1  0  0.433588  0  0.865821  0  0  0.400713  0  0.932285  0  0  0.412444  0  0.915138  0  0  0.291991  0.392315  0  0.944529  0
H  H16  1  0.27832728  0.34782027  0.96521072  1  0  0.121546  0  0.973155  0  0  0.124798  0  1.044238  0  0  0.128749  0  1.041674  0  0  0.115474  0.121936  0  1.046137  0
H  H17  1  0.72167221  0.65218178  0.03478861  1  0  0.121599  0  0.973031  0  0  0.124828  0  1.044151  0  0  0.128779  0  1.041586  0  0  0.115488  0.121969  0  1.046038  0
H  H18  1  0.57916213  0.20794139  0.28621228  1  0  0.110466  0  0.930923  0  0  0.117399  0  0.995784  0  0  0.120101  0  0.992306  0  0  0.146883  0.115326  0  0.998463  0
H  H19  1  0.42083815  0.79205787  0.71378920  1  0  0.110501  0  0.930967  0  0  0.117437  0  0.995817  0  0  0.120138  0  0.992341  0  0  0.146878  0.115363  0  0.998498  0
H  H20  1  0.35946678  0.42377379  0.78068045  1  0  0.115058  0  0.949092  0  0  0.128862  0  1.00445  0  0  0.131378  0  1.003307  0  0  0.124795  0.12702  0  1.005416  0
H  H21  1  0.64053440  0.57622546  0.21932017  1  0  0.115066  0  0.949106  0  0  0.128853  0  1.004485  0  0  0.13137  0  1.00334  0  0  0.124775  0.127011  0  1.005453  0
H  H22  1  0.78794704  0.77036763  0.29530659  1  0  0.094725  0  0.969814  0  0  0.103515  0  1.033279  0  0  0.10585  0  1.030448  0  0  0.141019  0.101733  0  1.035365  0
H  H23  1  0.21205324  0.22963163  0.70469232  1  0  0.094685  0  0.96986  0  0  0.103472  0  1.033329  0  0  0.105808  0  1.030497  0  0  0.141003  0.101692  0  1.035414  0
H  H24  1  0.47375380  0.32004153  0.60770835  1  0  0.093737  0  0.956467  0  0  0.105006  0  1.014625  0  0  0.107253  0  1.013495  0  0  0.115983  0.10336  0  1.015604  0
H  H25  1  0.52624299  0.67996052  0.39229356  1  0  0.093729  0  0.956433  0  0  0.104983  0  1.01462  0  0  0.107211  0  1.013513  0  0  0.115965  0.103336  0  1.015602  0
H  H26  1  0.04657380  0.38097827  0.33657739  1  0  0.12164  0  0.930798  0  0  0.131395  0  0.99104  0  0  0.135368  0  0.988189  0  0  0.115768  0.128462  0  0.993318  0
H  H27  1  0.95342674  0.61902005  0.66342166  1  0  0.121636  0  0.93078  0  0  0.131383  0  0.991037  0  0  0.135354  0  0.988188  0  0  0.115769  0.128449  0  0.993316  0
H  H28  1  0.39177138  0.59789917  0.23520099  1  0  0.119708  0  0.935467  0  0  0.130315  0  0.996297  0  0  0.134301  0  0.993473  0  0  0.115989  0.127367  0  0.998546  0
H  H29  1  0.60822863  0.40210101  0.76479949  1  0  0.119709  0  0.935459  0  0  0.130308  0  0.996302  0  0  0.1343  0  0.99347  0  0  0.115991  0.127359  0  0.998551  0
H  H30  1  0.97579138  0.69987120  0.98989511  1  0  0.102043  0  0.953299  0  0  0.109313  0  1.016846  0  0  0.112076  0  1.015426  0  0  0.118072  0.107231  0  1.018114  0
H  H31  1  0.02421044  0.30012898  0.01010536  1  0  0.102034  0  0.953323  0  0  0.109317  0  1.016859  0  0  0.112052  0  1.015471  0  0  0.118066  0.107238  0  1.018123  0
H  H32  1  0.10264180  0.52165278  0.17479895  1  0  0.109858  0  0.977854  0  0  0.118183  0  1.041944  0  0  0.119803  0  1.042836  0  0  0.117564  0.11692  0  1.041609  0
H  H33  1  0.89736028  0.47834647  0.82519995  1  0  0.109897  0  0.977835  0  0  0.118207  0  1.041934  0  0  0.119832  0  1.042812  0  0  0.117572  0.116942  0  1.041604  0
H  H34  1  0.31866163  0.48856964  0.43008541  1  0  0.11272  0  0.955943  0  0  0.124003  0  1.015011  0  0  0.126916  0  1.013318  0  0  0.12157  0.121881  0  1.016334  0
H  H35  1  0.68133531  0.51142869  0.56991622  1  0  0.112683  0  0.956013  0  0  0.123995  0  1.015047  0  0  0.126907  0  1.013356  0  0  0.121574  0.121872  0  1.016372  0
H  H36  1  0.24586068  0.59129840  0.58300042  1  0  0.103941  0  0.947422  0  0  0.117138  0  1.001801  0  0  0.119365  0  1.001333  0  0  0.119596  0.115523  0  1.002249  0
H  H37  1  0.75413985  0.40869992  0.41699863  1  0  0.103946  0  0.947434  0  0  0.117147  0  1.001817  0  0  0.119374  0  1.001349  0  0  0.119605  0.115532  0  1.002266  0
H  H38  1  0.14788841  0.76427244  0.87558887  1  0  0.100949  0  0.9779  0  0  0.107573  0  1.04534  0  0  0.110647  0  1.04159  0  0  0.138019  0.105243  0  1.048082  0
H  H39  1  0.85211250  0.23572774  0.12440988  1  0  0.100964  0  0.977852  0  0  0.107586  0  1.0453  0  0  0.110661  0  1.041548  0  0  0.138025  0.105257  0  1.04804  0
C  C40  1  0.41476757  0.03561601  0.71196060  1  0  0.546054  0  3.937381  0  0  0.503276  0  4.239281  0  0  0.534534  0  4.232682  0  0  0.223635  0.481708  0  4.243184  0
C  C41  1  0.58523181  0.96438325  0.28803917  1  0  0.546051  0  3.937358  0  0  0.50329  0  4.239225  0  0  0.534549  0  4.232627  0  0  0.223619  0.481724  0  4.243123  0
C  C42  1  0.50546322  0.07651597  0.78830988  1  0  0.543836  0  3.946294  0  0  0.501201  0  4.242945  0  0  0.532251  0  4.237301  0  0  0.220175  0.4797  0  4.245957  0
C  C43  1  0.49453706  0.92348328  0.21168988  1  0  0.543833  0  3.946332  0  0  0.501214  0  4.242939  0  0  0.532265  0  4.237295  0  0  0.220189  0.479712  0  4.245953  0
C  C44  1  0.32348095  0.73540289  0.03182442  1  0  0.635037  0  3.947686  0  0  0.589797  0  4.247793  0  0  0.623633  0  4.242471  0  0  0.192515  0.566843  0  4.250271  0
C  C45  1  0.67651997  0.26459729  0.96817519  1  0  0.63498  0  3.947628  0  0  0.589746  0  4.247724  0  0  0.62358  0  4.242407  0  0  0.19255  0.566792  0  4.250202  0
C  C46  1  0.95519475  0.63080383  0.47816785  1  0  -0.100562  0  3.721685  0  0  -0.088565  0  3.969252  0  0  -0.092783  0  3.98663  0  0  -0.006091  -0.08616  0  3.957885  0
C  C47  1  0.04480489  0.36919450  0.52183120  1  0  -0.10053  0  3.721648  0  0  -0.088578  0  3.969277  0  0  -0.09275  0  3.986598  0  0  -0.006059  -0.086169  0  3.957906  0
C  C48  1  0.91091046  0.77125658  0.46060921  1  0  0.672445  0  3.918703  0  0  0.61883  0  4.225656  0  0  0.653074  0  4.217953  0  0  0.220635  0.595423  0  4.230099  0
C  C49  1  0.08908891  0.22874267  0.53939141  1  0  0.672426  0  3.918728  0  0  0.618834  0  4.225684  0  0  0.653062  0  4.21798  0  0  0.220665  0.595423  0  4.230127  0
C  C50  1  0.30680295  0.40297007  0.02270225  1  0  -0.12734  0  3.69449  0  0  -0.15875  0  3.951902  0  0  -0.159167  0  3.968357  0  0  -0.074416  -0.158381  0  3.941139  0
C  C51  1  0.69319681  0.59703104  0.97729722  1  0  -0.127464  0  3.694425  0  0  -0.158809  0  3.951848  0  0  -0.159226  0  3.968305  0  0  -0.074436  -0.158437  0  3.941089  0
C  C52  1  0.00486596  0.97367318  0.94233746  1  0  0.556436  0  3.899972  0  0  0.509523  0  4.20171  0  0  0.540707  0  4.194734  0  0  0.225835  0.488084  0  4.205808  0
C  C53  1  0.99513432  0.02632607  0.05766401  1  0  0.556417  0  3.900013  0  0  0.509551  0  4.201698  0  0  0.540736  0  4.194716  0  0  0.225825  0.488111  0  4.205796  0
C  C54  1  0.53033543  0.25815854  0.35209701  1  0  0.206645  0  3.649805  0  0  0.144055  0  3.930678  0  0  0.160079  0  3.941663  0  0  0.160174  0.133507  0  3.922798  0
C  C55  1  0.46966226  0.74184351  0.64790403  1  0  0.206539  0  3.649937  0  0  0.143935  0  3.930823  0  0  0.159961  0  3.941808  0  0  0.160185  0.133389  0  3.922941  0
C  C56  1  0.29748794  0.51753332  0.76985327  1  0  -0.06913  0  3.667184  0  0  -0.113139  0  3.933859  0  0  -0.112233  0  3.95347  0  0  -0.004317  -0.113751  0  3.920725  0
C  C57  1  0.70251387  0.48246686  0.23014635  1  0  -0.069122  0  3.66719  0  0  -0.113122  0  3.93386  0  0  -0.112215  0  3.953471  0  0  -0.004286  -0.113733  0  3.920726  0
C  C58  1  0.85503338  0.72895968  0.23558775  1  0  0.175482  0  3.67819  0  0  0.115794  0  3.951405  0  0  0.130069  0  3.964586  0  0  0.14979  0.106491  0  3.942117  0
C  C59  1  0.14496779  0.27103957  0.76441115  1  0  0.17552  0  3.678259  0  0  0.115837  0  3.951469  0  0  0.130112  0  3.964649  0  0  0.149807  0.10653  0  3.942183  0
C  C60  1  0.47245088  0.32173796  0.51461937  1  0  0.014046  0  3.774398  0  0  -0.020113  0  4.052877  0  0  -0.017527  0  4.073425  0  0  0.001423  -0.022023  0  4.03895  0
C  C61  1  0.52754410  0.67826409  0.48538168  1  0  0.01409  0  3.774362  0  0  -0.020053  0  4.052838  0  0  -0.017454  0  4.073396  0  0  0.001494  -0.021962  0  4.038911  0
C  C62  1  0.98153715  0.56301726  0.38592508  1  0  0.152917  0  3.777583  0  0  0.135626  0  4.030759  0  0  0.141336  0  4.052265  0  0  0.096223  0.131764  0  4.016332  0
C  C63  1  0.01846312  0.43698199  0.61407382  1  0  0.152923  0  3.777514  0  0  0.135647  0  4.030704  0  0  0.141345  0  4.052201  0  0  0.096227  0.131784  0  4.016276  0
C  C64  1  0.38023051  0.41703208  0.21246963  1  0  0.179838  0  3.749336  0  0  0.163969  0  4.001043  0  0  0.171474  0  4.020634  0  0  0.106861  0.158891  0  3.988025  0
C  C65  1  0.61976654  0.58296903  0.78753070  1  0  0.179811  0  3.749222  0  0  0.163958  0  4.000946  0  0  0.171463  0  4.02054  0  0  0.106866  0.15888  0  3.987928  0
C  C66  1  0.34406676  0.34590611  0.13738775  1  0  -0.098179  0  3.66931  0  0  -0.085758  0  3.908508  0  0  -0.091112  0  3.924292  0  0  -0.002158  -0.082607  0  3.898516  0
C  C67  1  0.65593056  0.65409408  0.86261358  1  0  -0.098052  0  3.669243  0  0  -0.085704  0  3.908528  0  0  -0.091055  0  3.92431  0  0  -0.002154  -0.082553  0  3.898537  0
C  C68  1  0.33223428  0.21552894  0.17526576  1  0  0.70277  0  3.865539  0  0  0.658206  0  4.158193  0  0  0.695431  0  4.147374  0  0  0.236418  0.632559  0  4.164939  0
C  C69  1  0.66776483  0.78447125  0.82473386  1  0  0.702752  0  3.865345  0  0  0.658208  0  4.158002  0  0  0.695433  0  4.147185  0  0  0.236418  0.63256  0  4.164749  0
C  C70  1  0.30171995  0.52707283  0.98313442  1  0  0.163153  0  3.740016  0  0  0.14589  0  3.991323  0  0  0.151101  0  4.013048  0  0  0.100585  0.142272  0  3.976846  0
C  C71  1  0.69828187  0.47292735  0.01686776  1  0  0.163195  0  3.740005  0  0  0.145869  0  3.991377  0  0  0.15108  0  4.013103  0  0  0.100595  0.142247  0  3.976908  0
C  C72  1  0.02760717  0.43367476  0.40807462  1  0  -0.135919  0  3.722283  0  0  -0.169337  0  3.98402  0  0  -0.170675  0  4.000841  0  0  -0.080183  -0.16836  0  3.97284  0
C  C73  1  0.97239401  0.56632449  0.59192429  1  0  -0.135941  0  3.722268  0  0  -0.16936  0  3.983985  0  0  -0.170686  0  4.000824  0  0  -0.080186  -0.168382  0  3.972805  0
C  C74  1  0.36819501  0.54271145  0.17496581  1  0  -0.14724  0  3.72282  0  0  -0.182217  0  3.982655  0  0  -0.184549  0  3.999539  0  0  -0.08059  -0.180688  0  3.971726  0
C  C75  1  0.63180474  0.45728966  0.82503453  1  0  -0.147248  0  3.722788  0  0  -0.182229  0  3.982632  0  0  -0.184568  0  3.999517  0  0  -0.080572  -0.180698  0  3.971702  0
C  C76  1  0.32966565  0.59971960  0.06085516  1  0  -0.082864  0  3.710629  0  0  -0.068459  0  3.953068  0  0  -0.072367  0  3.970922  0  0  -0.003488  -0.06615  0  3.941504  0
C  C77  1  0.67033500  0.40028151  0.93914517  1  0  -0.082797  0  3.710516  0  0  -0.06836  0  3.952946  0  0  -0.07227  0  3.970806  0  0  -0.003515  -0.066053  0  3.941386  0
C  C78  1  0.95524961  0.68776326  0.08111415  1  0  0.01177  0  3.752782  0  0  -0.020342  0  4.027887  0  0  -0.018452  0  4.047862  0  0  0.000568  -0.021727  0  4.014502  0
C  C79  1  0.04475093  0.31223506  0.91888576  1  0  0.011882  0  3.752807  0  0  -0.020244  0  4.027904  0  0  -0.018329  0  4.047893  0  0  0.000636  -0.021631  0  4.014513  0
C  C80  1  0.01823561  0.59838095  0.17099869  1  0  -0.06233  0  3.660025  0  0  -0.099678  0  3.913512  0  0  -0.097321  0  3.931632  0  0  -0.002146  -0.101222  0  3.90156  0
C  C81  1  0.98176673  0.40161737  0.82900121  1  0  -0.062415  0  3.660054  0  0  -0.099751  0  3.913534  0  0  -0.097393  0  3.931648  0  0  -0.002165  -0.101293  0  3.90158  0
C  C82  1  0.39583859  0.40584770  0.42893633  1  0  -0.063768  0  3.677138  0  0  -0.105794  0  3.939212  0  0  -0.104178  0  3.957316  0  0  -0.00011  -0.106717  0  3.927007  0
C  C83  1  0.60415782  0.59415249  0.57106330  1  0  -0.06373  0  3.677288  0  0  -0.105782  0  3.93935  0  0  -0.104164  0  3.957451  0  0  -0.000143  -0.106705  0  3.927144  0
C  C84  1  0.24015230  0.60097378  0.67388698  1  0  0.014511  0  3.75615  0  0  -0.020845  0  4.031562  0  0  -0.019327  0  4.051574  0  0  -0.000309  -0.021733  0  4.017883  0
C  C85  1  0.75984861  0.39902640  0.32611178  1  0  0.014495  0  3.756146  0  0  -0.020871  0  4.031555  0  0  -0.019354  0  4.051568  0  0  -0.000322  -0.021759  0  4.017876  0
C  C86  1  0.18699963  0.69402086  0.82242044  1  0  0.173906  0  3.648107  0  0  0.113313  0  3.915024  0  0  0.127911  0  3.924159  0  0  0.145358  0.103804  0  3.908813  0
C  C87  1  0.81300218  0.30597932  0.17757832  1  0  0.173837  0  3.648046  0  0  0.113236  0  3.914954  0  0  0.127833  0  3.924088  0  0  0.145325  0.103727  0  3.908742  0
N  N88  1  0.55593745  0.23018410  0.46558148  1  0  -0.435499  0  3.181022  0  0  -0.38844  0  3.472472  0  0  -0.411347  0  3.492084  0  0  -0.401179  -0.371934  0  3.45826  0
N  N89  1  0.44405792  0.76981980  0.53442099  1  0  -0.435474  0  3.181014  0  0  -0.388431  0  3.472512  0  0  -0.411337  0  3.492119  0  0  -0.401219  -0.371925  0  3.458296  0
N  N90  1  0.85363192  0.76909064  0.12265583  1  0  -0.420535  0  3.183183  0  0  -0.371942  0  3.471473  0  0  -0.39372  0  3.491443  0  0  -0.390368  -0.356417  0  3.457088  0
N  N91  1  0.14636899  0.23090954  0.87734379  1  0  -0.420605  0  3.183269  0  0  -0.372018  0  3.471569  0  0  -0.393793  0  3.491524  0  0  -0.390426  -0.356492  0  3.457191  0
N  N92  1  0.95396374  0.62626672  0.26978746  1  0  -0.087578  0  3.611607  0  0  0.002032  0  3.823073  0  0  -0.013236  0  3.848185  0  0  -0.226488  0.012136  0  3.806036  0
N  N93  1  0.04603744  0.37373253  0.73021230  1  0  -0.08759  0  3.611602  0  0  0.002019  0  3.823063  0  0  -0.01325  0  3.848182  0  0  -0.226509  0.012125  0  3.806023  0
N  N94  1  0.43315454  0.36364275  0.32569448  1  0  -0.098434  0  3.621911  0  0  -0.009821  0  3.83601  0  0  -0.025632  0  3.860632  0  0  -0.228871  0.000649  0  3.819276  0
N  N95  1  0.56684341  0.63635837  0.67430500  1  0  -0.098434  0  3.621821  0  0  -0.009822  0  3.835942  0  0  -0.025634  0  3.860566  0  0  -0.228891  0.000649  0  3.819205  0
N  N96  1  0.26354683  0.57805364  0.86478847  1  0  -0.093755  0  3.591644  0  0  -0.002971  0  3.806702  0  0  -0.018583  0  3.83282  0  0  -0.225107  0.007387  0  3.788988  0
N  N97  1  0.73645472  0.42194747  0.13521100  1  0  -0.093766  0  3.591675  0  0  -0.002952  0  3.80672  0  0  -0.018562  0  3.832836  0  0  -0.225072  0.007408  0  3.789006  0
N  N98  1  0.17065913  0.71048202  0.70784977  1  0  -0.3801  0  3.132635  0  0  -0.317458  0  3.391583  0  0  -0.332683  0  3.404097  0  0  -0.327448  -0.307136  0  3.38304  0
N  N99  1  0.82934178  0.28951816  0.29214985  1  0  -0.380061  0  3.132576  0  0  -0.317402  0  3.391525  0  0  -0.332629  0  3.404039  0  0  -0.327461  -0.30708  0  3.38298  0
O  O100  1  0.31320595  0.15895475  0.09431635  1  0  -0.694895  0  2.061336  0  0  -0.647987  0  2.325633  0  0  -0.682111  0  2.31631  0  0  -0.39645  -0.623198  0  2.331013  0
O  O101  1  0.68679263  0.84104729  0.90568298  1  0  -0.694883  0  2.06125  0  0  -0.647977  0  2.325535  0  0  -0.682102  0  2.316216  0  0  -0.396406  -0.623182  0  2.330911  0
O  O102  1  0.60072515  0.09995683  0.74328978  1  0  -0.622863  0  2.116013  0  0  -0.578434  0  2.368443  0  0  -0.608908  0  2.362741  0  0  -0.349102  -0.556352  0  2.371519  0
O  O103  1  0.39927655  0.90004056  0.25671027  1  0  -0.622856  0  2.116069  0  0  -0.578442  0  2.368512  0  0  -0.608915  0  2.362811  0  0  -0.349101  -0.556357  0  2.371584  0
O  O104  1  0.47993889  0.07997638  0.89457864  1  0  -0.676728  0  2.080869  0  0  -0.626662  0  2.333897  0  0  -0.662094  0  2.329237  0  0  -0.372382  -0.600703  0  2.33585  0
O  O105  1  0.52006087  0.92002473  0.10542169  1  0  -0.676733  0  2.080916  0  0  -0.626667  0  2.33393  0  0  -0.662101  0  2.329271  0  0  -0.372381  -0.600709  0  2.335883  0
O  O106  1  0.37757786  0.77516269  0.94423260  1  0  -0.63843  0  1.923125  0  0  -0.603068  0  2.164305  0  0  -0.63352  0  2.159596  0  0  -0.354357  -0.581171  0  2.166578  0
O  O107  1  0.62242242  0.22483656  0.05576717  1  0  -0.638451  0  1.923103  0  0  -0.603089  0  2.164273  0  0  -0.633545  0  2.159575  0  0  -0.354387  -0.581193  0  2.166546  0
O  O108  1  0.80396541  0.81569881  0.49972271  1  0  -0.672146  0  2.006005  0  0  -0.628871  0  2.263478  0  0  -0.661518  0  2.256069  0  0  -0.386527  -0.604901  0  2.267494  0
O  O109  1  0.19603423  0.18429951  0.50027805  1  0  -0.672137  0  2.006037  0  0  -0.628874  0  2.263497  0  0  -0.661537  0  2.256133  0  0  -0.386532  -0.604905  0  2.267522  0
O  O110  1  0.44398871  0.02744234  0.60757335  1  0  -0.670645  0  2.071088  0  0  -0.628299  0  2.329347  0  0  -0.662457  0  2.325697  0  0  -0.335711  -0.603353  0  2.330975  0
O  O111  1  0.55601157  0.97255691  0.39242726  1  0  -0.670641  0  2.071035  0  0  -0.628322  0  2.329334  0  0  -0.662476  0  2.325678  0  0  -0.335695  -0.603374  0  2.330958  0
O  O112  1  0.10601709  0.96120246  0.89060160  1  0  -0.594559  0  2.03568  0  0  -0.550258  0  2.27765  0  0  -0.579029  0  2.270521  0  0  -0.342337  -0.529586  0  2.281897  0
O  O113  1  0.89398293  0.03879772  0.10939888  1  0  -0.594557  0  2.035668  0  0  -0.550273  0  2.277614  0  0  -0.579042  0  2.270478  0  0  -0.342339  -0.529599  0  2.281859  0
O  O114  1  0.26348903  0.80501998  0.10100918  1  0  -0.666275  0  1.992317  0  0  -0.621309  0  2.232195  0  0  -0.652107  0  2.225561  0  0  -0.359692  -0.599257  0  2.235887  0
O  O115  1  0.73651162  0.19498114  0.89898943  1  0  -0.666236  0  1.9923  0  0  -0.621271  0  2.232163  0  0  -0.652065  0  2.225526  0  0  -0.359694  -0.599213  0  2.235849  0
O  O116  1  0.33738551  0.17288374  0.28233209  1  0  -0.671157  0  2.047542  0  0  -0.629663  0  2.298017  0  0  -0.660741  0  2.290225  0  0  -0.350989  -0.607183  0  2.302684  0
O  O117  1  0.66261451  0.82711644  0.71766753  1  0  -0.671199  0  2.047515  0  0  -0.629688  0  2.297961  0  0  -0.660769  0  2.290169  0  0  -0.351025  -0.60721  0  2.302627  0
O  O118  1  0.83645287  0.06485316  0.42797379  1  0  -0.892641  0  1.908849  0  0  -0.844824  0  2.11746  0  0  -0.871878  0  2.082755  0  0  -0.657187  -0.824731  0  2.141503  0
O  O119  1  0.16354650  0.93514609  0.57202511  1  0  -0.892705  0  1.908793  0  0  -0.844867  0  2.117344  0  0  -0.87192  0  2.082643  0  0  -0.657206  -0.824774  0  2.141386  0
O  O120  1  0.32183808  0.01115795  0.76207225  1  0  -0.595016  0  2.023817  0  0  -0.551453  0  2.271293  0  0  -0.579675  0  2.26416  0  0  -0.334348  -0.531264  0  2.275533  0
O  O121  1  0.67816220  0.98884130  0.23792837  1  0  -0.594989  0  2.023808  0  0  -0.551442  0  2.271282  0  0  -0.579668  0  2.264148  0  0  -0.334341  -0.531248  0  2.275518  0
O  O122  1  0.98001198  0.83351639  0.41067338  1  0  -0.607073  0  1.984437  0  0  -0.547222  0  2.198631  0  0  -0.572661  0  2.187566  0  0  -0.284272  -0.529316  0  2.205859  0
O  O123  1  0.01998623  0.16648380  0.58932710  1  0  -0.607074  0  1.984412  0  0  -0.54723  0  2.1986  0  0  -0.572665  0  2.18754  0  0  -0.284309  -0.529322  0  2.205827  0
O  O124  1  0.90884291  0.94515426  0.90900816  1  0  -0.634242  0  2.089486  0  0  -0.576468  0  2.326836  0  0  -0.608021  0  2.318935  0  0  -0.336679  -0.553687  0  2.331446  0
O  O125  1  0.09115710  0.05484592  0.09099061  1  0  -0.634279  0  2.089561  0  0  -0.576494  0  2.326863  0  0  -0.608054  0  2.318978  0  0  -0.336673  -0.553718  0  2.331485  0
O  O126  1  0.90203588  0.90175404  0.69126707  1  0  -0.875684  0  1.85054  0  0  -0.827485  0  2.041075  0  0  -0.851159  0  2.006782  0  0  -0.627253  -0.810137  0  2.065322  0
O  O127  1  0.09796477  0.09824707  0.30873240  1  0  -0.875595  0  1.850433  0  0  -0.82739  0  2.041095  0  0  -0.851061  0  2.006805  0  0  -0.627206  -0.810046  0  2.065342  0
O  O128  1  0.77961503  0.18358882  0.64120099  1  0  -0.874306  0  1.805665  0  0  -0.828362  0  1.983796  0  0  -0.851594  0  1.95062  0  0  -0.617902  -0.811346  0  2.007114  0
O  O129  1  0.22038615  0.81641043  0.35879877  1  0  -0.874268  0  1.805696  0  0  -0.828323  0  1.983832  0  0  -0.851555  0  1.950654  0  0  -0.617892  -0.811305  0  2.007143  0
