# generated using pymatgen
data_CuH15C19SN3O4
_symmetry_space_group_name_H-M   'P 1'
_cell_length_a   8.61169272
_cell_length_b   10.62245637
_cell_length_c   11.77657142
_cell_angle_alpha   63.19685316
_cell_angle_beta   79.76019510
_cell_angle_gamma   66.78480353
_symmetry_Int_Tables_number   1
_chemical_formula_structural   CuH15C19SN3O4
_chemical_formula_sum   'Cu2 H30 C38 S2 N6 O8'
_cell_volume   883.69085591
_cell_formula_units_Z   2
loop_
 _symmetry_equiv_pos_site_id
 _symmetry_equiv_pos_as_xyz
  1  'x, y, z'
loop_
 _atom_site_type_symbol
 _atom_site_label
 _atom_site_symmetry_multiplicity
 _atom_site_fract_x
 _atom_site_fract_y
 _atom_site_fract_z
 _atom_site_occupancy
 _atom_site_pbe_cm5_charge
 _atom_site_pbe_ddec_charge
 _atom_site_pbe_ddec_spin_density
 _atom_site_pbe_ddec_sum_bond_order
 _atom_site_pbe_magmom
Cu  Cu0  1  0.25000668  0.11870944  0.76282627  1  0.781217  0.72007  -0.739267  2.407558  -0.573
Cu  Cu1  1  0.74999230  0.88129092  0.23717398  1  0.781202  0.72005  -0.739269  2.407542  -0.573
H  H2  1  0.92017670  0.14144414  0.91708833  1  0.121396  0.101512  -0.00184  1.009564  -0.003
H  H3  1  0.57987802  0.94174516  0.91725047  1  0.121512  0.101304  -0.00183  1.009451  -0.003
H  H4  1  0.07982701  0.85855644  0.08291165  1  0.121389  0.101528  -0.00184  1.009559  -0.003
H  H5  1  0.42012127  0.05825566  0.08275158  1  0.121515  0.101305  -0.00183  1.009456  -0.003
H  H6  1  0.61578162  0.26908459  0.86306040  1  0.108381  0.117423  -0.000672  1.016699  -0.001
H  H7  1  0.88421460  0.86793154  0.86330982  1  0.108721  0.118172  -0.00067  1.015493  -0.001
H  H8  1  0.38422048  0.73091519  0.13694154  1  0.108389  0.117439  -0.000672  1.016686  -0.001
H  H9  1  0.11578512  0.13207024  0.13669013  1  0.10872  0.118177  -0.00067  1.015455  -0.001
H  H10  1  0.52815540  0.41940403  0.63391532  1  0.108786  0.11664  -1.4e-05  1.011256  0.0
H  H11  1  0.97198935  0.94619837  0.63418987  1  0.10856  0.116288  -1.5e-05  1.012106  0.0
H  H12  1  0.47184566  0.58059133  0.36608769  1  0.108781  0.116624  -1.4e-05  1.011285  0.0
H  H13  1  0.02800800  0.05380372  0.36580979  1  0.108549  0.116296  -1.5e-05  1.0121  0.0
H  H14  1  0.75655463  0.43390657  0.46471033  1  0.112391  0.139786  -0.000934  1.030913  -0.001
H  H15  1  0.74362920  0.10089237  0.46491198  1  0.112349  0.13991  -0.000927  1.032075  -0.001
H  H16  1  0.24344405  0.56609079  0.53529070  1  0.112383  0.139753  -0.000933  1.030949  -0.001
H  H17  1  0.25636815  0.89910887  0.53508853  1  0.112342  0.139895  -0.000927  1.032068  -0.001
H  H18  1  0.97611289  0.42490811  0.33308651  1  0.105003  0.121108  -0.000847  1.063132  -0.001
H  H19  1  0.52430592  0.24225072  0.33323266  1  0.105284  0.121194  -0.000846  1.064159  -0.001
H  H20  1  0.02388889  0.57509290  0.66691193  1  0.105012  0.121104  -0.000847  1.063143  -0.001
H  H21  1  0.47569587  0.75774690  0.66676920  1  0.105294  0.121209  -0.000846  1.064148  -0.001
H  H22  1  0.25028492  0.39324838  0.21392665  1  0.106786  0.103779  0.000108  0.988722  0.0
H  H23  1  0.74971849  0.60675089  0.78607239  1  0.106791  0.103759  0.000108  0.988759  0.0
H  H24  1  0.35496624  0.60537630  0.98678746  1  0.094675  0.120779  8.5e-05  0.999668  0.0
H  H25  1  0.14473017  0.40811361  0.98700195  1  0.094228  0.120502  8.7e-05  1.000002  0.0
H  H26  1  0.64503318  0.39462248  0.01321326  1  0.094675  0.120766  8.5e-05  0.999685  0.0
H  H27  1  0.85527086  0.59188513  0.01299765  1  0.094247  0.120538  8.7e-05  0.99994  0.0
H  H28  1  0.13107129  0.67620989  0.98354613  1  0.09696  0.12242  9.8e-05  1.000825  0.0
H  H29  1  0.36861053  0.34065571  0.98367915  1  0.097048  0.121893  8.5e-05  1.002658  0.0
H  H30  1  0.86892930  0.32379043  0.01645302  1  0.096936  0.122394  9.9e-05  1.000829  0.0
H  H31  1  0.63138977  0.65934245  0.01631992  1  0.097061  0.121894  8.5e-05  1.002634  0.0
C  C32  1  0.87947418  0.20792163  0.81818998  1  0.05406  0.100439  0.002766  3.925883  0.002
C  C33  1  0.62057598  0.97410673  0.81834739  1  0.053731  0.100794  0.002726  3.92786  0.002
C  C34  1  0.12052909  0.79207968  0.18181040  1  0.054136  0.100509  0.002765  3.92596  0.002
C  C35  1  0.37942343  0.02589459  0.18165077  1  0.053687  0.100734  0.002727  3.927813  0.002
C  C36  1  0.70837705  0.28029394  0.78665520  1  -0.077249  -0.115909  -0.004619  3.944553  -0.006
C  C37  1  0.79168027  0.93309164  0.78685549  1  -0.077248  -0.116044  -0.004622  3.944469  -0.006
C  C38  1  0.29162430  0.71970610  0.21334534  1  -0.077267  -0.115964  -0.004619  3.94461  -0.006
C  C39  1  0.20831781  0.06691188  0.21314386  1  -0.077241  -0.11598  -0.004621  3.944412  -0.006
C  C40  1  0.66180900  0.36302547  0.65880400  1  -0.065669  -0.023702  0.004858  3.945294  0.003
C  C41  1  0.83833381  0.97795374  0.65902921  1  -0.065013  -0.023271  0.00486  3.945582  0.003
C  C42  1  0.33819160  0.63697315  0.34119685  1  -0.065649  -0.02365  0.004858  3.945248  0.003
C  C43  1  0.16166679  0.02204573  0.34097079  1  -0.06501  -0.02334  0.00486  3.945643  0.003
C  C44  1  0.78745130  0.36990793  0.56574328  1  -0.076524  -0.150592  -0.002483  3.897082  -0.003
C  C45  1  0.71272778  0.06411710  0.56593749  1  -0.077014  -0.151611  -0.002496  3.899081  -0.003
C  C46  1  0.21254812  0.63009085  0.43425744  1  -0.076547  -0.150594  -0.002483  3.897089  -0.003
C  C47  1  0.28727119  0.93588495  0.43406107  1  -0.076971  -0.151542  -0.002496  3.899172  -0.003
C  C48  1  0.95641722  0.29448397  0.60373952  1  0.119422  0.167274  -0.001034  3.965661  -0.002
C  C49  1  0.54374433  0.10184593  0.60388145  1  0.119308  0.167219  -0.001037  3.966875  -0.002
C  C50  1  0.04358293  0.70551877  0.39625833  1  0.119454  0.167315  -0.001034  3.965584  -0.002
C  C51  1  0.45625229  0.89815304  0.39612023  1  0.119287  0.167247  -0.001037  3.966824  -0.002
C  C52  1  0.10135504  0.29111156  0.51621508  1  0.126441  0.183762  0.002167  3.978452  0.001
C  C53  1  0.39887518  0.19279362  0.51628189  1  0.126501  0.1845  0.002184  3.977873  0.001
C  C54  1  0.89864318  0.70888907  0.48378379  1  0.126428  0.183741  0.002166  3.978502  0.001
C  C55  1  0.60112349  0.80720543  0.48371743  1  0.126489  0.184487  0.002184  3.977726  0.001
C  C56  1  0.09666797  0.35940352  0.38314273  1  -0.07409  -0.14554  -0.00325  3.893544  -0.004
C  C57  1  0.40368772  0.25762668  0.38321892  1  -0.074316  -0.146009  -0.003251  3.895045  -0.004
C  C58  1  0.90333262  0.64059679  0.61685642  1  -0.074127  -0.145531  -0.003251  3.89357  -0.004
C  C59  1  0.59631332  0.74237121  0.61678154  1  -0.074343  -0.146033  -0.003251  3.895038  -0.004
C  C60  1  0.25020696  0.34132943  0.31766472  1  -0.066642  -0.019621  0.006145  3.955449  0.003
C  C61  1  0.74979364  0.65867004  0.68233529  1  -0.066635  -0.019618  0.006145  3.955487  0.003
C  C62  1  0.24326156  0.83311158  0.84234346  1  0.191009  0.61722  0.000993  4.19291  0.001
C  C63  1  0.25649746  0.32472538  0.84256378  1  0.190868  0.616679  0.00102  4.196386  0.001
C  C64  1  0.75674066  0.16688785  0.15765544  1  0.191087  0.617337  0.000993  4.192779  0.001
C  C65  1  0.74350091  0.67527236  0.15743459  1  0.190781  0.61658  0.001019  4.196444  0.001
C  C66  1  0.24469835  0.67190542  0.92290294  1  -0.164608  -0.348502  -0.00277  3.94583  -0.003
C  C67  1  0.25494005  0.40547111  0.92308042  1  -0.163857  -0.347224  -0.002761  3.94777  -0.003
C  C68  1  0.75530195  0.32809190  0.07709697  1  -0.164583  -0.348467  -0.002769  3.945794  -0.003
C  C69  1  0.74506055  0.59452921  0.07691874  1  -0.163883  -0.347233  -0.00276  3.947667  -0.003
S  S70  1  0.24981974  0.59347198  0.81330607  1  -0.04059  0.000499  -0.001511  2.822163  -0.002
S  S71  1  0.75018042  0.40652822  0.18669433  1  -0.040588  0.000485  -0.001511  2.822132  -0.002
N  N72  1  0.00000574  0.21549026  0.72909041  1  -0.335289  -0.249621  -0.068443  3.583389  -0.089
N  N73  1  0.50007950  0.05565126  0.72922279  1  -0.335924  -0.250572  -0.068284  3.584983  -0.089
N  N74  1  0.99999560  0.78451147  0.27090843  1  -0.335341  -0.249678  -0.068442  3.583413  -0.089
N  N75  1  0.49991948  0.94434741  0.27077917  1  -0.335859  -0.250517  -0.068287  3.584835  -0.089
N  N76  1  0.25009027  0.21142032  0.57729820  1  -0.347383  -0.282995  -0.069258  3.673574  -0.092
N  N77  1  0.74990840  0.78857873  0.42270112  1  -0.347374  -0.283019  -0.069258  3.673661  -0.092
O  O78  1  0.25752896  0.90280918  0.90266459  1  -0.338712  -0.566319  -0.022726  2.245871  -0.033
O  O79  1  0.24219113  0.19473483  0.90284034  1  -0.338035  -0.565536  -0.022786  2.248834  -0.033
O  O80  1  0.74247370  0.09718952  0.09733391  1  -0.338743  -0.566346  -0.022727  2.245826  -0.033
O  O81  1  0.75780429  0.80526515  0.09716034  1  -0.337987  -0.565485  -0.022785  2.248852  -0.033
O  O82  1  0.22832783  0.88665961  0.72368540  1  -0.323205  -0.568944  0.000512  2.221769  0.0
O  O83  1  0.27153553  0.38982733  0.72391151  1  -0.323274  -0.569169  0.0005  2.221964  -0.001
O  O84  1  0.77167440  0.11333897  0.27631435  1  -0.323239  -0.569025  0.000512  2.221751  0.0
O  O85  1  0.72846832  0.61017037  0.27608799  1  -0.323244  -0.569128  0.0005  2.221978  -0.001
