# generated using pymatgen
data_CdH16C16(SN5)2
_symmetry_space_group_name_H-M   'P 1'
_cell_length_a   9.14469973
_cell_length_b   9.14468080
_cell_length_c   13.82671949
_cell_angle_alpha   89.99987879
_cell_angle_beta   89.99997473
_cell_angle_gamma   117.97498511
_symmetry_Int_Tables_number   1
_chemical_formula_structural   CdH16C16(SN5)2
_chemical_formula_sum   'Cd2 H32 C32 S4 N20'
_cell_volume   1021.15776428
_cell_formula_units_Z   2
loop_
 _symmetry_equiv_pos_site_id
 _symmetry_equiv_pos_as_xyz
  1  'x, y, z'
loop_
 _atom_site_type_symbol
 _atom_site_label
 _atom_site_symmetry_multiplicity
 _atom_site_fract_x
 _atom_site_fract_y
 _atom_site_fract_z
 _atom_site_occupancy
 _atom_site_hle17_bader_spin_density
 _atom_site_hle17_ddec_charge
 _atom_site_hle17_ddec_spin_density
 _atom_site_hle17_ddec_sum_bond_order
 _atom_site_hle17_magmom
 _atom_site_hse06_10hf_bader_spin_density
 _atom_site_hse06_10hf_ddec_charge
 _atom_site_hse06_10hf_ddec_spin_density
 _atom_site_hse06_10hf_ddec_sum_bond_order
 _atom_site_hse06_10hf_magmom
 _atom_site_hse06_bader_spin_density
 _atom_site_hse06_ddec_charge
 _atom_site_hse06_ddec_spin_density
 _atom_site_hse06_ddec_sum_bond_order
 _atom_site_hse06_magmom
 _atom_site_pbe_bader_spin_density
 _atom_site_pbe_cm5_charge
 _atom_site_pbe_ddec_charge
 _atom_site_pbe_ddec_spin_density
 _atom_site_pbe_ddec_sum_bond_order
 _atom_site_pbe_magmom
Cd  Cd0  1  0.99999817  0.99999912  0.99999920  1  0  1.040183  0  1.921585  0  0  0.838767  0  2.389305  0  0  0.886316  0  2.347729  0  0  0.796811  0.805663  0  2.417277  0
Cd  Cd1  1  0.49999968  0.50000080  0.49999960  1  0  1.040135  0  1.921502  0  0  0.8387  0  2.389206  0  0  0.88625  0  2.347636  0  0  0.79679  0.805591  0  2.41718  0
H  H2  1  0.29673594  0.33522441  0.86147377  1  0  0.091581  0  0.974745  0  0  0.093715  0  1.052865  0  0  0.09637  0  1.050056  0  0  0.121271  0.091772  0  1.054827  0
H  H3  1  0.20326342  0.16477848  0.36147461  1  0  0.091531  0  0.974731  0  0  0.093678  0  1.052849  0  0  0.096333  0  1.050037  0  0  0.121262  0.091733  0  1.054814  0
H  H4  1  0.16477653  0.20326524  0.63852584  1  0  0.091579  0  0.974741  0  0  0.093725  0  1.052857  0  0  0.09638  0  1.050047  0  0  0.121273  0.09178  0  1.05482  0
H  H5  1  0.33522217  0.29673370  0.13852501  1  0  0.091586  0  0.97476  0  0  0.093731  0  1.05287  0  0  0.096387  0  1.05006  0  0  0.121268  0.091788  0  1.054834  0
H  H6  1  0.70326224  0.66477471  0.13852470  1  0  0.091514  0  0.974751  0  0  0.093648  0  1.05288  0  0  0.096303  0  1.050069  0  0  0.121252  0.091704  0  1.054843  0
H  H7  1  0.79673643  0.83522187  0.63853254  1  0  0.091517  0  0.974767  0  0  0.093669  0  1.052882  0  0  0.096324  0  1.050072  0  0  0.121254  0.091726  0  1.054846  0
H  H8  1  0.83522006  0.79673515  0.36147335  1  0  0.091539  0  0.97473  0  0  0.093691  0  1.052853  0  0  0.096347  0  1.050041  0  0  0.121249  0.091748  0  1.054816  0
H  H9  1  0.66477699  0.70326292  0.86147418  1  0  0.091546  0  0.974754  0  0  0.093686  0  1.052873  0  0  0.09634  0  1.050064  0  0  0.121256  0.091742  0  1.054836  0
H  H10  1  0.33120471  0.91597933  0.96177119  1  0  0.097567  0  0.970191  0  0  0.107729  0  1.03151  0  0  0.10976  0  1.030989  0  0  0.111273  0.106228  0  1.032061  0
H  H11  1  0.16879568  0.58402200  0.46177288  1  0  0.097577  0  0.970135  0  0  0.107764  0  1.031426  0  0  0.109789  0  1.030912  0  0  0.111275  0.106261  0  1.031977  0
H  H12  1  0.58402010  0.16879603  0.53822797  1  0  0.097556  0  0.970237  0  0  0.107721  0  1.031547  0  0  0.109724  0  1.031059  0  0  0.11126  0.106219  0  1.032097  0
H  H13  1  0.91597812  0.33120334  0.03822852  1  0  0.097575  0  0.970193  0  0  0.107718  0  1.031529  0  0  0.109725  0  1.031036  0  0  0.111259  0.106216  0  1.032079  0
H  H14  1  0.66879514  0.08402102  0.03822800  1  0  0.097588  0  0.970179  0  0  0.10776  0  1.031479  0  0  0.109778  0  1.030971  0  0  0.111271  0.106259  0  1.03203  0
H  H15  1  0.83120378  0.41598209  0.53822560  1  0  0.097547  0  0.970183  0  0  0.107702  0  1.031502  0  0  0.10973  0  1.030986  0  0  0.111246  0.1062  0  1.032052  0
H  H16  1  0.41597817  0.83120558  0.46177412  1  0  0.097572  0  0.970137  0  0  0.107743  0  1.031442  0  0  0.109781  0  1.030916  0  0  0.111267  0.106242  0  1.031992  0
H  H17  1  0.08402163  0.66879452  0.96177213  1  0  0.097562  0  0.970167  0  0  0.107744  0  1.031463  0  0  0.109769  0  1.03095  0  0  0.111266  0.106243  0  1.032014  0
H  H18  1  0.60587920  0.10509194  0.84779891  1  0  0.118165  0  0.979117  0  0  0.124589  0  1.047067  0  0  0.126805  0  1.046297  0  0  0.118152  0.122984  0  1.047632  0
H  H19  1  0.89411993  0.39490974  0.34779721  1  0  0.118191  0  0.979056  0  0  0.124582  0  1.047045  0  0  0.126799  0  1.046274  0  0  0.11815  0.122973  0  1.047622  0
H  H20  1  0.39490971  0.89412166  0.65220175  1  0  0.118263  0  0.979019  0  0  0.124598  0  1.04708  0  0  0.126814  0  1.04631  0  0  0.118148  0.122994  0  1.04764  0
H  H21  1  0.10509036  0.60587860  0.15220125  1  0  0.118207  0  0.979066  0  0  0.124602  0  1.047051  0  0  0.12682  0  1.046278  0  0  0.118159  0.122996  0  1.047615  0
H  H22  1  0.39412124  0.89490964  0.15220173  1  0  0.118214  0  0.979044  0  0  0.124609  0  1.04703  0  0  0.126822  0  1.04627  0  0  0.11816  0.123007  0  1.047589  0
H  H23  1  0.10588377  0.60509180  0.65219982  1  0  0.118182  0  0.979054  0  0  0.124578  0  1.047048  0  0  0.126792  0  1.046286  0  0  0.118145  0.122974  0  1.047606  0
H  H24  1  0.60509034  0.10588367  0.34779890  1  0  0.118184  0  0.97903  0  0  0.124571  0  1.047031  0  0  0.126787  0  1.04626  0  0  0.118138  0.122963  0  1.047601  0
H  H25  1  0.89490998  0.39412050  0.84779867  1  0  0.118248  0  0.979014  0  0  0.124603  0  1.047048  0  0  0.12682  0  1.046276  0  0  0.118149  0.122999  0  1.04761  0
H  H26  1  0.65555456  0.34444554  0.72560779  1  0  0.086141  0  0.940697  0  0  0.091536  0  1.016722  0  0  0.092598  0  1.016312  0  0  0.123864  0.090668  0  1.01718  0
H  H27  1  0.84444640  0.15555295  0.22560788  1  0  0.08616  0  0.940693  0  0  0.091554  0  1.016716  0  0  0.092617  0  1.016307  0  0  0.123874  0.090688  0  1.017173  0
H  H28  1  0.15555731  0.84444860  0.77439421  1  0  0.086115  0  0.940743  0  0  0.091503  0  1.016763  0  0  0.092567  0  1.016353  0  0  0.123858  0.090637  0  1.017221  0
H  H29  1  0.34444411  0.65555233  0.27439068  1  0  0.086172  0  0.9407  0  0  0.091574  0  1.016706  0  0  0.092637  0  1.016296  0  0  0.123879  0.090707  0  1.017165  0
H  H30  1  0.54282113  0.45717903  0.74416238  1  0  0.091806  0  0.937225  0  0  0.099856  0  1.00694  0  0  0.099737  0  1.007868  0  0  0.130106  0.099765  0  1.006497  0
H  H31  1  0.95717760  0.04281940  0.24416332  1  0  0.091829  0  0.937203  0  0  0.099886  0  1.006904  0  0  0.099768  0  1.007831  0  0  0.130113  0.099796  0  1.006461  0
H  H32  1  0.04282334  0.95718093  0.75583877  1  0  0.091822  0  0.937236  0  0  0.099823  0  1.006967  0  0  0.099705  0  1.007896  0  0  0.130113  0.099734  0  1.006525  0
H  H33  1  0.45717813  0.54282008  0.25583754  1  0  0.091819  0  0.937221  0  0  0.099854  0  1.006928  0  0  0.099735  0  1.007856  0  0  0.130114  0.099765  0  1.006487  0
C  C34  1  0.33957979  0.24417867  0.87439085  1  0  0.16395  0  3.649488  0  0  0.102464  0  3.917915  0  0  0.116013  0  3.930471  0  0  0.136831  0.093723  0  3.909117  0
C  C35  1  0.16041894  0.25582292  0.37439229  1  0  0.163946  0  3.649503  0  0  0.102444  0  3.917936  0  0  0.115993  0  3.930494  0  0  0.136805  0.0937  0  3.909141  0
C  C36  1  0.25582101  0.16042031  0.62560956  1  0  0.16396  0  3.649455  0  0  0.102434  0  3.917893  0  0  0.115983  0  3.930451  0  0  0.136779  0.093692  0  3.909096  0
C  C37  1  0.24417772  0.33957868  0.12560798  1  0  0.163894  0  3.649584  0  0  0.102392  0  3.918016  0  0  0.11594  0  3.930573  0  0  0.13681  0.09365  0  3.909221  0
C  C38  1  0.66041730  0.75582046  0.12560618  1  0  0.16402  0  3.649456  0  0  0.102532  0  3.917895  0  0  0.116082  0  3.930451  0  0  0.136838  0.09379  0  3.909097  0
C  C39  1  0.83957982  0.74417744  0.62561197  1  0  0.163951  0  3.649491  0  0  0.102426  0  3.917927  0  0  0.115975  0  3.930486  0  0  0.136777  0.093682  0  3.909132  0
C  C40  1  0.74417498  0.83957884  0.37439253  1  0  0.163899  0  3.64952  0  0  0.10238  0  3.917953  0  0  0.115928  0  3.93051  0  0  0.136796  0.093638  0  3.909157  0
C  C41  1  0.75582203  0.66041918  0.87439194  1  0  0.163985  0  3.649533  0  0  0.102472  0  3.917979  0  0  0.116022  0  3.930535  0  0  0.136803  0.09373  0  3.909182  0
C  C42  1  0.36386471  0.03067517  0.92389804  1  0  -0.000809  0  3.770748  0  0  -0.033249  0  4.036192  0  0  -0.03165  0  4.056093  0  0  -0.006895  -0.034319  0  4.022754  0
C  C43  1  0.13613487  0.46932369  0.42389919  1  0  -0.000862  0  3.770696  0  0  -0.03332  0  4.036132  0  0  -0.031717  0  4.056042  0  0  -0.006902  -0.034389  0  4.022689  0
C  C44  1  0.46932529  0.13613618  0.57610178  1  0  -0.000863  0  3.770745  0  0  -0.03331  0  4.036166  0  0  -0.031687  0  4.056081  0  0  -0.00691  -0.03438  0  4.022727  0
C  C45  1  0.03067575  0.36386301  0.07610167  1  0  -0.000876  0  3.770776  0  0  -0.033297  0  4.036219  0  0  -0.031678  0  4.056136  0  0  -0.006897  -0.034366  0  4.022778  0
C  C46  1  0.63613623  0.96932516  0.07610116  1  0  -0.000946  0  3.770778  0  0  -0.033388  0  4.036217  0  0  -0.031783  0  4.056136  0  0  -0.006932  -0.034457  0  4.022777  0
C  C47  1  0.86386231  0.53067793  0.57610073  1  0  -0.000916  0  3.770744  0  0  -0.033372  0  4.036218  0  0  -0.031767  0  4.056119  0  0  -0.00692  -0.034441  0  4.022776  0
C  C48  1  0.53067456  0.86386417  0.42389886  1  0  -0.000941  0  3.770655  0  0  -0.033386  0  4.036114  0  0  -0.031794  0  4.056014  0  0  -0.006939  -0.034454  0  4.022671  0
C  C49  1  0.96932627  0.63613731  0.92389825  1  0  -0.000863  0  3.7707  0  0  -0.033313  0  4.036135  0  0  -0.031711  0  4.056046  0  0  -0.006921  -0.034382  0  4.022695  0
C  C50  1  0.50175481  0.12371592  0.86906716  1  0  -0.064156  0  3.670095  0  0  -0.106322  0  3.933443  0  0  -0.104372  0  3.952012  0  0  -0.002404  -0.10757  0  3.921033  0
C  C51  1  0.99824209  0.37628569  0.36906761  1  0  -0.064165  0  3.669934  0  0  -0.106301  0  3.933278  0  0  -0.104353  0  3.951847  0  0  -0.002403  -0.10755  0  3.920866  0
C  C52  1  0.37628372  0.99824431  0.63093416  1  0  -0.064132  0  3.669987  0  0  -0.106239  0  3.933338  0  0  -0.104289  0  3.9519  0  0  -0.002352  -0.107487  0  3.920931  0
C  C53  1  0.12371424  0.50175607  0.13093308  1  0  -0.064124  0  3.669972  0  0  -0.10627  0  3.933316  0  0  -0.10432  0  3.951876  0  0  -0.002394  -0.107515  0  3.920904  0
C  C54  1  0.49824622  0.87628690  0.13093421  1  0  -0.064121  0  3.669975  0  0  -0.106261  0  3.933314  0  0  -0.104313  0  3.951877  0  0  -0.002387  -0.107508  0  3.920907  0
C  C55  1  0.00175836  0.62371589  0.63093375  1  0  -0.064088  0  3.669847  0  0  -0.106231  0  3.933194  0  0  -0.104283  0  3.951762  0  0  -0.002358  -0.107477  0  3.920784  0
C  C56  1  0.62371455  0.00175730  0.36906721  1  0  -0.064124  0  3.669917  0  0  -0.106262  0  3.933262  0  0  -0.104313  0  3.951833  0  0  -0.002368  -0.107508  0  3.920849  0
C  C57  1  0.87628888  0.49824424  0.86906467  1  0  -0.06415  0  3.669973  0  0  -0.106271  0  3.933322  0  0  -0.104319  0  3.951886  0  0  -0.002353  -0.107517  0  3.920913  0
C  C58  1  0.60494085  0.39506043  0.78037274  1  0  0.097386  0  3.612831  0  0  0.02309  0  3.851719  0  0  0.032607  0  3.860871  0  0  0.05993  0.016679  0  3.845801  0
C  C59  1  0.89506065  0.10494154  0.28037361  1  0  0.097302  0  3.612855  0  0  0.022999  0  3.851756  0  0  0.032514  0  3.86091  0  0  0.05991  0.016588  0  3.845839  0
C  C60  1  0.10494256  0.89506126  0.71962776  1  0  0.097329  0  3.61288  0  0  0.023116  0  3.851695  0  0  0.032629  0  3.860851  0  0  0.059932  0.016702  0  3.845783  0
C  C61  1  0.39505950  0.60493867  0.21962573  1  0  0.097318  0  3.612928  0  0  0.023062  0  3.851769  0  0  0.032579  0  3.860916  0  0  0.059913  0.01665  0  3.845855  0
C  C62  1  0.88044003  0.11956212  0.78880222  1  0  0.266526  0  4.110801  0  0  0.251472  0  4.413018  0  0  0.27349  0  4.425389  0  0  0.120459  0.236536  0  4.404293  0
C  C63  1  0.61957073  0.38044094  0.28879555  1  0  0.266375  0  4.110804  0  0  0.251317  0  4.413033  0  0  0.273335  0  4.425408  0  0  0.120311  0.236384  0  4.404303  0
C  C64  1  0.38044039  0.61955553  0.71120075  1  0  0.266474  0  4.110851  0  0  0.251416  0  4.413059  0  0  0.273435  0  4.425435  0  0  0.120423  0.236481  0  4.40433  0
C  C65  1  0.11956061  0.88044445  0.21120059  1  0  0.266381  0  4.110781  0  0  0.251317  0  4.413019  0  0  0.273335  0  4.425395  0  0  0.120378  0.236382  0  4.404292  0
S  S66  1  0.84944674  0.15055481  0.67687689  1  0  -0.382072  0  1.988012  0  0  -0.357337  0  2.262926  0  0  -0.371924  0  2.25853  0  0  -0.180842  -0.347018  0  2.265723  0
S  S67  1  0.65055762  0.34944386  0.17686736  1  0  -0.382102  0  1.987905  0  0  -0.35736  0  2.262816  0  0  -0.371943  0  2.258417  0  0  -0.180875  -0.347042  0  2.265616  0
S  S68  1  0.34944244  0.65054777  0.82312388  1  0  -0.381998  0  1.988056  0  0  -0.357258  0  2.262961  0  0  -0.371842  0  2.258569  0  0  -0.180792  -0.346942  0  2.265759  0
S  S69  1  0.15054916  0.84944185  0.32312231  1  0  -0.381966  0  1.988133  0  0  -0.357228  0  2.26306  0  0  -0.371813  0  2.258669  0  0  -0.18079  -0.34691  0  2.265858  0
N  N70  1  0.48487935  0.25904493  0.83821882  1  0  -0.085894  0  3.564005  0  0  0.005115  0  3.785597  0  0  -0.010342  0  3.811059  0  0  -0.245701  0.015358  0  3.768277  0
N  N71  1  0.01512215  0.24095555  0.33821889  1  0  -0.085845  0  3.564015  0  0  0.005174  0  3.785587  0  0  -0.010281  0  3.811052  0  0  -0.245664  0.015418  0  3.768267  0
N  N72  1  0.24095531  0.01512083  0.66178166  1  0  -0.085979  0  3.564146  0  0  0.005037  0  3.785709  0  0  -0.010418  0  3.811172  0  0  -0.245714  0.01528  0  3.768391  0
N  N73  1  0.25904550  0.48487797  0.16178059  1  0  -0.085936  0  3.56413  0  0  0.005077  0  3.785702  0  0  -0.010379  0  3.811163  0  0  -0.245692  0.01532  0  3.768384  0
N  N74  1  0.51512051  0.74095542  0.16177965  1  0  -0.085942  0  3.564053  0  0  0.005063  0  3.785627  0  0  -0.010393  0  3.811089  0  0  -0.245696  0.015305  0  3.768311  0
N  N75  1  0.98487651  0.75904232  0.66178320  1  0  -0.08586  0  3.563979  0  0  0.005146  0  3.785553  0  0  -0.010309  0  3.811017  0  0  -0.245658  0.015389  0  3.768235  0
N  N76  1  0.75904345  0.98487953  0.33821898  1  0  -0.085877  0  3.564044  0  0  0.005157  0  3.785604  0  0  -0.010298  0  3.811068  0  0  -0.24567  0.015401  0  3.768284  0
N  N77  1  0.74095811  0.51512108  0.83821861  1  0  -0.086011  0  3.564202  0  0  0.005028  0  3.785766  0  0  -0.010428  0  3.811228  0  0  -0.245704  0.015272  0  3.768448  0
N  N78  1  0.26366844  0.10606483  0.92603372  1  0  -0.377164  0  3.238669  0  0  -0.303045  0  3.516016  0  0  -0.322601  0  3.5338  0  0  -0.353981  -0.289659  0  3.503499  0
N  N79  1  0.23633005  0.39393404  0.42603712  1  0  -0.377117  0  3.238674  0  0  -0.303004  0  3.516048  0  0  -0.322559  0  3.533831  0  0  -0.353979  -0.289615  0  3.503528  0
N  N80  1  0.39393478  0.23633242  0.57396528  1  0  -0.377139  0  3.238586  0  0  -0.302983  0  3.515919  0  0  -0.322538  0  3.533698  0  0  -0.353953  -0.289595  0  3.503398  0
N  N81  1  0.10606519  0.26366679  0.07396529  1  0  -0.377093  0  3.238658  0  0  -0.302977  0  3.516011  0  0  -0.322533  0  3.533791  0  0  -0.353975  -0.289589  0  3.503492  0
N  N82  1  0.73633082  0.89393428  0.07396331  1  0  -0.377105  0  3.23864  0  0  -0.302995  0  3.516007  0  0  -0.322551  0  3.533788  0  0  -0.353983  -0.289606  0  3.503485  0
N  N83  1  0.76366714  0.60606759  0.57396642  1  0  -0.377068  0  3.238637  0  0  -0.302891  0  3.515924  0  0  -0.322447  0  3.533714  0  0  -0.353931  -0.289503  0  3.503403  0
N  N84  1  0.60606230  0.76366671  0.42603608  1  0  -0.377013  0  3.238656  0  0  -0.3029  0  3.516018  0  0  -0.322455  0  3.533805  0  0  -0.353927  -0.289511  0  3.503497  0
N  N85  1  0.89393457  0.73633107  0.92603536  1  0  -0.377127  0  3.238684  0  0  -0.302999  0  3.516039  0  0  -0.322555  0  3.533822  0  0  -0.353969  -0.289611  0  3.503519  0
N  N86  1  0.90163004  0.09837323  0.87148273  1  0  -0.566306  0  2.829966  0  0  -0.50994  0  3.102199  0  0  -0.529578  0  3.106564  0  0  -0.409  -0.496447  0  3.099043  0
N  N87  1  0.59837496  0.40162703  0.37147531  1  0  -0.566102  0  2.82988  0  0  -0.509755  0  3.102139  0  0  -0.529397  0  3.106518  0  0  -0.408814  -0.496259  0  3.098974  0
N  N88  1  0.40162637  0.59836956  0.62851737  1  0  -0.566335  0  2.829937  0  0  -0.509965  0  3.102176  0  0  -0.529606  0  3.10655  0  0  -0.409007  -0.496469  0  3.099015  0
N  N89  1  0.09837169  0.90163332  0.12851647  1  0  -0.566282  0  2.829782  0  0  -0.509912  0  3.102018  0  0  -0.529552  0  3.106392  0  0  -0.408967  -0.496417  0  3.098859  0
