# generated using pymatgen
data_CdH20C19S2N3
_symmetry_space_group_name_H-M   'P 1'
_cell_length_a   11.34601428
_cell_length_b   12.71352245
_cell_length_c   16.52332686
_cell_angle_alpha   86.02463317
_cell_angle_beta   85.33408463
_cell_angle_gamma   75.97595985
_symmetry_Int_Tables_number   1
_chemical_formula_structural   CdH20C19S2N3
_chemical_formula_sum   'Cd4 H80 C76 S8 N12'
_cell_volume   2301.71351506
_cell_formula_units_Z   4
loop_
 _symmetry_equiv_pos_site_id
 _symmetry_equiv_pos_as_xyz
  1  'x, y, z'
loop_
 _atom_site_type_symbol
 _atom_site_label
 _atom_site_symmetry_multiplicity
 _atom_site_fract_x
 _atom_site_fract_y
 _atom_site_fract_z
 _atom_site_occupancy
 _atom_site_pbe_bader_charge
 _atom_site_pbe_bader_spin_density
 _atom_site_pbe_cm5_charge
 _atom_site_pbe_ddec_charge
 _atom_site_pbe_ddec_spin_density
 _atom_site_pbe_ddec_sum_bond_order
 _atom_site_pbe_magmom
Cd  Cd0  1  0.51930289  0.25244616  0.81008590  1  0.824177  0  0.477226  0.532915  0  2.652378  0
Cd  Cd1  1  0.47659047  0.75225176  0.19010796  1  0.823235  0  0.476167  0.533138  0  2.641666  0
Cd  Cd2  1  0.58754343  0.18554627  0.16281153  1  1.112809  0  0.725656  0.725264  0  2.204291  0
Cd  Cd3  1  0.40809916  0.81848373  0.83616734  1  1.112372  0  0.726233  0.726992  0  2.201632  0
H  H4  1  0.27134516  0.34413926  0.79516844  1  0.111089  0  0.075843  0.081825  0  1.106304  0
H  H5  1  0.06674784  0.44654613  0.76280929  1  0.065935  0  0.098383  0.103526  0  0.996832  0
H  H6  1  0.85782622  0.54617529  0.80770230  1  0.081941  0  0.095096  0.094248  0  1.043765  0
H  H7  1  0.70878708  0.62561326  0.91717457  1  0.052728  0  0.090096  0.093477  0  1.061664  0
H  H8  1  0.75832933  0.27878507  0.84766082  1  0.121133  0  0.078297  0.086479  0  1.100507  0
H  H9  1  0.90371829  0.32078018  0.93530832  1  0.096706  0  0.098616  0.105904  0  1.025778  0
H  H10  1  0.05688853  0.26214388  0.03896769  1  0.065378  0  0.096147  0.102404  0  1.040323  0
H  H11  1  0.18186345  0.11555988  0.12355376  1  0.06825  0  0.0871  0.091099  0  1.066562  0
H  H12  1  0.82092457  0.39853144  0.73892412  1  0.089013  0  0.096517  0.107046  0  1.010339  0
H  H13  1  0.91827499  0.46659741  0.61295934  1  0.044637  0  0.09335  0.093556  0  1.023708  0
H  H14  1  0.90077505  0.57659954  0.48254707  1  0.034081  0  0.090946  0.088673  0  1.036554  0
H  H15  1  0.77247923  0.69144788  0.37997709  1  0.07723  0  0.086989  0.098876  0  1.038421  0
H  H16  1  0.34227924  0.81749892  0.35354614  1  0.066126  0  0.085908  0.09635  0  1.041479  0
H  H17  1  0.24581375  0.73755295  0.47421322  1  0.01946  0  0.096727  0.098689  0  0.998847  0
H  H18  1  0.26337231  0.62414645  0.60323432  1  0.016761  0  0.095865  0.098862  0  1.001236  0
H  H19  1  0.39176550  0.51420974  0.70823369  1  0.078381  0  0.08812  0.093997  0  1.053653  0
H  H20  1  0.72569989  0.66189161  0.20458262  1  0.100387  0  0.075574  0.082738  0  1.104481  0
H  H21  1  0.93034601  0.55980669  0.23688472  1  0.033437  0  0.098393  0.102857  0  0.99666  0
H  H22  1  0.13950822  0.46054671  0.19197579  1  0.055989  0  0.095401  0.094944  0  1.040001  0
H  H23  1  0.28812311  0.37990408  0.08254010  1  0.038124  0  0.089911  0.092406  0  1.064514  0
H  H24  1  0.23636028  0.72750689  0.15356431  1  0.085514  0  0.077673  0.085592  0  1.102606  0
H  H25  1  0.09054951  0.68571154  0.06632163  1  0.063689  0  0.098424  0.106056  0  1.026556  0
H  H26  1  0.93941607  0.74393469  0.96134417  1  0.077584  0  0.096403  0.102081  0  1.0396  0
H  H27  1  0.81490858  0.89034511  0.87647918  1  0.059617  0  0.087285  0.091296  0  1.068001  0
H  H28  1  0.17166670  0.61341256  0.26545472  1  0.061044  0  0.096863  0.107819  0  1.008636  0
H  H29  1  0.07568965  0.55000672  0.39370555  1  0.043538  0  0.093777  0.094329  0  1.024043  0
H  H30  1  0.09439801  0.44195201  0.52498979  1  0.051818  0  0.091258  0.089053  0  1.036021  0
H  H31  1  0.22365046  0.32269439  0.62511456  1  0.068986  0  0.086887  0.098604  0  1.038488  0
H  H32  1  0.65392827  0.18871928  0.64617021  1  0.073652  0  0.085431  0.096287  0  1.039732  0
H  H33  1  0.74962306  0.27201145  0.52671794  1  0.006551  0  0.096843  0.098938  0  0.996955  0
H  H34  1  0.73080967  0.38778507  0.39863278  1  0.013127  0  0.096299  0.09898  0  1.000048  0
H  H35  1  0.60141399  0.49705850  0.29376024  1  0.079893  0  0.088482  0.093928  0  1.053674  0
H  H36  1  0.57992985  0.17274768  0.34322574  1  0.408069  0  0.302309  0.28576  0  0.927998  0
H  H37  1  0.51740314  0.29707059  0.31346277  1  0.444192  0  0.27878  0.258089  0  1.024957  0
H  H38  1  0.33499195  0.21813370  0.12456531  1  0.452097  0  0.280416  0.258498  0  0.999638  0
H  H39  1  0.35798136  0.10210040  0.17884185  1  0.423148  0  0.260674  0.252273  0  1.034727  0
H  H40  1  0.76659921  0.99177022  0.22514650  1  0.413271  0  0.299795  0.282867  0  0.928695  0
H  H41  1  0.63504532  0.96062868  0.23318615  1  0.434296  0  0.260999  0.260158  0  1.034638  0
H  H42  1  0.52394574  0.12762755  0.01061933  1  0.418906  0  0.271304  0.259279  0  1.020108  0
H  H43  1  0.67162243  0.11006406  0.99610921  1  0.425608  0  0.277744  0.26296  0  1.000742  0
H  H44  1  0.82948895  0.22427090  0.19890188  1  0.41681  0  0.299488  0.280925  0  0.935627  0
H  H45  1  0.83463872  0.19989405  0.10297406  1  0.407993  0  0.282015  0.263642  0  0.999977  0
H  H46  1  0.48924691  0.35554130  0.04842324  1  0.427487  0  0.255204  0.242697  0  1.05492  0
H  H47  1  0.49285615  0.41968935  0.13245649  1  0.447998  0  0.25099  0.249312  0  1.056564  0
H  H48  1  0.35307197  0.23368630  0.37596691  1  0.085934  0  0.102814  0.075992  0  0.992302  0
H  H49  1  0.41045003  0.10720826  0.32994321  1  0.052876  0  0.108075  0.086232  0  0.960448  0
H  H50  1  0.22650785  0.22890743  0.26620286  1  0.041223  0  0.099627  0.069706  0  0.967339  0
H  H51  1  0.31527207  0.32409394  0.23652523  1  0.058127  0  0.105662  0.084352  0  0.97877  0
H  H52  1  0.73882239  0.85360441  0.12832082  1  0.081796  0  0.095099  0.078301  0  1.009275  0
H  H53  1  0.80670311  0.96040898  0.09056525  1  0.049651  0  0.099475  0.074392  0  1.015888  0
H  H54  1  0.64569874  0.93096345  0.00567880  1  0.037133  0  0.088406  0.058898  0  1.030208  0
H  H55  1  0.53550966  0.96648415  0.08819309  1  0.033331  0  0.090961  0.06211  0  1.025613  0
H  H56  1  0.83241333  0.38587478  0.10360613  1  0.026656  0  0.094361  0.062623  0  1.034071  0
H  H57  1  0.71502548  0.40144853  0.18255506  1  0.025597  0  0.101519  0.078062  0  0.989143  0
H  H58  1  0.64009999  0.47547611  0.04801176  1  0.070655  0  0.09254  0.071063  0  1.022973  0
H  H59  1  0.68904344  0.34458185  0.00856858  1  0.041429  0  0.098252  0.07729  0  0.999826  0
H  H60  1  0.42154156  0.83467020  0.65626358  1  0.428727  0  0.302377  0.287282  0  0.927927  0
H  H61  1  0.49061899  0.71184840  0.68537831  1  0.431899  0  0.27933  0.257414  0  1.029304  0
H  H62  1  0.65819199  0.78949604  0.87914770  1  0.420863  0  0.278813  0.256181  0  1.004955  0
H  H63  1  0.63360309  0.90852593  0.82876005  1  0.428198  0  0.258662  0.249174  0  1.04201  0
H  H64  1  0.22614022  0.00943958  0.77133993  1  0.401709  0  0.29916  0.281924  0  0.929702  0
H  H65  1  0.35669344  0.04253777  0.76299999  1  0.4305  0  0.261655  0.25997  0  1.034006  0
H  H66  1  0.46375067  0.88041448  0.98937753  1  0.417709  0  0.273834  0.261449  0  1.01306  0
H  H67  1  0.31600236  0.89770883  0.00107637  1  0.41013  0  0.278817  0.263052  0  1.001658  0
H  H68  1  0.16951284  0.77348097  0.79929857  1  0.405502  0  0.298962  0.279525  0  0.93661  0
H  H69  1  0.15911537  0.80588858  0.89384892  1  0.413006  0  0.282581  0.26357  0  0.998183  0
H  H70  1  0.50903213  0.65129888  0.95168894  1  0.441886  0  0.254481  0.241271  0  1.05914  0
H  H71  1  0.50131945  0.58490353  0.86945200  1  0.426994  0  0.250859  0.250945  0  1.054849  0
H  H72  1  0.64860980  0.78783990  0.62585687  1  0.066663  0  0.102677  0.075734  0  0.984896  0
H  H73  1  0.58277392  0.91013777  0.67586178  1  0.029907  0  0.106436  0.085043  0  0.965657  0
H  H74  1  0.77020083  0.79350540  0.73833543  1  0.03365  0  0.098907  0.067902  0  0.972131  0
H  H75  1  0.68956063  0.69088679  0.76293557  1  0.055577  0  0.105925  0.084492  0  0.977311  0
H  H76  1  0.25225233  0.15133940  0.86616642  1  0.024756  0  0.096458  0.078774  0  1.002858  0
H  H77  1  0.18360767  0.04535127  0.90484250  1  0.060304  0  0.100452  0.074858  0  1.011918  0
H  H78  1  0.34307994  0.07695532  0.99024274  1  0.065979  0  0.088262  0.058549  0  1.033536  0
H  H79  1  0.45456984  0.03932993  0.90887515  1  0.050237  0  0.091406  0.061735  0  1.02523  0
H  H80  1  0.16332058  0.62012977  0.90335716  1  0.070457  0  0.094231  0.061739  0  1.034744  0
H  H81  1  0.28005810  0.59795199  0.82411661  1  0.049405  0  0.101927  0.078545  0  0.99193  0
H  H82  1  0.35568231  0.53449557  0.96023906  1  0.054782  0  0.093159  0.071967  0  1.014803  0
H  H83  1  0.30823769  0.66867835  0.99370987  1  0.074692  0  0.097555  0.076562  0  1.001517  0
C  C84  1  0.24608012  0.37049211  0.92407837  1  -0.118498  0  -0.010785  0.090072  0  3.998628  0
C  C85  1  0.20842610  0.38231944  0.84410088  1  -0.041353  0  -0.109467  -0.146313  0  4.038061  0
C  C86  1  0.09247992  0.43959959  0.82563008  1  -0.078564  0  -0.097773  -0.132131  0  4.007563  0
C  C87  1  0.00640652  0.48788899  0.88649305  1  0.000263  0  -0.02425  0.048291  0  4.089985  0
C  C88  1  0.04158964  0.47864656  0.96840910  1  -0.055361  0  -0.005554  -0.010967  0  3.937797  0
C  C89  1  0.16243426  0.42137284  0.98716229  1  -0.034276  0  -0.021617  0.007659  0  3.996919  0
C  C90  1  0.88486802  0.54289890  0.86987639  1  -0.107357  0  -0.099025  -0.138361  0  4.032029  0
C  C91  1  0.80247191  0.58787958  0.93038994  1  -0.08322  0  -0.107275  -0.141894  0  4.041576  0
C  C92  1  0.80267608  0.10597816  0.87701440  1  -0.115666  0  -0.021563  0.078347  0  4.024118  0
C  C93  1  0.81582073  0.21273676  0.88259169  1  -0.085731  0  -0.113495  -0.150732  0  4.031367  0
C  C94  1  0.89686035  0.23691713  0.93272135  1  -0.12908  0  -0.097192  -0.124962  0  3.993223  0
C  C95  1  0.96964907  0.15522538  0.98131962  1  -0.043641  0  -0.028182  0.038076  0  4.086951  0
C  C96  1  0.96092016  0.04535308  0.97612768  1  -0.053016  0  -0.010506  -0.017352  0  3.956469  0
C  C97  1  0.05072283  0.17822374  0.03573309  1  -0.025255  0  -0.099035  -0.140814  0  4.023775  0
C  C98  1  0.12066351  0.09713180  0.08209381  1  -0.057666  0  -0.109401  -0.137975  0  4.034598  0
C  C99  1  0.11668213  0.98605790  0.07796264  1  -0.037491  0  -0.027947  0.005237  0  3.996164  0
C  C100  1  0.63738210  0.47058506  0.70792206  1  -0.111639  0  -0.018077  0.084918  0  4.015066  0
C  C101  1  0.76469220  0.44713933  0.69295182  1  -0.116892  0  -0.106702  -0.144829  0  4.047738  0
C  C102  1  0.81908298  0.48557877  0.62238303  1  -0.062216  0  -0.10387  -0.148396  0  4.036876  0
C  C103  1  0.74846744  0.55068447  0.56311645  1  -0.048385  0  -0.021476  0.061952  0  4.071777  0
C  C104  1  0.80158779  0.59476279  0.49133010  1  -0.074557  0  -0.10471  -0.152944  0  4.058377  0
C  C105  1  0.73123683  0.65852989  0.43482734  1  0.023007  0  -0.1048  -0.129278  0  4.033546  0
C  C106  1  0.60111862  0.68363056  0.44488443  1  -0.045001  0  -0.018761  0.023475  0  3.973296  0
C  C107  1  0.52641963  0.74922300  0.38629145  1  -0.112304  0  -0.013778  0.097085  0  3.994742  0
C  C108  1  0.39895470  0.76798415  0.39904319  1  -0.044662  0  -0.109136  -0.145788  0  4.032909  0
C  C109  1  0.34479581  0.72378625  0.46707457  1  -0.029568  0  -0.0976  -0.128068  0  4.019594  0
C  C110  1  0.41532296  0.65952479  0.52682404  1  0.015038  0  -0.022788  0.050141  0  4.076536  0
C  C111  1  0.36223917  0.61221896  0.59713944  1  -0.011319  0  -0.098829  -0.139781  0  4.036433  0
C  C112  1  0.43254910  0.55105150  0.65501695  1  -0.100645  0  -0.105663  -0.143733  0  4.037942  0
C  C113  1  0.56266684  0.53082004  0.64703192  1  0.017836  0  -0.020231  0.009746  0  3.990384  0
C  C114  1  0.61864523  0.57327322  0.57516867  1  -0.03541  0  -0.002861  -0.001089  0  3.917358  0
C  C115  1  0.54507733  0.63923386  0.51570786  1  -0.033275  0  -0.002536  0.000835  0  3.918766  0
C  C116  1  0.75084149  0.63523082  0.07569384  1  -0.169351  0  -0.011255  0.088277  0  4.000623  0
C  C117  1  0.78858109  0.62374995  0.15561913  1  -0.013161  0  -0.110606  -0.147958  0  4.036031  0
C  C118  1  0.90457596  0.56665105  0.17408509  1  -0.019069  0  -0.096183  -0.128467  0  4.009628  0
C  C119  1  0.99059918  0.51808473  0.11330313  1  -0.035996  0  -0.024356  0.046153  0  4.092672  0
C  C120  1  0.95531676  0.52697866  0.03141053  1  -0.032974  0  -0.004918  -0.010041  0  3.93631  0
C  C121  1  0.83444421  0.58417473  0.01262862  1  0.007986  0  -0.022014  0.007707  0  3.99923  0
C  C122  1  0.11221618  0.46319724  0.12988778  1  -0.072691  0  -0.098806  -0.138033  0  4.031415  0
C  C123  1  0.19442484  0.41781764  0.06940707  1  -0.059718  0  -0.108577  -0.144715  0  4.043737  0
C  C124  1  0.19300003  0.90023304  0.12369469  1  -0.180691  0  -0.020797  0.079184  0  4.024212  0
C  C125  1  0.17906857  0.79364130  0.11860335  1  -0.017386  0  -0.113306  -0.15054  0  4.031293  0
C  C126  1  0.09785739  0.76950535  0.06859584  1  -0.073229  0  -0.0974  -0.124896  0  3.992753  0
C  C127  1  0.02566703  0.85104818  0.01960246  1  -0.04541  0  -0.027946  0.038799  0  4.086482  0
C  C128  1  0.03445121  0.96086932  0.02478891  1  -0.034933  0  -0.011275  -0.018835  0  3.957347  0
C  C129  1  0.94522460  0.82790668  0.96479527  1  -0.055525  0  -0.099024  -0.140182  0  4.02417  0
C  C130  1  0.87552501  0.90893183  0.91827104  1  -0.097632  0  -0.109688  -0.138937  0  4.035307  0
C  C131  1  0.87898056  0.02011107  0.92274982  1  -0.042184  0  -0.026357  0.006272  0  3.995991  0
C  C132  1  0.35556842  0.53991973  0.29521284  1  -0.176765  0  -0.017919  0.084392  0  4.0173  0
C  C133  1  0.22847093  0.56544275  0.31141851  1  0.054401  0  -0.107102  -0.146095  0  4.048126  0
C  C134  1  0.17473806  0.52952080  0.38320219  1  -0.12548  0  -0.103963  -0.147638  0  4.036522  0
C  C135  1  0.24588202  0.46429368  0.44213291  1  -0.093565  0  -0.020839  0.061622  0  4.072035  0
C  C136  1  0.19348606  0.42137732  0.51470628  1  -0.029173  0  -0.105092  -0.15304  0  4.055071  0
C  C137  1  0.26431942  0.35546109  0.56997432  1  -0.078618  0  -0.10474  -0.128767  0  4.029849  0
C  C138  1  0.39428421  0.32793166  0.55828535  1  0.026536  0  -0.018439  0.022692  0  3.975032  0
C  C139  1  0.46949997  0.25926322  0.61512896  1  -0.114598  0  -0.014651  0.095643  0  3.994546  0
C  C140  1  0.59692265  0.24020528  0.60171333  1  -0.054052  0  -0.107903  -0.14419  0  4.030022  0
C  C141  1  0.65058512  0.28624041  0.53433137  1  -0.009923  0  -0.097846  -0.128515  0  4.015018  0
C  C142  1  0.57947353  0.35205097  0.47551129  1  -0.047847  0  -0.022215  0.050285  0  4.071501  0
C  C143  1  0.63196883  0.39970288  0.40508869  1  0.006055  0  -0.097534  -0.137738  0  4.034631  0
C  C144  1  0.56109618  0.46047307  0.34729699  1  -0.087105  0  -0.105921  -0.146734  0  4.042198  0
C  C145  1  0.43097792  0.48080958  0.35607512  1  0.009459  0  -0.019952  0.011948  0  3.986642  0
C  C146  1  0.37561997  0.43983409  0.42877012  1  -0.01657  0  -0.002391  -0.000288  0  3.916294  0
C  C147  1  0.44974996  0.37304436  0.48754373  1  0.005934  0  -0.002467  0.001277  0  3.917284  0
C  C148  1  0.39900007  0.19555137  0.32036660  1  0.234459  0  -0.071242  -0.001457  0  3.906595  0
C  C149  1  0.31997110  0.23701674  0.24904125  1  0.275899  0  -0.073154  0.002727  0  3.918169  0
C  C150  1  0.72195182  0.94228702  0.11809482  1  0.2576  0  -0.080438  -0.00249  0  3.891055  0
C  C151  1  0.62173639  0.98051602  0.05927041  1  0.279716  0  -0.086275  -0.009447  0  3.934134  0
C  C152  1  0.75083048  0.35841020  0.12703920  1  0.332445  0  -0.079828  -0.005001  0  3.912998  0
C  C153  1  0.65539017  0.38801241  0.06424823  1  0.241469  0  -0.081732  0.000879  0  3.893703  0
C  C154  1  0.59975035  0.82106208  0.68232367  1  0.288384  0  -0.071326  -0.000443  0  3.902004  0
C  C155  1  0.67876625  0.77919683  0.75364707  1  0.289181  0  -0.073827  0.003425  0  3.919682  0
C  C156  1  0.26886022  0.06281171  0.87760246  1  0.309148  0  -0.079988  0.00083  0  3.883374  0
C  C157  1  0.36787294  0.02599481  0.93746500  1  0.249454  0  -0.085472  -0.008656  0  3.935001  0
C  C158  1  0.24502437  0.64562074  0.87760210  1  0.245405  0  -0.079927  -0.005482  0  3.912228  0
C  C159  1  0.34100492  0.62076771  0.94001680  1  0.267605  0  -0.08203  0.000548  0  3.89506  0
S  S160  1  0.39128079  0.29381887  0.94707136  1  -0.425328  0  -0.212067  -0.421826  0  2.528146  0
S  S161  1  0.69391684  0.08082320  0.81582619  1  -0.39615  0  -0.243799  -0.440006  0  2.457236  0
S  S162  1  0.57521703  0.43385283  0.80352181  1  -0.406192  0  -0.235955  -0.433755  0  2.570769  0
S  S163  1  0.59357395  0.80439213  0.29891688  1  -0.418217  0  -0.249973  -0.449204  0  2.516627  0
S  S164  1  0.60539550  0.71190940  0.05300759  1  -0.420241  0  -0.210462  -0.420913  0  2.521378  0
S  S165  1  0.30308804  0.92505398  0.18392330  1  -0.393431  0  -0.246248  -0.442089  0  2.446474  0
S  S166  1  0.41674461  0.57248918  0.19817137  1  -0.410864  0  -0.234871  -0.432408  0  2.564238  0
S  S167  1  0.40330307  0.20006846  0.70107999  1  -0.421739  0  -0.250713  -0.449782  0  2.512246  0
N  N168  1  0.52106096  0.21758390  0.30328946  1  -1.125911  0  -0.625898  -0.565615  0  3.327023  0
N  N169  1  0.37344704  0.17906013  0.17566766  1  -1.178771  0  -0.634304  -0.566022  0  3.329967  0
N  N170  1  0.68982183  0.99904118  0.19497220  1  -1.145185  0  -0.629914  -0.566825  0  3.312031  0
N  N171  1  0.60401183  0.09735340  0.03790282  1  -1.136859  0  -0.641044  -0.557954  0  3.32494  0
N  N172  1  0.77965774  0.24039562  0.14887844  1  -1.11435  0  -0.628698  -0.569579  0  3.317019  0
N  N173  1  0.54162154  0.35892579  0.09591066  1  -1.181148  0  -0.645052  -0.562053  0  3.363251  0
N  N174  1  0.48095248  0.79192953  0.69670043  1  -1.148367  0  -0.627284  -0.568235  0  3.337189  0
N  N175  1  0.62056878  0.83091647  0.82852109  1  -1.155978  0  -0.635404  -0.565804  0  3.332789  0
N  N176  1  0.30241588  0.00416653  0.80161000  1  -1.132977  0  -0.628535  -0.566417  0  3.308998  0
N  N177  1  0.38515028  0.90953887  0.96029174  1  -1.136849  0  -0.642012  -0.559662  0  3.325347  0
N  N178  1  0.21652260  0.76203705  0.85053242  1  -1.124159  0  -0.62736  -0.566848  0  3.314034  0
N  N179  1  0.45473345  0.64722298  0.90543380  1  -1.181073  0  -0.646421  -0.561872  0  3.366858  0
