# generated using pymatgen
data_ZnH22C26(NO)6
_symmetry_space_group_name_H-M   'P 1'
_cell_length_a   10.19893858
_cell_length_b   10.19900748
_cell_length_c   12.33747991
_cell_angle_alpha   81.72263000
_cell_angle_beta   81.72222363
_cell_angle_gamma   88.67011129
_symmetry_Int_Tables_number   1
_chemical_formula_structural   ZnH22C26(NO)6
_chemical_formula_sum   'Zn2 H44 C52 N12 O12'
_cell_volume   1256.72922674
_cell_formula_units_Z   2
loop_
 _symmetry_equiv_pos_site_id
 _symmetry_equiv_pos_as_xyz
  1  'x, y, z'
loop_
 _atom_site_type_symbol
 _atom_site_label
 _atom_site_symmetry_multiplicity
 _atom_site_fract_x
 _atom_site_fract_y
 _atom_site_fract_z
 _atom_site_occupancy
 _atom_site_pbe_bader_spin_density
 _atom_site_pbe_cm5_charge
 _atom_site_pbe_ddec_charge
 _atom_site_pbe_ddec_spin_density
 _atom_site_pbe_ddec_sum_bond_order
 _atom_site_pbe_magmom
Zn  Zn0  1  0.56995776  0.43005253  0.75000026  1  0  0.68922  0.700745  0  2.386138  0
Zn  Zn1  1  0.43003967  0.56995579  0.25000001  1  0  0.689233  0.700773  0  2.386034  0
H  H2  1  0.70442338  0.60318222  0.87690492  1  0  0.122871  0.098419  0  0.996465  0
H  H3  1  0.39682958  0.29558897  0.62307668  1  0  0.122858  0.098404  0  0.996372  0
H  H4  1  0.29558928  0.39681859  0.12307750  1  0  0.122835  0.09837  0  0.996443  0
H  H5  1  0.60317191  0.70441349  0.37692136  1  0  0.122851  0.098388  0  0.996387  0
H  H6  1  0.56895882  0.00134591  0.78654440  1  0  0.110712  0.117282  0  1.017842  0
H  H7  1  0.99865738  0.43103672  0.71345899  1  0  0.110695  0.117285  0  1.017945  0
H  H8  1  0.43103371  0.99865243  0.21345989  1  0  0.110697  0.117253  0  1.017886  0
H  H9  1  0.00134010  0.56896165  0.28654477  1  0  0.110709  0.117271  0  1.018004  0
H  H10  1  0.44674519  0.91502513  0.64780109  1  0  0.111597  0.116152  0  1.017465  0
H  H11  1  0.08498529  0.55324454  0.85220641  1  0  0.111541  0.116162  0  1.01743  0
H  H12  1  0.55324620  0.08498405  0.35220460  1  0  0.111552  0.116164  0  1.017455  0
H  H13  1  0.91501316  0.44675481  0.14779795  1  0  0.11155  0.116153  0  1.017525  0
H  H14  1  0.46365389  0.67391495  0.62934672  1  0  0.120557  0.093311  0  0.992323  0
H  H15  1  0.32609822  0.53634280  0.87064693  1  0  0.120599  0.093355  0  0.992303  0
H  H16  1  0.53634065  0.32609644  0.37064705  1  0  0.120618  0.093396  0  0.992337  0
H  H17  1  0.67389828  0.46366058  0.12935316  1  0  0.120592  0.093331  0  0.992355  0
H  H18  1  0.70664451  0.96552577  0.92588102  1  0  0.108425  0.066162  0  1.040861  0
H  H19  1  0.03448225  0.29336776  0.57411406  1  0  0.108442  0.066198  0  1.040926  0
H  H20  1  0.29335999  0.03447274  0.07411711  1  0  0.108422  0.066175  0  1.0408  0
H  H21  1  0.96551728  0.70663070  0.42588542  1  0  0.108447  0.066173  0  1.040932  0
H  H22  1  0.14287375  0.84482294  0.16146344  1  0  0.095945  0.100551  0  1.037003  0
H  H23  1  0.15517740  0.85712972  0.33853662  1  0  0.095942  0.100529  0  1.036981  0
H  H24  1  0.85712775  0.15517751  0.83853562  1  0  0.095936  0.100498  0  1.036993  0
H  H25  1  0.84482603  0.14287169  0.66146456  1  0  0.095942  0.100537  0  1.036986  0
H  H26  1  0.78360430  0.06118579  0.24469877  1  0  0.095447  0.089445  0  1.038267  0
H  H27  1  0.93880392  0.21639474  0.25530658  1  0  0.095439  0.089383  0  1.038363  0
H  H28  1  0.21640117  0.93881471  0.75529904  1  0  0.095419  0.089395  0  1.038335  0
H  H29  1  0.06118856  0.78359955  0.74470302  1  0  0.095415  0.08941  0  1.038378  0
H  H30  1  0.67770784  0.95535309  0.11179753  1  0  0.102466  0.114234  0  1.020833  0
H  H31  1  0.04464534  0.32229342  0.38820270  1  0  0.102453  0.114232  0  1.020864  0
H  H32  1  0.32229261  0.04464831  0.88820397  1  0  0.102467  0.114267  0  1.020817  0
H  H33  1  0.95534917  0.67770493  0.61180138  1  0  0.102445  0.114237  0  1.020781  0
H  H34  1  0.99216946  0.63721922  0.99228505  1  0  0.085343  0.110711  0  1.053207  0
H  H35  1  0.36277993  0.00783799  0.50771805  1  0  0.085314  0.110713  0  1.053166  0
H  H36  1  0.00783294  0.36278116  0.00771878  1  0  0.085321  0.110692  0  1.053185  0
H  H37  1  0.63722050  0.99216438  0.49228416  1  0  0.08534  0.110729  0  1.053122  0
H  H38  1  0.13776154  0.66297927  0.05308536  1  0  0.087564  0.129989  0  1.008302  0
H  H39  1  0.33701961  0.86224408  0.44691660  1  0  0.087548  0.129969  0  1.008341  0
H  H40  1  0.86223790  0.33702009  0.94691889  1  0  0.087557  0.129984  0  1.008336  0
H  H41  1  0.66298087  0.13775535  0.55308429  1  0  0.087532  0.129935  0  1.00835  0
H  H42  1  0.10737597  0.76291111  0.92945886  1  0  0.089001  0.127295  0  1.024819  0
H  H43  1  0.23708195  0.89263356  0.57054156  1  0  0.089035  0.127315  0  1.024825  0
H  H44  1  0.89262652  0.23708537  0.07054214  1  0  0.089022  0.127337  0  1.024821  0
H  H45  1  0.76291750  0.10736682  0.42946096  1  0  0.089015  0.12726  0  1.024789  0
C  C46  1  0.64988968  0.67528187  0.82640819  1  0  0.065306  0.079207  0  3.854783  0
C  C47  1  0.32473106  0.35011672  0.67357749  1  0  0.065307  0.079377  0  3.854592  0
C  C48  1  0.35011787  0.32472674  0.17357880  1  0  0.065332  0.079451  0  3.85455  0
C  C49  1  0.67526943  0.64988271  0.32642341  1  0  0.065317  0.079417  0  3.854654  0
C  C50  1  0.64809073  0.80899333  0.84050400  1  0  0.000684  0.02773  0  4.007528  0
C  C51  1  0.19101684  0.35191738  0.65948700  1  0  0.000685  0.0277  0  4.007583  0
C  C52  1  0.35191281  0.19100820  0.15949067  1  0  0.000711  0.027564  0  4.007495  0
C  C53  1  0.80898163  0.64808400  0.34051472  1  0  0.000702  0.027694  0  4.007583  0
C  C54  1  0.57304995  0.89690598  0.77582504  1  0  -0.048551  -0.042674  0  3.878632  0
C  C55  1  0.10309662  0.42694918  0.72417463  1  0  -0.048543  -0.042775  0  3.878652  0
C  C56  1  0.42694855  0.10309243  0.22417699  1  0  -0.04856  -0.042643  0  3.878646  0
C  C57  1  0.89690185  0.57305120  0.27582800  1  0  -0.048511  -0.042733  0  3.878544  0
C  C58  1  0.50530785  0.84928295  0.69952153  1  0  -0.077328  -0.111524  0  3.962296  0
C  C59  1  0.15072984  0.49468730  0.80047996  1  0  -0.077327  -0.111591  0  3.962423  0
C  C60  1  0.49468565  0.15072338  0.30047856  1  0  -0.07731  -0.111567  0  3.962324  0
C  C61  1  0.84926665  0.50531407  0.19952197  1  0  -0.077346  -0.111577  0  3.962295  0
C  C62  1  0.51382315  0.71552803  0.68899460  1  0  0.050501  0.088816  0  3.927935  0
C  C63  1  0.28448463  0.48617855  0.81099935  1  0  0.050505  0.088856  0  3.928029  0
C  C64  1  0.48617927  0.28448436  0.31100065  1  0  0.050479  0.088805  0  3.927913  0
C  C65  1  0.71551186  0.51382082  0.18900360  1  0  0.050496  0.088889  0  3.928009  0
C  C66  1  0.71932511  0.85891216  0.92060009  1  0  0.077501  0.085714  0  3.946592  0
C  C67  1  0.14108974  0.28068594  0.57939548  1  0  0.077551  0.085638  0  3.94654  0
C  C68  1  0.28067248  0.14108932  0.07939603  1  0  0.077543  0.085715  0  3.947038  0
C  C69  1  0.85891073  0.71931547  0.42060521  1  0  0.077558  0.085738  0  3.946481  0
C  C70  1  0.85122223  0.84328261  0.05848107  1  0  0.085067  0.14442  0  4.030142  0
C  C71  1  0.15672241  0.14878359  0.44151481  1  0  0.085169  0.144397  0  4.030151  0
C  C72  1  0.14877924  0.15672082  0.94151767  1  0  0.085098  0.14436  0  4.029978  0
C  C73  1  0.84327704  0.85121680  0.55848772  1  0  0.085146  0.14434  0  4.030223  0
C  C74  1  0.98263824  0.80832475  0.07499426  1  0  -0.005756  0.111446  0  3.940467  0
C  C75  1  0.19167696  0.01736481  0.42500428  1  0  -0.005758  0.111497  0  3.940298  0
C  C76  1  0.01736132  0.19167674  0.92500165  1  0  -0.005812  0.111446  0  3.940457  0
C  C77  1  0.80832547  0.98263560  0.57499792  1  0  -0.005798  0.111471  0  3.940329  0
C  C78  1  0.04043459  0.86935250  0.15057151  1  0  -0.094131  -0.18748  0  3.936553  0
C  C79  1  0.13064727  0.95956816  0.34942496  1  0  -0.094113  -0.187424  0  3.93651  0
C  C80  1  0.95956693  0.13064799  0.84942592  1  0  -0.094083  -0.187361  0  3.936627  0
C  C81  1  0.86935416  0.04043224  0.65057736  1  0  -0.094078  -0.187437  0  3.936461  0
C  C82  1  0.97275245  0.96321074  0.21087515  1  0  -0.012751  0.065061  0  4.018705  0
C  C83  1  0.03679193  0.02724966  0.28912218  1  0  -0.012757  0.064971  0  4.018746  0
C  C84  1  0.02725101  0.03679372  0.78912164  1  0  -0.012756  0.065072  0  4.018652  0
C  C85  1  0.96320855  0.97274776  0.71088055  1  0  -0.012726  0.065083  0  4.018694  0
C  C86  1  0.84073740  0.99302767  0.19575033  1  0  -0.095678  -0.125165  0  4.010732  0
C  C87  1  0.00696849  0.15926356  0.30424824  1  0  -0.095704  -0.125072  0  4.010693  0
C  C88  1  0.15927006  0.00697685  0.80424441  1  0  -0.095662  -0.125121  0  4.010593  0
C  C89  1  0.99302700  0.84073179  0.69575849  1  0  -0.095698  -0.125182  0  4.010755  0
C  C90  1  0.78077680  0.93355761  0.12141703  1  0  -0.094317  -0.158955  0  3.986676  0
C  C91  1  0.06644580  0.21922464  0.37858071  1  0  -0.094303  -0.158977  0  3.986693  0
C  C92  1  0.21922365  0.06644679  0.87858253  1  0  -0.094326  -0.159031  0  3.98672  0
C  C93  1  0.93355069  0.78077373  0.62142316  1  0  -0.094318  -0.158986  0  3.986603  0
C  C94  1  0.05938138  0.71179624  0.00948299  1  0  -0.245728  -0.412477  0  3.976852  0
C  C95  1  0.28820431  0.94062433  0.49051831  1  0  -0.245707  -0.412511  0  3.976879  0
C  C96  1  0.94062007  0.28820418  0.99051851  1  0  -0.245698  -0.412505  0  3.976818  0
C  C97  1  0.71179714  0.05937609  0.50948319  1  0  -0.245691  -0.412414  0  3.976751  0
N  N98  1  0.58405808  0.62982851  0.75273933  1  0  -0.334092  -0.236363  0  3.600734  0
N  N99  1  0.37018278  0.41594185  0.74725132  1  0  -0.334046  -0.236395  0  3.60047  0
N  N100  1  0.41594542  0.37018299  0.24725103  1  0  -0.334073  -0.236469  0  3.600547  0
N  N101  1  0.62981671  0.58405957  0.25274866  1  0  -0.334066  -0.236472  0  3.600526  0
N  N102  1  0.79295150  0.78507642  0.98092123  1  0  -0.306235  -0.275439  0  3.337025  0
N  N103  1  0.21493173  0.20705504  0.51906811  1  0  -0.306377  -0.275408  0  3.336914  0
N  N104  1  0.20705492  0.21491804  0.01908281  1  0  -0.306292  -0.275378  0  3.3374  0
N  N105  1  0.78506871  0.79294735  0.48093329  1  0  -0.306371  -0.275447  0  3.336918  0
N  N106  1  0.75306192  0.39857715  0.58429299  1  0  0.097498  0.695209  0  4.407376  0
N  N107  1  0.60141866  0.24692677  0.91570275  1  0  0.097434  0.69504  0  4.407229  0
N  N108  1  0.24693756  0.60141625  0.41571271  1  0  0.097345  0.695241  0  4.40728  0
N  N109  1  0.39857721  0.75305795  0.08428968  1  0  0.097454  0.695305  0  4.407381  0
O  O110  1  0.62623367  0.39967677  0.58148648  1  0  -0.205242  -0.447433  0  2.01453  0
O  O111  1  0.60032012  0.37375440  0.91850954  1  0  -0.205218  -0.447402  0  2.01452  0
O  O112  1  0.37376475  0.60032856  0.41851563  1  0  -0.205218  -0.447468  0  2.014507  0
O  O113  1  0.39967474  0.62623231  0.08148197  1  0  -0.205243  -0.447494  0  2.014565  0
O  O114  1  0.78910081  0.41107727  0.67775437  1  0  -0.189336  -0.441102  0  1.994923  0
O  O115  1  0.58891404  0.21088948  0.82224243  1  0  -0.189287  -0.441099  0  1.994951  0
O  O116  1  0.21089668  0.58891511  0.32225246  1  0  -0.189224  -0.44108  0  1.99492  0
O  O117  1  0.41108183  0.78909625  0.17774908  1  0  -0.189268  -0.441113  0  1.994962  0
O  O118  1  0.61458045  0.16718585  0.99864253  1  0  -0.141976  -0.372799  0  1.995247  0
O  O119  1  0.83280352  0.38542703  0.50135166  1  0  -0.141967  -0.372867  0  1.9954  0
O  O120  1  0.38542529  0.83280090  0.00134944  1  0  -0.142  -0.372926  0  1.995332  0
O  O121  1  0.16719596  0.61456237  0.49865691  1  0  -0.141963  -0.372901  0  1.995222  0
