# generated using pymatgen
data_CdH19C20N3O5
_symmetry_space_group_name_H-M   'P 1'
_cell_length_a   10.27538424
_cell_length_b   11.01930903
_cell_length_c   11.01944075
_cell_angle_alpha   97.93352759
_cell_angle_beta   108.29368711
_cell_angle_gamma   108.29342217
_symmetry_Int_Tables_number   1
_chemical_formula_structural   CdH19C20N3O5
_chemical_formula_sum   'Cd2 H38 C40 N6 O10'
_cell_volume   1085.36261597
_cell_formula_units_Z   2
loop_
 _symmetry_equiv_pos_site_id
 _symmetry_equiv_pos_as_xyz
  1  'x, y, z'
loop_
 _atom_site_type_symbol
 _atom_site_label
 _atom_site_symmetry_multiplicity
 _atom_site_fract_x
 _atom_site_fract_y
 _atom_site_fract_z
 _atom_site_occupancy
 _atom_site_hle17_bader_spin_density
 _atom_site_hle17_ddec_charge
 _atom_site_hle17_ddec_spin_density
 _atom_site_hle17_ddec_sum_bond_order
 _atom_site_hle17_magmom
 _atom_site_hse06_10hf_bader_spin_density
 _atom_site_hse06_10hf_ddec_charge
 _atom_site_hse06_10hf_ddec_spin_density
 _atom_site_hse06_10hf_ddec_sum_bond_order
 _atom_site_hse06_10hf_magmom
 _atom_site_hse06_bader_spin_density
 _atom_site_hse06_ddec_charge
 _atom_site_hse06_ddec_spin_density
 _atom_site_hse06_ddec_sum_bond_order
 _atom_site_hse06_magmom
 _atom_site_pbe_bader_spin_density
 _atom_site_pbe_cm5_charge
 _atom_site_pbe_ddec_charge
 _atom_site_pbe_ddec_spin_density
 _atom_site_pbe_ddec_sum_bond_order
 _atom_site_pbe_magmom
Cd  Cd0  1  0.24038562  0.06906787  0.96625745  1  0  1.080436  0  1.735232  0  0  0.87199  0  2.190875  0  0  0.927527  0  2.142642  0  0  0.774403  0.832085  0  2.224381  0
Cd  Cd1  1  0.74039412  0.96625720  0.06907192  1  0  1.080412  0  1.73527  0  0  0.871925  0  2.19095  0  0  0.927466  0  2.142707  0  0  0.774408  0.832038  0  2.224461  0
H  H2  1  0.10969817  0.06069949  0.21158828  1  0  0.083819  0  0.964308  0  0  0.09184  0  1.029068  0  0  0.095038  0  1.025917  0  0  0.113164  0.089623  0  1.031167  0
H  H3  1  0.60969132  0.21159015  0.06069445  1  0  0.083883  0  0.964175  0  0  0.091836  0  1.028998  0  0  0.095035  0  1.025845  0  0  0.11317  0.08962  0  1.031096  0
H  H4  1  0.15416020  0.98944026  0.42161165  1  0  0.112849  0  0.926324  0  0  0.12546  0  0.978395  0  0  0.129255  0  0.976902  0  0  0.112975  0.122474  0  0.980011  0
H  H5  1  0.65413379  0.42159849  0.98940994  1  0  0.112886  0  0.92619  0  0  0.125456  0  0.978316  0  0  0.129254  0  0.97682  0  0  0.112956  0.122469  0  0.979933  0
H  H6  1  0.36432007  0.91209370  0.50115943  1  0  0.092844  0  0.953324  0  0  0.102666  0  1.017389  0  0  0.105564  0  1.016  0  0  0.107398  0.100516  0  1.018521  0
H  H7  1  0.86429688  0.50115071  0.91206979  1  0  0.092788  0  0.953341  0  0  0.10264  0  1.017402  0  0  0.105543  0  1.016  0  0  0.107451  0.100497  0  1.018526  0
H  H8  1  0.44886089  0.03495944  0.81142299  1  0  0.082767  0  0.953134  0  0  0.089654  0  1.020053  0  0  0.091937  0  1.018273  0  0  0.113026  0.088061  0  1.021132  0
H  H9  1  0.94886328  0.81140088  0.03494822  1  0  0.082786  0  0.952999  0  0  0.089669  0  1.01993  0  0  0.091952  0  1.018148  0  0  0.11302  0.088075  0  1.021011  0
H  H10  1  0.55859823  0.13328896  0.65702620  1  0  0.114858  0  0.931485  0  0  0.128268  0  0.983729  0  0  0.131102  0  0.983939  0  0  0.111798  0.126266  0  0.98374  0
H  H11  1  0.05860087  0.65700483  0.13328260  1  0  0.115005  0  0.931384  0  0  0.128403  0  0.983646  0  0  0.131238  0  0.983854  0  0  0.111848  0.1264  0  0.983659  0
H  H12  1  0.26923445  0.34936597  0.60785872  1  0  0.097935  0  0.98764  0  0  0.107626  0  1.052576  0  0  0.110003  0  1.053012  0  0  0.103213  0.106046  0  1.05211  0
H  H13  1  0.76923928  0.60785406  0.34935817  1  0  0.097855  0  0.987525  0  0  0.107551  0  1.052473  0  0  0.109926  0  1.052911  0  0  0.103188  0.105968  0  1.052013  0
H  H14  1  0.17958456  0.25175274  0.77010215  1  0  0.102787  0  0.953656  0  0  0.107767  0  1.01864  0  0  0.110932  0  1.015724  0  0  0.120653  0.105331  0  1.020891  0
H  H15  1  0.67958377  0.77008757  0.25172843  1  0  0.10287  0  0.953545  0  0  0.10784  0  1.018547  0  0  0.111003  0  1.015627  0  0  0.12068  0.105407  0  1.020792  0
H  H16  1  0.40572183  0.33959730  0.45649683  1  0  0.071663  0  0.929086  0  0  0.089211  0  0.98877  0  0  0.090411  0  0.988231  0  0  0.091466  0.088208  0  0.989416  0
H  H17  1  0.90573430  0.45649358  0.33960423  1  0  0.07177  0  0.929042  0  0  0.089287  0  0.988771  0  0  0.090493  0  0.988234  0  0  0.091505  0.088283  0  0.989418  0
H  H18  1  0.52430046  0.24949471  0.47626454  1  0  0.085449  0  0.92511  0  0  0.102903  0  0.983028  0  0  0.103778  0  0.983546  0  0  0.096473  0.102257  0  0.982741  0
H  H19  1  0.02431033  0.47625694  0.24950049  1  0  0.085432  0  0.925118  0  0  0.102899  0  0.983047  0  0  0.103779  0  0.983566  0  0  0.096462  0.102254  0  0.982758  0
H  H20  1  0.70167787  0.41819699  0.68994902  1  0  0.068261  0  0.949649  0  0  0.08738  0  1.01076  0  0  0.087738  0  1.011702  0  0  0.091718  0.087099  0  1.010158  0
H  H21  1  0.20168117  0.68994068  0.41819255  1  0  0.068291  0  0.949625  0  0  0.08741  0  1.010735  0  0  0.087767  0  1.01168  0  0  0.091756  0.087128  0  1.010139  0
H  H22  1  0.58660940  0.51016370  0.66875497  1  0  0.066702  0  0.933995  0  0  0.086107  0  0.9915  0  0  0.086416  0  0.993621  0  0  0.088894  0.085879  0  0.989995  0
H  H23  1  0.08661875  0.66876284  0.51015898  1  0  0.066691  0  0.93407  0  0  0.086099  0  0.991576  0  0  0.086414  0  0.993689  0  0  0.088856  0.085895  0  0.990044  0
H  H24  1  0.73955496  0.45087173  0.48261143  1  0  0.078089  0  0.918966  0  0  0.098985  0  0.973329  0  0  0.100088  0  0.972638  0  0  0.096471  0.098133  0  0.973962  0
H  H25  1  0.23955658  0.48260607  0.45088143  1  0  0.078164  0  0.919053  0  0  0.099067  0  0.973355  0  0  0.100172  0  0.97266  0  0  0.09652  0.098198  0  0.974008  0
H  H26  1  0.62430355  0.54462335  0.45912073  1  0  0.084753  0  0.923463  0  0  0.105192  0  0.977333  0  0  0.106716  0  0.976435  0  0  0.099031  0.103978  0  0.978194  0
H  H27  1  0.12430475  0.45912788  0.54463053  1  0  0.084802  0  0.923516  0  0  0.105217  0  0.977381  0  0  0.106711  0  0.976522  0  0  0.099036  0.104003  0  0.97824  0
H  H28  1  0.96254582  0.53683126  0.72798315  1  0  0.125273  0  0.990994  0  0  0.132916  0  1.053514  0  0  0.136871  0  1.052001  0  0  0.105192  0.129882  0  1.054899  0
H  H29  1  0.46254904  0.72797646  0.53682812  1  0  0.125318  0  0.990978  0  0  0.132987  0  1.053478  0  0  0.136943  0  1.051964  0  0  0.105242  0.129985  0  1.054824  0
H  H30  1  0.16155027  0.74368954  0.88576540  1  0  0.075455  0  0.931206  0  0  0.087222  0  0.989363  0  0  0.088879  0  0.988691  0  0  0.114235  0.085696  0  0.990553  0
H  H31  1  0.66155919  0.88576047  0.74368478  1  0  0.07543  0  0.931157  0  0  0.087195  0  0.98931  0  0  0.088851  0  0.988639  0  0  0.114235  0.085658  0  0.990511  0
H  H32  1  0.95530102  0.97761929  0.70765792  1  0  0.08733  0  0.934036  0  0  0.096467  0  0.994264  0  0  0.099376  0  0.991592  0  0  0.117718  0.094341  0  0.996307  0
H  H33  1  0.45531679  0.70766993  0.97762555  1  0  0.087339  0  0.933908  0  0  0.096483  0  0.994121  0  0  0.099394  0  0.991447  0  0  0.117699  0.094358  0  0.996162  0
H  H34  1  0.74450066  0.78094720  0.54187053  1  0  0.128118  0  0.974671  0  0  0.132052  0  1.042541  0  0  0.136996  0  1.039839  0  0  0.105883  0.128262  0  1.045028  0
H  H35  1  0.24451115  0.54188202  0.78095655  1  0  0.128153  0  0.974584  0  0  0.132087  0  1.04246  0  0  0.137031  0  1.039759  0  0  0.105921  0.128299  0  1.044946  0
H  H36  1  0.30658755  0.36474759  0.04605178  1  0  0.437713  0  0.863191  0  0  0.404138  0  0.930749  0  0  0.41585  0  0.913731  0  0  0.279747  0.395695  0  0.943005  0
H  H37  1  0.80659363  0.04604926  0.36475090  1  0  0.437749  0  0.863129  0  0  0.404192  0  0.930656  0  0  0.415904  0  0.913636  0  0  0.27978  0.395755  0  0.942905  0
H  H38  1  0.42472938  0.35397039  0.17046360  1  0  0.401715  0  0.851015  0  0  0.390262  0  0.899919  0  0  0.397904  0  0.890388  0  0  0.308487  0.384622  0  0.906317  0
H  H39  1  0.92473297  0.17045974  0.35396955  1  0  0.401707  0  0.851065  0  0  0.390247  0  0.899977  0  0  0.397892  0  0.890412  0  0  0.308512  0.384608  0  0.906373  0
C  C40  1  0.19890974  0.02602581  0.24936564  1  0  0.117022  0  3.726088  0  0  0.081404  0  3.988797  0  0  0.08851  0  4.004748  0  0  0.037034  0.076804  0  3.97765  0
C  C41  1  0.69889647  0.24936056  0.02601060  1  0  0.1171  0  3.726297  0  0  0.081587  0  3.988937  0  0  0.088689  0  4.00489  0  0  0.037138  0.076987  0  3.977788  0
C  C42  1  0.22490884  0.98606455  0.36644986  1  0  -0.094025  0  3.732173  0  0  -0.110743  0  3.99263  0  0  -0.114209  0  4.010375  0  0  -0.077039  -0.108653  0  3.980968  0
C  C43  1  0.72489665  0.36644343  0.98605353  1  0  -0.094053  0  3.732295  0  0  -0.110747  0  3.99274  0  0  -0.114217  0  4.010488  0  0  -0.07701  -0.108657  0  3.98108  0
C  C44  1  0.34087007  0.94306565  0.40953539  1  0  -0.042548  0  3.714679  0  0  -0.071422  0  3.973368  0  0  -0.068563  0  3.988607  0  0  -0.06738  -0.073311  0  3.963736  0
C  C45  1  0.84084873  0.40952131  0.94304194  1  0  -0.042569  0  3.714663  0  0  -0.071459  0  3.973426  0  0  -0.068597  0  3.988674  0  0  -0.06753  -0.073355  0  3.963789  0
C  C46  1  0.43057111  0.94114632  0.33663764  1  0  -0.053784  0  3.637277  0  0  -0.041966  0  3.879077  0  0  -0.045007  0  3.894524  0  0  0.006626  -0.040758  0  3.869563  0
C  C47  1  0.93055884  0.33663136  0.94112895  1  0  -0.053674  0  3.637087  0  0  -0.041951  0  3.878942  0  0  -0.045005  0  3.894398  0  0  0.006698  -0.040742  0  3.869437  0
C  C48  1  0.56674475  0.90732702  0.39325684  1  0  0.661424  0  3.986729  0  0  0.605526  0  4.307039  0  0  0.64025  0  4.296678  0  0  0.190201  0.58173  0  4.313126  0
C  C49  1  0.06674023  0.39325825  0.90732849  1  0  0.661217  0  3.987132  0  0  0.605435  0  4.307261  0  0  0.64016  0  4.2969  0  0  0.190177  0.581634  0  4.313354  0
C  C50  1  0.38999541  0.97509298  0.21557888  1  0  0.064883  0  3.732832  0  0  0.063481  0  3.968756  0  0  0.064052  0  3.9878  0  0  0.103154  0.062617  0  3.956502  0
C  C51  1  0.88999045  0.21557914  0.97509674  1  0  0.06496  0  3.732898  0  0  0.063614  0  3.968801  0  0  0.064203  0  3.987823  0  0  0.103207  0.062741  0  3.956568  0
C  C52  1  0.46996186  0.96387313  0.12416017  1  0  0.613389  0  3.938571  0  0  0.55807  0  4.232577  0  0  0.593032  0  4.224972  0  0  0.205892  0.534224  0  4.237156  0
C  C53  1  0.96995967  0.12416858  0.96387399  1  0  0.613331  0  3.938608  0  0  0.558011  0  4.23262  0  0  0.592968  0  4.225022  0  0  0.205828  0.534144  0  4.237211  0
C  C54  1  0.41346579  0.10610796  0.76433342  1  0  0.117218  0  3.739645  0  0  0.087795  0  3.990883  0  0  0.094853  0  4.01088  0  0  0.038661  0.08337  0  3.976977  0
C  C55  1  0.91346737  0.76431476  0.10609719  1  0  0.117099  0  3.739439  0  0  0.087675  0  3.990686  0  0  0.094734  0  4.010684  0  0  0.038621  0.083251  0  3.976784  0
C  C56  1  0.47304004  0.16042838  0.67804347  1  0  -0.182557  0  3.736547  0  0  -0.199273  0  3.985023  0  0  -0.208979  0  4.008929  0  0  -0.087639  -0.193066  0  3.969066  0
C  C57  1  0.97305189  0.67803299  0.16043128  1  0  -0.182497  0  3.736412  0  0  -0.19928  0  3.984787  0  0  -0.208986  0  4.008695  0  0  -0.087614  -0.193076  0  3.96883  0
C  C58  1  0.42221261  0.24987672  0.61856785  1  0  0.150309  0  3.750205  0  0  0.16564  0  3.989644  0  0  0.170529  0  4.013178  0  0  0.011731  0.162475  0  3.973613  0
C  C59  1  0.92222039  0.61855802  0.24987612  1  0  0.149849  0  3.750782  0  0  0.165441  0  3.989909  0  0  0.170327  0  4.013477  0  0  0.011611  0.162285  0  3.97385  0
C  C60  1  0.31326020  0.28072787  0.65103238  1  0  -0.179241  0  3.719707  0  0  -0.196147  0  3.963796  0  0  -0.204786  0  3.985662  0  0  -0.087592  -0.190271  0  3.948794  0
C  C61  1  0.81325799  0.65101763  0.28071180  1  0  -0.178879  0  3.719645  0  0  -0.195845  0  3.963613  0  0  -0.204481  0  3.98548  0  0  -0.087519  -0.189974  0  3.948614  0
C  C62  1  0.26175272  0.22563721  0.74127960  1  0  0.14093  0  3.68261  0  0  0.112146  0  3.928337  0  0  0.12059  0  3.945235  0  0  0.049852  0.106451  0  3.917171  0
C  C63  1  0.76176324  0.74127565  0.22562376  1  0  0.14053  0  3.682784  0  0  0.111735  0  3.928542  0  0  0.120184  0  3.945433  0  0  0.049726  0.106044  0  3.917371  0
C  C64  1  0.48881034  0.31631069  0.53024044  1  0  -0.160417  0  3.71112  0  0  -0.204737  0  3.966746  0  0  -0.206328  0  3.979395  0  0  -0.156921  -0.20349  0  3.958012  0
C  C65  1  0.98881675  0.53023239  0.31631099  1  0  -0.160324  0  3.711404  0  0  -0.204765  0  3.967067  0  0  -0.206381  0  3.979745  0  0  -0.156878  -0.203519  0  3.958342  0
C  C66  1  0.62276299  0.44388333  0.61485849  1  0  -0.088788  0  3.663275  0  0  -0.124798  0  3.917677  0  0  -0.126376  0  3.932361  0  0  -0.157711  -0.123488  0  3.907341  0
C  C67  1  0.12276393  0.61485339  0.44388011  1  0  -0.088753  0  3.663434  0  0  -0.124755  0  3.91782  0  0  -0.126324  0  3.932502  0  0  -0.157707  -0.123461  0  3.90748  0
C  C68  1  0.70205130  0.51778075  0.53435267  1  0  -0.16068  0  3.701757  0  0  -0.206342  0  3.958053  0  0  -0.207307  0  3.969128  0  0  -0.156029  -0.205483  0  3.950329  0
C  C69  1  0.20205474  0.53435232  0.51778464  1  0  -0.160946  0  3.701937  0  0  -0.206539  0  3.958119  0  0  -0.207492  0  3.969202  0  0  -0.156109  -0.205673  0  3.950409  0
C  C70  1  0.83255314  0.64097964  0.62360726  1  0  0.148128  0  3.725299  0  0  0.164816  0  3.964476  0  0  0.169564  0  3.987573  0  0  0.009709  0.161544  0  3.948626  0
C  C71  1  0.33256446  0.62360770  0.64098256  1  0  0.148257  0  3.725045  0  0  0.164904  0  3.964261  0  0  0.169658  0  3.987349  0  0  0.009798  0.161634  0  3.948415  0
C  C72  1  0.95406832  0.63220666  0.72007623  1  0  -0.189838  0  3.700847  0  0  -0.206156  0  3.945537  0  0  -0.214883  0  3.967476  0  0  -0.092961  -0.200041  0  3.9308  0
C  C73  1  0.45407567  0.72007843  0.63220513  1  0  -0.189939  0  3.700747  0  0  -0.206289  0  3.94549  0  0  -0.215017  0  3.967426  0  0  -0.093049  -0.200196  0  3.93073  0
C  C74  1  0.06648381  0.74778030  0.80883389  1  0  0.122587  0  3.746416  0  0  0.093355  0  4.00031  0  0  0.100029  0  4.020483  0  0  0.03798  0.088982  0  3.986823  0
C  C75  1  0.56648759  0.80883375  0.74778240  1  0  0.122636  0  3.746351  0  0  0.09341  0  4.000221  0  0  0.100085  0  4.020393  0  0  0.037973  0.089045  0  3.986743  0
C  C76  1  0.95196761  0.87788611  0.70922332  1  0  0.134873  0  3.71559  0  0  0.103202  0  3.968718  0  0  0.110738  0  3.986692  0  0  0.042232  0.098581  0  3.956574  0
C  C77  1  0.45197602  0.70923580  0.87788520  1  0  0.134889  0  3.71565  0  0  0.103224  0  3.968757  0  0  0.110758  0  3.986738  0  0  0.042299  0.098606  0  3.95661  0
C  C78  1  0.83430043  0.76746096  0.61711376  1  0  -0.184752  0  3.697696  0  0  -0.201401  0  3.944785  0  0  -0.210317  0  3.966102  0  0  -0.08831  -0.195763  0  3.931196  0
C  C79  1  0.33430637  0.61712177  0.76746362  1  0  -0.184783  0  3.697628  0  0  -0.201445  0  3.944766  0  0  -0.210356  0  3.966076  0  0  -0.088377  -0.195807  0  3.931177  0
N  N80  1  0.27808507  0.01800242  0.17449990  1  0  -0.352588  0  3.284125  0  0  -0.280235  0  3.547183  0  0  -0.297807  0  3.565441  0  0  -0.324653  -0.268088  0  3.534717  0
N  N81  1  0.77807832  0.17450358  0.01799598  1  0  -0.352748  0  3.284424  0  0  -0.280438  0  3.547455  0  0  -0.298013  0  3.565707  0  0  -0.324748  -0.268289  0  3.534995  0
N  N82  1  0.31128171  0.13939751  0.79723589  1  0  -0.331718  0  3.248238  0  0  -0.253266  0  3.508962  0  0  -0.27428  0  3.528994  0  0  -0.334525  -0.238972  0  3.495211  0
N  N83  1  0.81128305  0.79721986  0.13937476  1  0  -0.331445  0  3.248282  0  0  -0.253001  0  3.508983  0  0  -0.274013  0  3.52902  0  0  -0.334421  -0.238707  0  3.495229  0
N  N84  1  0.06520412  0.86909277  0.80563082  1  0  -0.357373  0  3.277724  0  0  -0.284432  0  3.55087  0  0  -0.30424  0  3.569539  0  0  -0.336725  -0.270348  0  3.537626  0
N  N85  1  0.56521784  0.80563302  0.86909347  1  0  -0.357434  0  3.277843  0  0  -0.284455  0  3.550932  0  0  -0.30426  0  3.5696  0  0  -0.336762  -0.270369  0  3.537681  0
O  O86  1  0.44110865  0.00669607  0.02133896  1  0  -0.636955  0  2.064776  0  0  -0.574167  0  2.328138  0  0  -0.601913  0  2.316247  0  0  -0.325275  -0.554467  0  2.335492  0
O  O87  1  0.94111782  0.02134919  0.00670560  1  0  -0.636974  0  2.064828  0  0  -0.574162  0  2.328149  0  0  -0.601909  0  2.316264  0  0  -0.325305  -0.554463  0  2.335516  0
O  O88  1  0.56465571  0.91129594  0.15686285  1  0  -0.595604  0  2.104191  0  0  -0.51844  0  2.348019  0  0  -0.548317  0  2.340058  0  0  -0.300067  -0.497848  0  2.353189  0
O  O89  1  0.06464763  0.15685595  0.91128889  1  0  -0.595629  0  2.10411  0  0  -0.518523  0  2.347983  0  0  -0.548396  0  2.340027  0  0  -0.300074  -0.49786  0  2.353101  0
O  O90  1  0.68986001  0.00585747  0.44351025  1  0  -0.674966  0  1.889073  0  0  -0.627536  0  2.101386  0  0  -0.653827  0  2.08961  0  0  -0.361645  -0.607918  0  2.108664  0
O  O91  1  0.18984785  0.44350292  0.00586744  1  0  -0.674867  0  1.88907  0  0  -0.627455  0  2.10131  0  0  -0.653747  0  2.089534  0  0  -0.361618  -0.607839  0  2.108588  0
O  O92  1  0.54284518  0.78785505  0.39280058  1  0  -0.631644  0  1.884851  0  0  -0.591156  0  2.1048  0  0  -0.615822  0  2.094634  0  0  -0.342472  -0.572366  0  2.110875  0
O  O93  1  0.04284973  0.39280892  0.78786406  1  0  -0.631549  0  1.885169  0  0  -0.591084  0  2.105051  0  0  -0.615752  0  2.094884  0  0  -0.342438  -0.572287  0  2.11112  0
O  O94  1  0.37646190  0.31769763  0.07504628  1  0  -0.832117  0  1.788822  0  0  -0.781327  0  1.959084  0  0  -0.801572  0  1.930588  0  0  -0.588092  -0.766943  0  1.978702  0
O  O95  1  0.87646566  0.07504185  0.31769719  1  0  -0.832124  0  1.788859  0  0  -0.781333  0  1.959124  0  0  -0.801581  0  1.930589  0  0  -0.588139  -0.766955  0  1.97872  0
