# generated using pymatgen
data_HoP4H20Ru2(CO5)4
_symmetry_space_group_name_H-M   'P 1'
_cell_length_a   9.48678307
_cell_length_b   9.48634154
_cell_length_c   15.39000000
_cell_angle_alpha   92.72914535
_cell_angle_beta   92.72901824
_cell_angle_gamma   98.29805541
_symmetry_Int_Tables_number   1
_chemical_formula_structural   HoP4H20Ru2(CO5)4
_chemical_formula_sum   'Ho2 P8 H40 Ru4 C8 O40'
_cell_volume   1366.88484916
_cell_formula_units_Z   2
loop_
 _symmetry_equiv_pos_site_id
 _symmetry_equiv_pos_as_xyz
  1  'x, y, z'
loop_
 _atom_site_type_symbol
 _atom_site_label
 _atom_site_symmetry_multiplicity
 _atom_site_fract_x
 _atom_site_fract_y
 _atom_site_fract_z
 _atom_site_occupancy
 _atom_site_hle17_ddec_charge
 _atom_site_hle17_ddec_spin_density
 _atom_site_hle17_ddec_sum_bond_order
 _atom_site_hle17_magmom
 _atom_site_hse06_10hf_ddec_charge
 _atom_site_hse06_10hf_ddec_spin_density
 _atom_site_hse06_10hf_ddec_sum_bond_order
 _atom_site_hse06_10hf_magmom
 _atom_site_hse06_bader_charge
 _atom_site_hse06_bader_spin_density
 _atom_site_hse06_ddec_charge
 _atom_site_hse06_ddec_spin_density
 _atom_site_hse06_ddec_sum_bond_order
 _atom_site_hse06_magmom
 _atom_site_pbe_bader_charge
 _atom_site_pbe_bader_spin_density
 _atom_site_pbe_cm5_charge
 _atom_site_pbe_ddec_charge
 _atom_site_pbe_ddec_spin_density
 _atom_site_pbe_ddec_sum_bond_order
 _atom_site_pbe_magmom
Ho  Ho0  1  0.99374375  0.00624896  0.74999901  1  2.363874  -0.000389  1.568841  0.0  2.301579  -0.000364  1.884767  0.0  2.278957  -0.000194  2.340888  -0.000414  1.847155  0.0  2.20995  -0.000181  1.540893  2.275693  -0.000432  1.909331  0.0
Ho  Ho1  1  0.00624100  0.99375182  0.25001265  1  2.363973  -0.000385  1.569017  0.0  2.301618  -0.000362  1.884981  0.0  2.27862  -0.000195  2.340927  -0.000415  1.847361  0.0  2.20972  -0.00018  1.540926  2.275732  -0.00043  1.909548  0.0
P  P2  1  0.06047408  0.34316279  0.64186601  1  1.350783  -0.001011  4.918331  0.003  1.196693  0.000316  5.430735  0.004  3.410148  0.001002  1.245684  -0.001249  5.399248  0.003  3.289703  0.003094  0.318631  1.162491  0.002438  5.45249  0.005
P  P3  1  0.65682507  0.93952762  0.85813927  1  1.350668  -0.001023  4.918271  0.003  1.196585  0.000327  5.430783  0.004  3.409096  0.001169  1.246374  -0.000652  5.395998  0.003  3.289922  0.003094  0.318645  1.162373  0.002437  5.452568  0.005
P  P4  1  0.93954819  0.65683479  0.35815770  1  1.350547  -0.001021  4.918551  0.003  1.196424  0.000328  5.430995  0.004  3.409165  0.001172  1.246213  -0.000643  5.396209  0.003  3.289796  0.003095  0.318608  1.162213  0.002438  5.452803  0.005
P  P5  1  0.34315976  0.06045929  0.14185964  1  1.350502  -0.001015  4.918365  0.003  1.196417  0.000319  5.43079  0.004  3.409878  0.001003  1.245409  -0.001249  5.399298  0.003  3.289716  0.003094  0.318645  1.162222  0.002437  5.452541  0.005
P  P6  1  0.99778914  0.64958185  0.66026236  1  1.36725  -0.000892  4.904049  0.003  1.216655  0.000549  5.414496  0.004  3.424862  0.001034  1.265841  -0.000917  5.380441  0.003  3.298605  0.003204  0.325107  1.182969  0.00261  5.435437  0.005
P  P7  1  0.35040726  0.00221066  0.83974485  1  1.367201  -0.000868  4.904326  0.003  1.216602  0.000551  5.414822  0.004  3.424164  0.001367  1.26522  -0.00058  5.383795  0.004  3.29891  0.003204  0.325225  1.182925  0.002609  5.435707  0.005
P  P8  1  0.00223618  0.35042213  0.33976163  1  1.367703  -0.000864  4.903399  0.003  1.216921  0.000551  5.413863  0.004  3.424148  0.001368  1.265533  -0.00058  5.38284  0.004  3.298482  0.003207  0.325404  1.183256  0.002608  5.434739  0.005
P  P9  1  0.64957752  0.99776878  0.16024539  1  1.367553  -0.000893  4.903341  0.003  1.216941  0.000548  5.413805  0.004  3.42494  0.001037  1.266124  -0.000917  5.379746  0.003  3.29887  0.003205  0.32543  1.183265  0.002609  5.434732  0.005
H  H10  1  0.82730984  0.44418008  0.72528244  1  0.383077  2.6e-05  0.823241  0.0  0.368196  0.000153  0.876298  0.0  0.631296  0.000127  0.375502  5.5e-05  0.868468  0.0  0.613163  0.000323  0.331443  0.361989  0.000263  0.883355  0.0
H  H11  1  0.55581383  0.17268993  0.77473011  1  0.382947  2.1e-05  0.82352  0.0  0.368145  0.00015  0.876423  0.0  0.633472  -1.8e-05  0.376895  -7.7e-05  0.867263  0.0  0.612984  0.000324  0.331415  0.361913  0.000263  0.883501  0.0
H  H12  1  0.17269994  0.55584738  0.27474373  1  0.382879  2.1e-05  0.823846  0.0  0.368201  0.00015  0.876558  0.0  0.633199  -1.8e-05  0.376952  -7.7e-05  0.867395  0.0  0.612723  0.000326  0.33143  0.361969  0.000264  0.883638  0.0
H  H13  1  0.44414794  0.82729805  0.22526815  1  0.382898  2.6e-05  0.823758  0.0  0.368125  0.000153  0.876607  0.0  0.630897  0.000127  0.375422  5.5e-05  0.868791  0.0  0.612872  0.000325  0.331437  0.361919  0.000264  0.883662  0.0
H  H14  1  0.41483174  0.68378845  0.53727573  1  0.426532  -5.5e-05  0.811568  0.0  0.414487  2.8e-05  0.860384  0.001  0.648235  0.0005  0.421682  -3.6e-05  0.852544  0.001  0.633905  0.000554  0.332922  0.408822  0.000104  0.866478  0.001
H  H15  1  0.31621731  0.58518561  0.96269609  1  0.42651  -5.2e-05  0.811717  0.0  0.414485  2.9e-05  0.860477  0.001  0.647381  0.00026  0.422537  -7e-06  0.852971  0.0  0.633558  0.000554  0.332938  0.408799  0.000105  0.866564  0.001
H  H16  1  0.58513173  0.31626141  0.46274064  1  0.426719  -5.2e-05  0.811303  0.0  0.414781  2.9e-05  0.85993  0.001  0.647983  0.000259  0.422832  -7e-06  0.852416  0.0  0.634165  0.000552  0.333033  0.409096  0.000104  0.86602  0.001
H  H17  1  0.68376026  0.41482371  0.03723828  1  0.426776  -5.4e-05  0.811045  0.0  0.414734  2.8e-05  0.859858  0.001  0.649095  0.0005  0.421931  -3.6e-05  0.852005  0.001  0.634347  0.000554  0.333023  0.409068  0.000104  0.865958  0.001
H  H18  1  0.39790416  0.51870461  0.53898513  1  0.434778  -6.9e-05  0.808898  0.0  0.412213  -1.5e-05  0.87548  0.0  0.642881  0.000472  0.422991  6.1e-05  0.861753  0.001  0.624668  0.000612  0.323153  0.406563  0.000161  0.881085  0.0
H  H19  1  0.48129475  0.60227237  0.96089177  1  0.434484  -7.3e-05  0.809532  0.0  0.411949  -1.8e-05  0.875985  0.0  0.640133  0.000124  0.42031  -0.000222  0.867368  0.0  0.623754  0.000612  0.322994  0.406334  0.000161  0.8815  0.0
H  H20  1  0.60229101  0.48134205  0.46088590  1  0.434308  -7.3e-05  0.809789  0.0  0.411801  -1.8e-05  0.876182  0.0  0.640388  0.000123  0.420153  -0.000222  0.867578  0.0  0.62359  0.000611  0.322867  0.406184  0.000161  0.881702  0.0
H  H21  1  0.51868422  0.39782550  0.03899327  1  0.434658  -6.9e-05  0.809337  0.0  0.412234  -1.4e-05  0.875663  0.0  0.642394  0.000471  0.423009  6.1e-05  0.861937  0.001  0.624739  0.000612  0.323106  0.406583  0.000161  0.881273  0.0
H  H22  1  0.83098220  0.14279583  0.61984690  1  0.442425  -0.000358  0.851144  0.0  0.414975  -0.000207  0.907703  0.0  0.66882  -1.8e-05  0.424954  -0.000257  0.892679  0.0  0.643178  6.1e-05  0.30007  0.40781  -0.000139  0.918225  0.0
H  H23  1  0.85720074  0.16900478  0.88015235  1  0.44257  -0.000355  0.850939  0.0  0.415046  -0.000207  0.907614  0.0  0.670906  -1.6e-05  0.426341  -0.000208  0.891265  0.0  0.643478  6.1e-05  0.30016  0.407856  -0.000139  0.918162  0.0
H  H24  1  0.16902195  0.85722202  0.38016713  1  0.442377  -0.000355  0.851222  0.0  0.41494  -0.000208  0.907764  0.0  0.671077  -1.6e-05  0.426235  -0.000209  0.891414  0.0  0.643267  6.2e-05  0.300053  0.40775  -0.000138  0.918311  0.0
H  H25  1  0.14275602  0.83097786  0.11985730  1  0.442259  -0.000358  0.851394  0.0  0.414976  -0.000207  0.907717  0.0  0.669261  -1.9e-05  0.424955  -0.000257  0.892694  0.0  0.636685  6.3e-05  0.300158  0.407813  -0.000139  0.918233  0.0
H  H26  1  0.71396605  0.07386944  0.68225704  1  0.422742  -4e-06  0.880721  0.0  0.391287  1e-05  0.945506  0.0  0.673565  1.4e-05  0.402284  1e-05  0.929211  0.0  0.647396  2.5e-05  0.294182  0.384205  1.5e-05  0.955916  0.0
H  H27  1  0.92612082  0.28602163  0.81774140  1  0.422706  -4e-06  0.880794  0.0  0.391272  9e-06  0.945539  0.0  0.672907  -6e-06  0.401597  -9e-06  0.93024  0.0  0.647431  2.5e-05  0.294223  0.3842  1.5e-05  0.955933  0.0
H  H28  1  0.28602281  0.92613774  0.31774908  1  0.42283  -4e-06  0.880594  0.0  0.391351  9e-06  0.945432  0.0  0.672533  -6e-06  0.401677  -1e-05  0.930131  0.0  0.647731  2.5e-05  0.294175  0.384278  1.5e-05  0.955827  0.0
H  H29  1  0.07387307  0.71396955  0.18228714  1  0.422761  -4e-06  0.880738  0.0  0.391327  1e-05  0.94548  0.0  0.672881  1.4e-05  0.402326  1e-05  0.929181  0.0  0.646793  2.5e-05  0.294266  0.384244  1.6e-05  0.955893  0.0
H  H30  1  0.12266434  0.89805314  0.91461766  1  0.442571  -0.000105  0.845517  0.0  0.414446  -0.000155  0.903367  0.0  0.658013  0.000307  0.424796  0.000129  0.887543  0.0  0.632891  0.000146  0.307534  0.407097  -7.8e-05  0.914342  0.0
H  H31  1  0.10195375  0.87730577  0.58538335  1  0.442581  -0.000116  0.845568  0.0  0.414385  -0.000162  0.903514  0.0  0.662795  -0.000108  0.42536  -0.000313  0.887508  0.0  0.63258  0.000146  0.307412  0.407019  -7.8e-05  0.914502  0.0
H  H32  1  0.87731740  0.10194871  0.08538030  1  0.442667  -0.000114  0.845431  0.0  0.414532  -0.000162  0.903296  0.0  0.660161  -0.000108  0.425504  -0.000312  0.887293  0.0  0.632571  0.000145  0.307486  0.407169  -7.9e-05  0.914276  0.0
H  H33  1  0.89803347  0.12270461  0.41462931  1  0.442683  -0.000103  0.845431  0.0  0.414537  -0.000155  0.903303  0.0  0.657565  0.000308  0.424889  0.000129  0.887476  0.0  0.632216  0.000145  0.307513  0.407188  -7.9e-05  0.914274  0.0
H  H34  1  0.95365375  0.87107067  0.91861768  1  0.450391  9e-06  0.797753  0.0  0.433822  -3.2e-05  0.847044  0.0  0.656534  0.000158  0.44255  0.000109  0.834129  0.0  0.635993  1e-05  0.334158  0.427424  -5e-06  0.856099  0.0
H  H35  1  0.12891549  0.04632044  0.58135555  1  0.450499  6e-06  0.79769  0.0  0.433945  -3.5e-05  0.846891  0.0  0.656212  -6.1e-05  0.442599  -7.7e-05  0.834294  0.0  0.636197  9e-06  0.334209  0.427553  -6e-06  0.855991  0.0
H  H36  1  0.04632971  0.12891410  0.08136033  1  0.450484  6e-06  0.797705  0.0  0.433904  -3.6e-05  0.846941  0.0  0.656698  -6.1e-05  0.442559  -7.7e-05  0.834341  0.0  0.636139  9e-06  0.334176  0.42751  -7e-06  0.856043  0.0
H  H37  1  0.87107669  0.95368781  0.41866369  1  0.450392  9e-06  0.797698  0.0  0.433853  -3.2e-05  0.846975  0.0  0.65695  0.000158  0.442578  0.000109  0.834064  0.0  0.636033  9e-06  0.334159  0.42746  -7e-06  0.855991  0.0
H  H38  1  0.17366592  0.43478796  0.82268884  1  0.126637  5.8e-05  0.925348  0.0  0.14759  8e-05  0.983232  0.0  0.076249  8e-05  0.150367  3.4e-05  0.98132  0.0  0.07064  0.000296  0.102334  0.146001  0.000118  0.984012  0.0
H  H39  1  0.56519908  0.82634529  0.67731084  1  0.126707  5.7e-05  0.925336  0.0  0.147643  7.9e-05  0.98323  0.0  0.07445  4.5e-05  0.148997  2e-06  0.983154  0.0  0.070541  0.000296  0.102377  0.146079  0.000118  0.983978  0.0
H  H40  1  0.82636093  0.56521922  0.17733074  1  0.126594  5.7e-05  0.925335  0.0  0.147632  7.9e-05  0.983139  0.0  0.074218  4.4e-05  0.148983  2e-06  0.983071  0.0  0.070815  0.000295  0.102402  0.146068  0.000118  0.983886  0.0
H  H41  1  0.43480572  0.17365549  0.32267541  1  0.126734  5.8e-05  0.925345  0.0  0.147703  8e-05  0.983187  0.0  0.076683  8.1e-05  0.150483  3.4e-05  0.981264  0.0  0.070782  0.000295  0.102395  0.14611  0.000118  0.983969  0.0
H  H42  1  0.14554215  0.61943275  0.82872385  1  0.125154  -3.3e-05  0.935378  0.0  0.143738  5e-06  0.998678  0.0  0.08548  -6e-06  0.145273  -6.8e-05  0.99808  0.0  0.075797  0.000172  0.097806  0.141893  2.7e-05  0.999713  0.0
H  H43  1  0.38056156  0.85445976  0.67127318  1  0.125152  -3.2e-05  0.935327  0.0  0.143764  5e-06  0.998577  0.0  0.087427  7e-05  0.146948  5e-06  0.996747  0.0  0.075919  0.000171  0.097813  0.141886  2.7e-05  0.999638  0.0
H  H44  1  0.85449783  0.38057763  0.17128452  1  0.125149  -3.2e-05  0.935197  0.0  0.143737  6e-06  0.998536  0.0  0.087479  6.9e-05  0.146923  4e-06  0.9967  0.0  0.075888  0.00017  0.09782  0.14186  2.6e-05  0.999594  0.0
H  H45  1  0.61943823  0.14550688  0.32871712  1  0.125132  -3.3e-05  0.93528  0.0  0.143708  5e-06  0.998612  0.0  0.084915  -6e-06  0.145241  -6.7e-05  0.998009  0.0  0.075874  0.00017  0.097802  0.141863  2.6e-05  0.999646  0.0
H  H46  1  0.26028221  0.55805377  0.75158301  1  0.116358  1.5e-05  0.941258  0.0  0.138293  0.0001  1.001153  0.0  0.046476  4.2e-05  0.139561  -7e-06  1.001226  0.0  0.045522  0.00031  0.099043  0.13752  0.000151  1.001194  0.0
H  H47  1  0.44193523  0.73971759  0.74841380  1  0.116276  1.7e-05  0.941301  0.0  0.138207  0.000101  1.001211  0.0  0.044163  0.000144  0.138675  5.2e-05  1.002111  0.0  0.045186  0.000309  0.099035  0.137454  0.00015  1.001233  0.0
H  H48  1  0.73973486  0.44192994  0.24842390  1  0.116224  1.7e-05  0.941249  0.0  0.138171  0.000101  1.001168  0.0  0.044351  0.000144  0.138641  5.2e-05  1.002065  0.0  0.045511  0.000307  0.099078  0.137423  0.000149  1.00118  0.0
H  H49  1  0.55808954  0.26026826  0.25157196  1  0.11637  1.5e-05  0.941249  0.0  0.138244  0.0001  1.001196  0.0  0.046077  4.2e-05  0.139512  -7e-06  1.001263  0.0  0.045259  0.000308  0.0991  0.137479  0.000149  1.001225  0.0
Ru  Ru50  1  0.12159885  0.54023510  0.49662914  1  0.988576  1.44525  3.195716  1.36  0.931113  1.416414  3.765585  1.335  1.372125  1.297115  0.97835  1.341777  3.715301  1.277  1.274832  1.331171  0.781798  0.891966  1.401326  3.803666  1.311
Ru  Ru51  1  0.45974030  0.87840043  0.00338545  1  0.989294  1.451879  3.195157  1.366  0.931555  1.420695  3.765049  1.339  1.38583  1.462338  1.01162  1.541247  3.680005  1.457  1.274924  1.331332  0.781545  0.891425  1.40152  3.804196  1.311
Ru  Ru52  1  0.87842627  0.45976034  0.50339655  1  0.990047  1.452779  3.194749  1.367  0.931696  1.420753  3.76503  1.339  1.386127  1.462257  1.011881  1.54124  3.679824  1.457  1.271176  1.331262  0.781697  0.891718  1.401546  3.803951  1.312
Ru  Ru53  1  0.54022666  0.12157261  0.99661578  1  0.989122  1.446211  3.195616  1.361  0.931085  1.416499  3.7658  1.335  1.371616  1.297123  0.978393  1.341776  3.715451  1.277  1.271095  1.331137  0.781759  0.892018  1.401385  3.803799  1.311
C  C54  1  0.03592980  0.49284027  0.71901684  1  -0.178933  -0.001753  3.658941  -0.002  -0.14367  -0.001142  3.919685  -0.001  -0.470113  0.000136  -0.151354  -0.000161  3.932674  0.0  -0.429273  8.2e-05  0.050891  -0.138282  -0.000904  3.91071  -0.001
C  C55  1  0.50714630  0.96407217  0.78098777  1  -0.178914  -0.001776  3.659141  -0.002  -0.143659  -0.001154  3.919898  -0.001  -0.466065  -0.000252  -0.151775  -0.000595  3.934437  0.0  -0.429407  8.1e-05  0.050909  -0.13825  -0.000905  3.910857  -0.001
C  C56  1  0.96409095  0.50715411  0.28100479  1  -0.179143  -0.001776  3.659705  -0.002  -0.143414  -0.001153  3.919698  -0.001  -0.466832  -0.000257  -0.151522  -0.000602  3.934223  0.0  -0.428782  7.9e-05  0.050793  -0.138046  -0.000907  3.910757  -0.001
C  C57  1  0.49284545  0.03591154  0.21900281  1  -0.178733  -0.001757  3.659149  -0.002  -0.143424  -0.001142  3.919755  -0.001  -0.469808  0.000134  -0.151092  -0.000162  3.932726  0.0  -0.429071  8.1e-05  0.050784  -0.138068  -0.000906  3.91085  -0.001
C  C58  1  0.16186378  0.52866433  0.78524907  1  -0.299007  0.000583  3.69455  0.001  -0.385744  0.000796  3.942009  0.001  -0.097831  0.000584  -0.385886  0.000373  3.94967  0.0  -0.091152  0.001234  -0.23467  -0.384566  0.000917  3.935652  0.001
C  C59  1  0.47132780  0.83814225  0.71475126  1  -0.29916  0.000572  3.694779  0.001  -0.385844  0.000791  3.942175  0.001  -0.099629  0.000309  -0.388549  0.000227  3.954076  0.0  -0.090916  0.001233  -0.234755  -0.384623  0.000917  3.935741  0.001
C  C60  1  0.83816487  0.47134072  0.21477115  1  -0.298922  0.00057  3.694753  0.001  -0.385762  0.000791  3.942023  0.001  -0.099005  0.00031  -0.388479  0.000228  3.953945  0.0  -0.091687  0.001232  -0.234739  -0.384533  0.000915  3.935585  0.001
C  C61  1  0.52867692  0.16184360  0.28523586  1  -0.299217  0.00058  3.694798  0.001  -0.385888  0.000795  3.942203  0.001  -0.097395  0.000582  -0.386046  0.000371  3.949897  0.0  -0.091376  0.001233  -0.234781  -0.384705  0.000916  3.935842  0.001
O  O62  1  0.18065672  0.39638409  0.58078638  1  -0.732611  0.012602  2.035379  0.015  -0.671447  0.019886  2.306557  0.022  -1.404279  0.013078  -0.713779  0.005101  2.304349  0.007  -1.343157  0.038021  -0.369142  -0.651103  0.022975  2.31662  0.024
O  O63  1  0.60359143  0.81933241  0.91922207  1  -0.73185  0.013304  2.034437  0.016  -0.671106  0.020251  2.305898  0.022  -1.38829  0.043259  -0.689067  0.025718  2.273396  0.029  -1.343381  0.037997  -0.369209  -0.651122  0.022956  2.316491  0.024
O  O64  1  0.81936235  0.60360603  0.41923637  1  -0.731707  0.013399  2.034629  0.016  -0.671053  0.020267  2.30624  0.022  -1.388609  0.043311  -0.689023  0.02574  2.273714  0.029  -1.343306  0.038017  -0.369163  -0.651084  0.022969  2.316812  0.024
O  O65  1  0.39638502  0.18064064  0.08077814  1  -0.732522  0.012686  2.035467  0.015  -0.671448  0.01988  2.306758  0.022  -1.404353  0.013051  -0.713792  0.00509  2.304541  0.007  -1.34285  0.038003  -0.369181  -0.651107  0.022966  2.316804  0.024
O  O66  1  0.91389040  0.30671886  0.58698275  1  -0.770379  0.018083  2.124412  0.022  -0.702507  0.021055  2.39754  0.022  -1.398521  0.039371  -0.724628  0.023378  2.369127  0.026  -1.349009  0.037404  -0.368324  -0.681686  0.023183  2.40721  0.023
O  O67  1  0.69326334  0.08609530  0.91302839  1  -0.77094  0.017638  2.124886  0.022  -0.702844  0.020736  2.397821  0.022  -1.412984  0.016486  -0.744472  0.007894  2.392825  0.009  -1.349038  0.037371  -0.36841  -0.681727  0.023168  2.407078  0.023
O  O68  1  0.08612038  0.69327232  0.41303784  1  -0.770824  0.017586  2.125094  0.022  -0.702813  0.020733  2.398015  0.022  -1.41335  0.016457  -0.74445  0.007874  2.393029  0.009  -1.348939  0.037363  -0.368361  -0.681692  0.023169  2.407287  0.023
O  O69  1  0.30670901  0.91387133  0.08697671  1  -0.770253  0.018024  2.124245  0.022  -0.70243  0.021052  2.397334  0.022  -1.398269  0.03937  -0.72453  0.023375  2.368935  0.026  -1.349377  0.037406  -0.368365  -0.681591  0.023185  2.407024  0.023
O  O70  1  0.09100850  0.21925256  0.69338344  1  -0.871925  -0.003508  2.017869  -0.003  -0.807504  -0.002048  2.278461  -0.002  -1.494258  -0.000816  -0.832426  -0.001241  2.259483  -0.001  -1.447706  -0.001048  -0.437255  -0.790076  -0.001756  2.290823  -0.001
O  O71  1  0.78072424  0.90897949  0.80661916  1  -0.872008  -0.003518  2.017819  -0.003  -0.807467  -0.002045  2.278224  -0.002  -1.495263  -0.000584  -0.834391  -0.001134  2.260486  -0.001  -1.44762  -0.001046  -0.437159  -0.790001  -0.001755  2.290558  -0.001
O  O72  1  0.90899420  0.78074822  0.30664304  1  -0.871901  -0.003521  2.0177  -0.003  -0.807476  -0.002048  2.278291  -0.002  -1.494736  -0.000581  -0.834388  -0.00113  2.260528  -0.001  -1.447831  -0.001047  -0.437235  -0.79001  -0.001756  2.290625  -0.001
O  O73  1  0.21925922  0.09100528  0.19338160  1  -0.871852  -0.003513  2.017674  -0.003  -0.807452  -0.00205  2.27828  -0.002  -1.494144  -0.000816  -0.832392  -0.00124  2.259337  -0.001  -1.447585  -0.001048  -0.437188  -0.790021  -0.001757  2.290637  -0.001
O  O74  1  0.12211719  0.68867282  0.59782808  1  -0.764743  0.013363  2.094605  0.016  -0.700092  0.018152  2.368261  0.019  -1.411422  0.014984  -0.740945  0.006946  2.364918  0.008  -1.346539  0.033746  -0.363722  -0.678594  0.020608  2.3762  0.02
O  O75  1  0.31131099  0.87786910  0.90217858  1  -0.76421  0.013779  2.093732  0.016  -0.699899  0.018415  2.367673  0.019  -1.396682  0.035524  -0.723834  0.020567  2.342713  0.023  -1.346697  0.033749  -0.363824  -0.678637  0.020611  2.375994  0.02
O  O76  1  0.87790063  0.31133757  0.40219458  1  -0.764269  0.013846  2.093743  0.017  -0.700001  0.01843  2.367817  0.019  -1.397052  0.035548  -0.723962  0.020572  2.342856  0.023  -1.346865  0.033755  -0.363929  -0.678757  0.020619  2.376115  0.02
O  O77  1  0.68866437  0.12209647  0.09780903  1  -0.76474  0.013414  2.094417  0.016  -0.700202  0.018161  2.368189  0.019  -1.41131  0.014998  -0.74107  0.006962  2.364873  0.008  -1.346768  0.033744  -0.363853  -0.678711  0.020613  2.376111  0.02
O  O78  1  0.85514163  0.59618985  0.60606361  1  -0.723107  0.018441  2.012825  0.023  -0.668077  0.022821  2.284679  0.025  -1.376675  0.046571  -0.686593  0.027732  2.25399  0.032  -1.32905  0.041627  -0.367829  -0.647726  0.02538  2.294635  0.027
O  O79  1  0.40379831  0.14485392  0.89394799  1  -0.723779  0.01779  2.013784  0.022  -0.668415  0.022418  2.285417  0.025  -1.392497  0.016465  -0.710404  0.007365  2.282613  0.009  -1.329448  0.04161  -0.367824  -0.6477  0.025367  2.294881  0.027
O  O80  1  0.14488517  0.40380987  0.39395965  1  -0.724041  0.017721  2.013568  0.022  -0.668616  0.022424  2.285158  0.025  -1.39264  0.016488  -0.710599  0.007371  2.282373  0.009  -1.329209  0.041623  -0.367891  -0.647894  0.025378  2.294634  0.027
O  O81  1  0.59617747  0.85510738  0.10604600  1  -0.723311  0.018361  2.012787  0.023  -0.668245  0.022818  2.284551  0.025  -1.376863  0.046558  -0.686745  0.027728  2.253876  0.032  -1.329335  0.041632  -0.367946  -0.647877  0.02538  2.294525  0.027
O  O82  1  0.98612810  0.76952313  0.72557028  1  -0.879446  -0.003607  2.024116  -0.003  -0.823184  -0.002111  2.293753  -0.002  -1.487174  -0.001144  -0.848885  -0.001646  2.274766  -0.001  -1.441129  -0.001182  -0.456184  -0.805884  -0.001901  2.306237  -0.002
O  O83  1  0.23047456  0.01387213  0.77443655  1  -0.879395  -0.003602  2.02424  -0.003  -0.823115  -0.002113  2.293845  -0.002  -1.487299  -0.001198  -0.847192  -0.001712  2.273323  -0.001  -1.441122  -0.001184  -0.456146  -0.805849  -0.001903  2.306363  -0.002
O  O84  1  0.01389750  0.23047551  0.27445421  1  -0.879663  -0.003601  2.023832  -0.003  -0.823253  -0.002114  2.293402  -0.002  -1.487111  -0.0012  -0.847306  -0.001715  2.272838  -0.001  -1.440894  -0.001187  -0.456341  -0.805998  -0.001905  2.305944  -0.002
O  O85  1  0.76951862  0.98609985  0.22555177  1  -0.879604  -0.003609  2.02392  -0.003  -0.823228  -0.002111  2.293461  -0.002  -1.487358  -0.001143  -0.848907  -0.001645  2.27443  -0.001  -1.440996  -0.001184  -0.45623  -0.805932  -0.001902  2.305954  -0.002
O  O86  1  0.90957545  0.44553827  0.76646905  1  -0.491958  0.001375  2.045967  0.002  -0.437989  0.00187  2.233527  0.002  -1.143061  0.001256  -0.4534  0.000747  2.22541  0.001  -1.084929  0.00366  -0.359434  -0.427971  0.002249  2.240826  0.003
O  O87  1  0.55445279  0.09043234  0.73353781  1  -0.491706  0.001387  2.046144  0.002  -0.437832  0.001871  2.233677  0.002  -1.143513  0.001144  -0.451473  0.000709  2.222886  0.001  -1.08455  0.003659  -0.359414  -0.427851  0.002248  2.24102  0.003
O  O88  1  0.09044554  0.55447211  0.23355566  1  -0.491546  0.001389  2.046517  0.002  -0.437931  0.001873  2.233822  0.002  -1.142918  0.001145  -0.451576  0.000709  2.223025  0.001  -1.08404  0.003664  -0.359322  -0.427941  0.002251  2.241182  0.003
O  O89  1  0.44553071  0.90955990  0.26645797  1  -0.491845  0.001377  2.046413  0.002  -0.437951  0.00187  2.233896  0.002  -1.142731  0.001254  -0.453364  0.000745  2.225782  0.001  -1.084617  0.003662  -0.359384  -0.427926  0.002251  2.241206  0.003
O  O90  1  0.38089576  0.59635842  0.50190799  1  -0.74568  -0.001817  1.808393  -0.004  -0.703725  0.001477  1.976017  -0.003  -1.233812  0.005008  -0.718563  0.000384  1.946765  -0.004  -1.199193  0.005836  -0.54967  -0.692715  0.002133  1.990734  -0.002
O  O91  1  0.40367626  0.61907000  0.99804888  1  -0.745608  -0.001774  1.809107  -0.004  -0.703611  0.001495  1.976607  -0.002  -1.231604  0.002822  -0.727635  0.000748  1.958107  -0.002  -1.197991  0.005837  -0.549536  -0.69238  0.002134  1.991154  -0.002
O  O92  1  0.61904538  0.40374052  0.49807018  1  -0.74576  -0.001775  1.808818  -0.004  -0.703814  0.001487  1.976156  -0.002  -1.232503  0.002812  -0.727843  0.000741  1.957643  -0.002  -1.198551  0.00582  -0.549483  -0.692593  0.002122  1.990694  -0.002
O  O93  1  0.59631637  0.38088384  0.00188821  1  -0.745835  -0.001809  1.808398  -0.004  -0.703986  0.001481  1.975832  -0.003  -1.234183  0.005011  -0.718825  0.00039  1.946561  -0.004  -1.199736  0.005834  -0.549693  -0.692972  0.002135  1.990548  -0.002
O  O94  1  0.80364486  0.05926541  0.65498286  1  -0.922296  -0.00037  1.842138  0.0  -0.887011  -3.7e-05  2.014518  0.0  -1.333333  -0.000183  -0.90429  -0.000305  1.982184  0.0  -1.283801  0.000289  -0.64789  -0.87415  9.8e-05  2.035905  0.0
O  O95  1  0.94070894  0.19633293  0.84501483  1  -0.92237  -0.000357  1.842153  0.0  -0.887021  -3.2e-05  2.014602  0.0  -1.335102  0.000185  -0.904881  3.2e-05  1.981008  0.0  -1.284067  0.000289  -0.647999  -0.874143  9.7e-05  2.036016  0.0
O  O96  1  0.19634701  0.94074071  0.34503047  1  -0.922335  -0.000356  1.842148  0.0  -0.887003  -3.2e-05  2.014462  0.0  -1.334966  0.000185  -0.904862  3.2e-05  1.980875  0.0  -1.284057  0.000294  -0.647827  -0.874123  0.000101  2.035876  0.0
O  O97  1  0.05925912  0.80364758  0.15500940  1  -0.922227  -0.00037  1.842612  0.0  -0.887048  -3.8e-05  2.014723  0.0  -1.332985  -0.000182  -0.904335  -0.000304  1.982389  0.0  -1.276669  0.000293  -0.648089  -0.874187  0.000101  2.036112  0.0
O  O98  1  0.03366100  0.93608146  0.89960371  1  -0.879562  0.000165  1.846005  0.0  -0.8434  8.5e-05  2.022456  0.0  -1.288266  0.001124  -0.858048  0.000607  1.990548  0.001  -1.244514  0.000474  -0.615287  -0.831645  0.000195  2.0438  0.0
O  O99  1  0.06393142  0.96631697  0.60040031  1  -0.87977  0.000149  1.846012  0.0  -0.843525  7.1e-05  2.022462  0.0  -1.294502  -5.1e-05  -0.86182  -0.000122  1.990138  0.0  -1.244318  0.000474  -0.615208  -0.831705  0.000194  2.043872  0.0
O  O100  1  0.96632615  0.06394279  0.10041716  1  -0.879801  0.000151  1.846008  0.0  -0.843604  7.1e-05  2.022398  0.0  -1.29233  -5.1e-05  -0.861897  -0.000122  1.990077  0.0  -1.244198  0.000473  -0.615219  -0.831782  0.000194  2.043806  0.0
O  O101  1  0.93603497  0.03368808  0.39959794  1  -0.879676  0.000167  1.845977  0.0  -0.843533  8.5e-05  2.02256  0.0  -1.288249  0.001126  -0.858185  0.000608  1.990642  0.001  -1.243744  0.000473  -0.615277  -0.831779  0.000194  2.043879  0.0
