# generated using pymatgen
data_ZnH17C19I2NO6
_symmetry_space_group_name_H-M   'P 1'
_cell_length_a   9.58790804
_cell_length_b   10.94908185
_cell_length_c   16.10265969
_cell_angle_alpha   93.04603356
_cell_angle_beta   86.31825981
_cell_angle_gamma   87.74289645
_symmetry_Int_Tables_number   1
_chemical_formula_structural   ZnH17C19I2NO6
_chemical_formula_sum   'Zn2 H34 C38 I4 N2 O12'
_cell_volume   1683.01138227
_cell_formula_units_Z   2
loop_
 _symmetry_equiv_pos_site_id
 _symmetry_equiv_pos_as_xyz
  1  'x, y, z'
loop_
 _atom_site_type_symbol
 _atom_site_label
 _atom_site_symmetry_multiplicity
 _atom_site_fract_x
 _atom_site_fract_y
 _atom_site_fract_z
 _atom_site_occupancy
 _atom_site_pbe_bader_charge
 _atom_site_pbe_bader_spin_density
 _atom_site_pbe_cm5_charge
 _atom_site_pbe_ddec_charge
 _atom_site_pbe_ddec_spin_density
 _atom_site_pbe_ddec_sum_bond_order
 _atom_site_pbe_magmom
Zn  Zn0  1  0.35687917  0.50737681  0.50225216  1  1.273566  0  0.674946  0.810499  0  2.429619  0
Zn  Zn1  1  0.64384708  0.49727640  0.49577885  1  1.290452  0  0.676908  0.816017  0  2.448436  0
H  H2  1  0.69378387  0.37384566  0.92185174  1  0.097387  0  0.115059  0.133786  0  0.964507  0
H  H3  1  0.29885039  0.60378872  0.07376718  1  0.103045  0  0.11136  0.128601  0  0.996769  0
H  H4  1  0.84667756  0.53863588  0.62509178  1  0.167826  0  0.135473  0.122603  0  0.984656  0
H  H5  1  0.15415270  0.46636084  0.37215039  1  0.135522  0  0.134039  0.115577  0  0.98756  0
H  H6  1  0.11472387  0.54566109  0.62753323  1  0.1396  0  0.142796  0.12778  0  0.95728  0
H  H7  1  0.88626913  0.45927208  0.36973000  1  0.154648  0  0.139181  0.12497  0  0.965889  0
H  H8  1  0.10723151  0.45491688  0.04448658  1  0.04711  0  0.094985  0.055315  0  0.999223  0
H  H9  1  0.20873775  0.32081637  0.06529943  1  0.062932  0  0.089076  0.053464  0  1.01172  0
H  H10  1  0.99624928  0.33152265  0.93119877  1  0.047065  0  0.090063  0.07957  0  0.988  0
H  H11  1  0.09345779  0.20010709  0.95670087  1  0.012755  0  0.095287  0.092888  0  0.964999  0
H  H12  1  0.97575658  0.21654469  0.10303563  1  -0.001102  0  0.085992  0.116526  0  1.00422  0
H  H13  1  0.85029111  0.20450342  0.02726072  1  0.037809  0  0.077616  0.105846  0  1.038573  0
H  H14  1  0.87752627  0.34874198  0.07769221  1  0.041292  0  0.083168  0.114723  0  1.011868  0
H  H15  1  0.78549771  0.66145289  0.93407901  1  0.065602  0  0.090466  0.055895  0  1.010652  0
H  H16  1  0.88757840  0.52690035  0.95336214  1  0.044025  0  0.09598  0.056409  0  0.997209  0
H  H17  1  0.89607487  0.77842415  0.04649521  1  0.035257  0  0.093581  0.089744  0  0.96905  0
H  H18  1  0.99324579  0.64617434  0.07056198  1  0.009614  0  0.087395  0.073462  0  1.009264  0
H  H19  1  0.11722368  0.63610485  0.92551742  1  0.046987  0  0.083963  0.115995  0  1.010142  0
H  H20  1  0.14193087  0.77798307  0.97986906  1  0.042111  0  0.07762  0.104537  0  1.040649  0
H  H21  1  0.01973894  0.76966655  0.90201753  1  0.040243  0  0.087683  0.117697  0  0.992817  0
H  H22  1  0.91585132  0.19105449  0.44173613  1  0.041935  0  0.089647  0.059991  0  1.013052  0
H  H23  1  0.75042906  0.22189727  0.40074534  1  0.065724  0  0.095208  0.068091  0  1.019537  0
H  H24  1  0.93067858  0.98267716  0.37930763  1  0.055304  0  0.081727  0.075531  0  1.027087  0
H  H25  1  0.75338709  0.99083590  0.35526569  1  0.035526  0  0.090262  0.092012  0  0.983208  0
H  H26  1  0.80159996  0.14630600  0.25050854  1  0.048032  0  0.085475  0.115334  0  1.003698  0
H  H27  1  0.91239559  0.01330115  0.22713235  1  0.025659  0  0.086991  0.118007  0  0.996376  0
H  H28  1  0.98032329  0.14655852  0.27352574  1  0.013602  0  0.07004  0.095825  0  1.042696  0
H  H29  1  0.38582260  0.74541626  0.33760759  1  0.045719  0  0.094258  0.069792  0  0.9942  0
H  H30  1  0.33977873  0.88967932  0.29628703  1  0.03699  0  0.084355  0.04043  0  1.01589  0
H  H31  1  0.13136065  0.70570229  0.36032201  1  0.029338  0  0.086094  0.078609  0  0.999281  0
H  H32  1  0.08749081  0.84582451  0.31705453  1  0.024138  0  0.08987  0.084272  0  0.999328  0
H  H33  1  0.21267793  0.77044236  0.17945221  1  0.023974  0  0.082647  0.108515  0  1.006096  0
H  H34  1  0.07996910  0.67023107  0.20988915  1  0.02983  0  0.083843  0.110692  0  1.012201  0
H  H35  1  0.25859400  0.62980889  0.22347697  1  0.028231  0  0.08093  0.109788  0  1.038008  0
C  C36  1  0.50361944  0.26640879  0.48640897  1  1.604  0  0.212279  0.606755  0  4.153609  0
C  C37  1  0.49486142  0.73570799  0.49449006  1  1.586025  0  0.21439  0.612946  0  4.161444  0
C  C38  1  0.61857059  0.93565079  0.51027686  1  -0.201788  0  -0.048909  -0.050952  0  3.867366  0
C  C39  1  0.39632964  0.06329201  0.44490750  1  -0.24002  0  -0.047449  -0.040178  0  3.854562  0
C  C40  1  0.50113875  0.87212107  0.48824117  1  0.071198  0  -0.016142  -0.116204  0  3.919291  0
C  C41  1  0.51009608  0.12935907  0.47212555  1  0.039666  0  -0.027407  -0.153786  0  3.914546  0
C  C42  1  0.91712216  0.52286474  0.56929851  1  0.495943  0  0.076095  0.058169  0  3.866352  0
C  C43  1  0.08387372  0.48233196  0.42797383  1  0.520364  0  0.074408  0.052837  0  3.889352  0
C  C44  1  0.06191386  0.52716194  0.57046137  1  0.551308  0  0.082092  0.071158  0  3.841732  0
C  C45  1  0.93911350  0.47821548  0.42673415  1  0.52365  0  0.078499  0.06135  0  3.857948  0
C  C46  1  0.51736949  0.48533466  0.33505209  1  1.700744  0  0.219568  0.665193  0  4.247261  0
C  C47  1  0.48671533  0.51076884  0.66115795  1  1.638698  0  0.22295  0.673982  0  4.228101  0
C  C48  1  0.37409299  0.44012183  0.97567391  1  0.640199  0  0.092447  0.204727  0  3.766603  0
C  C49  1  0.61882085  0.53761166  0.02041449  1  0.630342  0  0.092496  0.204426  0  3.771529  0
C  C50  1  0.49739618  0.37013321  0.01799672  1  -0.167531  0  -0.038836  -0.018232  0  3.540399  0
C  C51  1  0.49567530  0.60771939  0.97835506  1  -0.166514  0  -0.039821  -0.018737  0  3.54335  0
C  C52  1  0.51747360  0.47940166  0.24534705  1  0.225348  0  -0.046688  -0.192874  0  3.982652  0
C  C53  1  0.48426620  0.50803628  0.75072419  1  0.093356  0  -0.04426  -0.181257  0  3.967823  0
C  C54  1  0.38587523  0.55259674  0.03929850  1  -0.034739  0  -0.082243  -0.170016  0  3.646507  0
C  C55  1  0.60710404  0.42511149  0.95673631  1  -0.047954  0  -0.078865  -0.164272  0  3.641895  0
C  C56  1  0.50634803  0.48391035  0.08303365  1  0.105114  0  0.002156  0.071738  0  3.819326  0
C  C57  1  0.48648758  0.49411176  0.91298486  1  0.11679  0  0.003602  0.071161  0  3.815214  0
C  C58  1  0.51413522  0.47991628  0.16994291  1  -0.549287  0  -0.03678  -0.030371  0  4.09692  0
C  C59  1  0.48243665  0.50097525  0.82597502  1  -0.337055  0  -0.038447  -0.032128  0  4.094583  0
C  C60  1  0.62906830  0.06040919  0.49524214  1  0.562989  0  0.08814  0.218384  0  4.026022  0
C  C61  1  0.39242198  0.93608680  0.45093103  1  0.590527  0  0.074569  0.18704  0  4.051378  0
C  C62  1  0.15411250  0.36716262  0.01674579  1  0.349109  0  -0.069079  0.037769  0  3.884618  0
C  C63  1  0.04303038  0.28683345  0.98313011  1  0.01309  0  -0.167058  -0.12929  0  3.984041  0
C  C64  1  0.93060377  0.26302468  0.05142988  1  -0.068899  0  -0.246876  -0.354144  0  3.957641  0
C  C65  1  0.83917396  0.61340320  0.98222059  1  0.347764  0  -0.070213  0.034432  0  3.887577  0
C  C66  1  0.94816535  0.69298417  0.01895785  1  0.01492  0  -0.167754  -0.129419  0  3.986363  0
C  C67  1  0.06295025  0.72052792  0.95306824  1  -0.103564  0  -0.246062  -0.353045  0  3.9635  0
C  C68  1  0.81846786  0.15006147  0.42411029  1  0.37401  0  -0.072829  0.037428  0  3.842879  0
C  C69  1  0.84782893  0.04441652  0.35901546  1  -0.037774  0  -0.178957  -0.153902  0  3.987999  0
C  C70  1  0.88764182  0.09026440  0.27301895  1  -0.085941  0  -0.245758  -0.347961  0  3.976906  0
C  C71  1  0.30428081  0.81943055  0.33872152  1  0.399259  0  -0.073412  0.035467  0  3.875478  0
C  C72  1  0.16666148  0.76991773  0.31387959  1  -0.006051  0  -0.16784  -0.116217  0  3.964946  0
C  C73  1  0.18031697  0.70637022  0.22678322  1  -0.074896  0  -0.246836  -0.355148  0  3.966421  0
I  I74  1  0.50036961  0.18443802  0.04884681  1  0.076709  0  0.052579  -0.06027  0  1.363525  0
I  I75  1  0.49240516  0.79403355  0.94934371  1  0.079278  0  0.055331  -0.054445  0  1.35996  0
I  I76  1  0.78921811  0.85639023  0.56793282  1  0.145549  0  0.073209  -0.007735  0  1.497122  0
I  I77  1  0.22975820  0.14060304  0.38202306  1  0.14427  0  0.102295  -0.003757  0  1.690036  0
N  N78  1  0.14333574  0.50710974  0.49981417  1  -1.241968  0  -0.29343  -0.142262  0  3.506861  0
N  N79  1  0.85762538  0.49826648  0.49739415  1  -1.217001  0  -0.294285  -0.14511  0  3.511668  0
O  O80  1  0.38638278  0.32201721  0.47964158  1  -1.157903  0  -0.316858  -0.54237  0  2.433278  0
O  O81  1  0.60633271  0.67396288  0.46948955  1  -1.161854  0  -0.318916  -0.552743  0  2.406548  0
O  O82  1  0.61291254  0.31827163  0.50849058  1  -1.159278  0  -0.313443  -0.531238  0  2.397826  0
O  O83  1  0.38154341  0.69214262  0.52197503  1  -1.138146  0  -0.308519  -0.518403  0  2.29665  0
O  O84  1  0.40123968  0.51974939  0.37430615  1  -1.152009  0  -0.305142  -0.543455  0  2.290447  0
O  O85  1  0.60323242  0.53254786  0.62327101  1  -1.148792  0  -0.310679  -0.553399  0  2.292342  0
O  O86  1  0.63170876  0.45741145  0.36676352  1  -1.145757  0  -0.309536  -0.540488  0  2.256565  0
O  O87  1  0.37222183  0.49012644  0.62797974  1  -1.140957  0  -0.310026  -0.533838  0  2.256347  0
O  O88  1  0.25433169  0.39247000  0.94902717  1  -1.071376  0  -0.199498  -0.231959  0  2.505489  0
O  O89  1  0.73771908  0.58497516  0.04845265  1  -1.066096  0  -0.199688  -0.232947  0  2.51773  0
O  O90  1  0.75623888  0.10963334  0.50243743  1  -1.050687  0  -0.196656  -0.210637  0  2.5477  0
O  O91  1  0.28150492  0.87480301  0.42253132  1  -1.064131  0  -0.205895  -0.230565  0  2.574684  0
