# generated using pymatgen
data_CdH15C11N7O3
_symmetry_space_group_name_H-M   'P 1'
_cell_length_a   12.04757383
_cell_length_b   12.84160085
_cell_length_c   12.95000000
_cell_angle_alpha   116.00383590
_cell_angle_beta   90.00000000
_cell_angle_gamma   90.00000000
_symmetry_Int_Tables_number   1
_chemical_formula_structural   CdH15C11N7O3
_chemical_formula_sum   'Cd4 H60 C44 N28 O12'
_cell_volume   1800.67168751
_cell_formula_units_Z   4
loop_
 _symmetry_equiv_pos_site_id
 _symmetry_equiv_pos_as_xyz
  1  'x, y, z'
loop_
 _atom_site_type_symbol
 _atom_site_label
 _atom_site_symmetry_multiplicity
 _atom_site_fract_x
 _atom_site_fract_y
 _atom_site_fract_z
 _atom_site_occupancy
 _atom_site_hle17_bader_spin_density
 _atom_site_hle17_ddec_charge
 _atom_site_hle17_ddec_spin_density
 _atom_site_hle17_ddec_sum_bond_order
 _atom_site_hle17_magmom
 _atom_site_hse06_10hf_bader_spin_density
 _atom_site_hse06_10hf_ddec_charge
 _atom_site_hse06_10hf_ddec_spin_density
 _atom_site_hse06_10hf_ddec_sum_bond_order
 _atom_site_hse06_10hf_magmom
 _atom_site_hse06_bader_spin_density
 _atom_site_hse06_ddec_charge
 _atom_site_hse06_ddec_spin_density
 _atom_site_hse06_ddec_sum_bond_order
 _atom_site_hse06_magmom
 _atom_site_pbe_bader_charge
 _atom_site_pbe_bader_spin_density
 _atom_site_pbe_cm5_charge
 _atom_site_pbe_ddec_charge
 _atom_site_pbe_ddec_spin_density
 _atom_site_pbe_ddec_sum_bond_order
 _atom_site_pbe_magmom
Cd  Cd0  1  0.76001692  0.81830149  0.40248172  1  0  0.994606  0  1.860352  0  0  0.781344  0  2.320046  0  0  0.833763  0  2.275719  0  1.21015  0  0.784719  0.74442  0  2.350233  0
Cd  Cd1  1  0.26001750  0.68169884  0.09751842  1  0  0.994576  0  1.860366  0  0  0.781327  0  2.320054  0  0  0.833743  0  2.275732  0  1.210152  0  0.78471  0.744402  0  2.350244  0
Cd  Cd2  1  0.23998110  0.18169873  0.59751915  1  0  0.994568  0  1.860386  0  0  0.7813  0  2.320085  0  0  0.833717  0  2.27576  0  1.21017  0  0.784703  0.744378  0  2.350272  0
Cd  Cd3  1  0.73998218  0.31830138  0.90248167  1  0  0.994573  0  1.860379  0  0  0.781318  0  2.32007  0  0  0.833735  0  2.275747  0  1.210145  0  0.784712  0.744394  0  2.350258  0
H  H4  1  0.95272875  0.13979891  0.84963940  1  0  0.065174  0  0.920756  0  0  0.081473  0  0.9813  0  0  0.082024  0  0.980833  0  0.059552  0  0.102409  0.080965  0  0.981714  0
H  H5  1  0.45272684  0.36019946  0.65035989  1  0  0.065187  0  0.920746  0  0  0.081481  0  0.981285  0  0  0.082033  0  0.980819  0  0.059565  0  0.10241  0.080974  0  0.981701  0
H  H6  1  0.04727342  0.86020044  0.15036032  1  0  0.065188  0  0.920765  0  0  0.081481  0  0.981307  0  0  0.082033  0  0.980841  0  0.059546  0  0.102396  0.080974  0  0.981724  0
H  H7  1  0.54727201  0.63979989  0.34963983  1  0  0.065188  0  0.92075  0  0  0.081484  0  0.981294  0  0  0.082036  0  0.980828  0  0.05956  0  0.102407  0.080977  0  0.98171  0
H  H8  1  0.03696180  0.24715946  0.83932875  1  0  0.056438  0  0.918547  0  0  0.074708  0  0.981816  0  0  0.073743  0  0.983524  0  0.038393  0  0.097996  0.075264  0  0.980732  0
H  H9  1  0.53696039  0.25283979  0.66067170  1  0  0.056436  0  0.918541  0  0  0.074687  0  0.981828  0  0  0.073723  0  0.983535  0  0.038477  0  0.097995  0.075245  0  0.980745  0
H  H10  1  0.96303954  0.75284076  0.16067058  1  0  0.056469  0  0.918581  0  0  0.074737  0  0.98184  0  0  0.073774  0  0.983548  0  0.03841  0  0.098016  0.075295  0  0.980757  0
H  H11  1  0.46303846  0.74715956  0.33932957  1  0  0.056485  0  0.918606  0  0  0.074748  0  0.981877  0  0  0.073785  0  0.983584  0  0.038401  0  0.098021  0.075304  0  0.980794  0
H  H12  1  0.16657960  0.54104909  0.39650988  1  0  0.070366  0  0.940099  0  0  0.083078  0  1.008235  0  0  0.084666  0  1.006055  0  0.102322  0  0.10424  0.081732  0  1.010007  0
H  H13  1  0.66657902  0.95895124  0.10349103  1  0  0.070339  0  0.940142  0  0  0.083053  0  1.008281  0  0  0.084639  0  1.006098  0  0.102171  0  0.104213  0.081721  0  1.010042  0
H  H14  1  0.83342008  0.45895113  0.60349021  1  0  0.070366  0  0.940116  0  0  0.083069  0  1.008246  0  0  0.084653  0  1.006064  0  0.10231  0  0.104233  0.081724  0  1.010017  0
H  H15  1  0.33342066  0.04104985  0.89650944  1  0  0.070364  0  0.940117  0  0  0.083078  0  1.008254  0  0  0.084665  0  1.006072  0  0.102322  0  0.104227  0.081746  0  1.010015  0
H  H16  1  0.06944967  0.54923688  0.50308969  1  0  0.049547  0  0.943427  0  0  0.064206  0  1.008279  0  0  0.06433  0  1.008514  0  0.035938  0  0.095397  0.064038  0  1.008193  0
H  H17  1  0.56944909  0.95076431  0.99691083  1  0  0.049579  0  0.943422  0  0  0.064219  0  1.008295  0  0  0.064342  0  1.00853  0  0.035916  0  0.095403  0.064052  0  1.008211  0
H  H18  1  0.93055001  0.45076421  0.49691078  1  0  0.049608  0  0.943396  0  0  0.064257  0  1.008247  0  0  0.064379  0  1.008478  0  0.035916  0  0.095407  0.064089  0  1.008161  0
H  H19  1  0.43055059  0.04923677  0.00308964  1  0  0.049583  0  0.943409  0  0  0.064223  0  1.008281  0  0  0.064346  0  1.008515  0  0.035936  0  0.095403  0.064055  0  1.008197  0
H  H20  1  0.94035614  0.74464171  0.58774224  1  0  0.052946  0  0.900145  0  0  0.075607  0  0.951994  0  0  0.075314  0  0.952408  0  0.031691  0  0.10079  0.075716  0  0.95182  0
H  H21  1  0.44035671  0.75535775  0.91225676  1  0  0.052943  0  0.900124  0  0  0.075611  0  0.951972  0  0  0.075317  0  0.952388  0  0.031694  0  0.100787  0.07572  0  0.9518  0
H  H22  1  0.05964354  0.25535764  0.41225748  1  0  0.052961  0  0.900136  0  0  0.075604  0  0.95199  0  0  0.07531  0  0.952405  0  0.031684  0  0.100785  0.075713  0  0.951817  0
H  H23  1  0.55964380  0.24464247  0.08774334  1  0  0.05295  0  0.90013  0  0  0.0756  0  0.951987  0  0  0.075306  0  0.952402  0  0.031687  0  0.100783  0.075709  0  0.951814  0
H  H24  1  0.98635378  0.86125575  0.56115272  1  0  0.069606  0  0.933523  0  0  0.08458  0  0.999118  0  0  0.085444  0  0.997918  0  0.101268  0  0.102245  0.083801  0  1.000122  0
H  H25  1  0.48635519  0.63874284  0.93884667  1  0  0.069607  0  0.933495  0  0  0.084586  0  0.99909  0  0  0.08545  0  0.997887  0  0.101254  0  0.102253  0.083813  0  1.000088  0
H  H26  1  0.01364590  0.13874533  0.43884698  1  0  0.069556  0  0.933491  0  0  0.084532  0  0.999081  0  0  0.085395  0  0.997881  0  0.101292  0  0.102228  0.083761  0  1.000077  0
H  H27  1  0.51364533  0.36125738  0.06115342  1  0  0.069635  0  0.933475  0  0  0.084604  0  0.999073  0  0  0.085469  0  0.997871  0  0.10125  0  0.102263  0.08383  0  1.000072  0
H  H28  1  0.13900973  0.74125916  0.43747704  1  0  0.076496  0  0.940899  0  0  0.091202  0  1.00835  0  0  0.091731  0  1.009189  0  0.045377  0  0.093221  0.090768  0  1.00782  0
H  H29  1  0.63901082  0.75874117  0.06252310  1  0  0.076497  0  0.940939  0  0  0.091226  0  1.008382  0  0  0.091756  0  1.00922  0  0.045367  0  0.093253  0.090792  0  1.007851  0
H  H30  1  0.86098912  0.25874106  0.56252306  1  0  0.076494  0  0.94095  0  0  0.091206  0  1.008395  0  0  0.091736  0  1.009234  0  0.045336  0  0.093242  0.090772  0  1.007865  0
H  H31  1  0.36098969  0.24125905  0.93747699  1  0  0.076515  0  0.940945  0  0  0.091226  0  1.008394  0  0  0.091756  0  1.009235  0  0.045359  0  0.093243  0.090792  0  1.007863  0
H  H32  1  0.14580363  0.74258567  0.57513947  1  0  0.084736  0  0.942224  0  0  0.104045  0  0.997014  0  0  0.10481  0  0.997427  0  0.079106  0  0.098979  0.103433  0  0.996845  0
H  H33  1  0.64580472  0.75741553  0.92486105  1  0  0.084738  0  0.942209  0  0  0.104039  0  0.997021  0  0  0.104803  0  0.997437  0  0.079103  0  0.098993  0.103427  0  0.996852  0
H  H34  1  0.85419605  0.25741542  0.42486100  1  0  0.084727  0  0.942227  0  0  0.104033  0  0.997017  0  0  0.104799  0  0.99743  0  0.079107  0  0.098966  0.103422  0  0.996848  0
H  H35  1  0.35419580  0.24258469  0.07513904  1  0  0.084742  0  0.942227  0  0  0.104056  0  0.997008  0  0  0.104822  0  0.99742  0  0.07911  0  0.09897  0.103444  0  0.996839  0
H  H36  1  0.19033957  0.34879374  0.99697487  1  0  0.054914  0  0.94525  0  0  0.07037  0  1.012987  0  0  0.069598  0  1.015043  0  0.034002  0  0.099212  0.0708  0  1.01165  0
H  H37  1  0.69033899  0.15120637  0.50302595  1  0  0.054909  0  0.94527  0  0  0.070381  0  1.013001  0  0  0.069606  0  1.015055  0  0.033788  0  0.099223  0.07081  0  1.011664  0
H  H38  1  0.80966011  0.65120648  0.00302600  1  0  0.054897  0  0.94525  0  0  0.07037  0  1.012964  0  0  0.069595  0  1.015017  0  0.033992  0  0.09921  0.0708  0  1.011629  0
H  H39  1  0.30965986  0.84879385  0.49697492  1  0  0.054913  0  0.945238  0  0  0.070371  0  1.012971  0  0  0.069596  0  1.015025  0  0.034004  0  0.099218  0.070801  0  1.011634  0
H  H40  1  0.18974858  0.32071959  0.11908823  1  0  0.060237  0  0.941962  0  0  0.076333  0  1.004576  0  0  0.076761  0  1.003972  0  0.052405  0  0.103164  0.075893  0  1.005168  0
H  H41  1  0.68974717  0.17928052  0.38091104  1  0  0.060204  0  0.941961  0  0  0.07632  0  1.004563  0  0  0.076744  0  1.003956  0  0.052409  0  0.103153  0.075873  0  1.005161  0
H  H42  1  0.81025276  0.67928063  0.88091186  1  0  0.06021  0  0.941959  0  0  0.076302  0  1.004575  0  0  0.076726  0  1.003969  0  0.052421  0  0.103163  0.075875  0  1.005154  0
H  H43  1  0.31025251  0.82071970  0.61908828  1  0  0.060211  0  0.941961  0  0  0.076319  0  1.00456  0  0  0.076744  0  1.003954  0  0.052416  0  0.103167  0.075879  0  1.005152  0
H  H44  1  0.62432155  0.59836015  0.12475007  1  0  0.087437  0  0.923035  0  0  0.101399  0  0.980797  0  0  0.103292  0  0.97831  0  0.118869  0  0.131162  0.099953  0  0.982662  0
H  H45  1  0.12432047  0.90163931  0.37524970  1  0  0.087481  0  0.923049  0  0  0.101444  0  0.980798  0  0  0.103338  0  0.978311  0  0.118804  0  0.131186  0.099997  0  0.982663  0
H  H46  1  0.37567896  0.40163920  0.87524965  1  0  0.087494  0  0.923053  0  0  0.101457  0  0.980799  0  0  0.103351  0  0.978312  0  0.118811  0  0.131186  0.100011  0  0.982664  0
H  H47  1  0.87567922  0.09836004  0.62474925  1  0  0.087487  0  0.923056  0  0  0.101449  0  0.980805  0  0  0.103343  0  0.978318  0  0.118858  0  0.131181  0.100003  0  0.98267  0
H  H48  1  0.01166708  0.46746296  0.28072597  1  0  0.267171  0  0.939155  0  0  0.254715  0  0.995734  0  0  0.2614  0  0.991412  0  0.45787  0  0.3093  0.250005  0  0.998845  0
H  H49  1  0.51166651  0.03253801  0.21927446  1  0  0.267103  0  0.939161  0  0  0.254636  0  0.995762  0  0  0.261322  0  0.991441  0  0.457867  0  0.309279  0.249925  0  0.998874  0
H  H50  1  0.98833260  0.53253726  0.71927336  1  0  0.267147  0  0.939206  0  0  0.254693  0  0.995779  0  0  0.261378  0  0.991458  0  0.457873  0  0.3093  0.249984  0  0.998888  0
H  H51  1  0.48833318  0.96746307  0.78072601  1  0  0.267173  0  0.939155  0  0  0.254718  0  0.995729  0  0  0.261404  0  0.991408  0  0.457873  0  0.3093  0.250008  0  0.998839  0
H  H52  1  0.04257870  0.17400828  0.03565671  1  0  0.078723  0  0.912191  0  0  0.100426  0  0.961364  0  0  0.101184  0  0.962055  0  0.014315  0  0.09714  0.09978  0  0.960966  0
H  H53  1  0.54257812  0.32599183  0.46434411  1  0  0.0787  0  0.912201  0  0  0.100399  0  0.961374  0  0  0.101156  0  0.962067  0  0.014312  0  0.097128  0.099751  0  0.960975  0
H  H54  1  0.95742181  0.82599194  0.96434338  1  0  0.078729  0  0.912201  0  0  0.100425  0  0.961377  0  0  0.101183  0  0.962068  0  0.014309  0  0.097134  0.099778  0  0.960978  0
H  H55  1  0.45742156  0.67400839  0.53565676  1  0  0.078719  0  0.912185  0  0  0.100419  0  0.961365  0  0  0.101178  0  0.962056  0  0.014313  0  0.09714  0.099772  0  0.960965  0
H  H56  1  0.14643944  0.14251431  0.92955045  1  0  0.087126  0  0.956539  0  0  0.104874  0  1.016481  0  0  0.105309  0  1.017676  0  0.063347  0  0.098277  0.104469  0  1.015736  0
H  H57  1  0.64643887  0.35748666  0.57044997  1  0  0.087066  0  0.956512  0  0  0.104807  0  1.016468  0  0  0.105241  0  1.017663  0  0.063355  0  0.098242  0.1044  0  1.015723  0
H  H58  1  0.85356190  0.85748590  0.07044964  1  0  0.087129  0  0.956599  0  0  0.104875  0  1.016533  0  0  0.10531  0  1.017729  0  0.063357  0  0.098271  0.104468  0  1.015786  0
H  H59  1  0.35356081  0.64251442  0.42955050  1  0  0.087129  0  0.956542  0  0  0.104879  0  1.016482  0  0  0.105313  0  1.017678  0  0.063353  0  0.098284  0.104471  0  1.015736  0
H  H60  1  0.08112339  0.49222907  0.15439525  1  0  0.282484  0  0.928784  0  0  0.266467  0  0.994001  0  0  0.273258  0  0.989176  0  0.488727  0  0.30697  0.261641  0  0.997473  0
H  H61  1  0.58112364  0.00777190  0.34560518  1  0  0.282494  0  0.928781  0  0  0.266471  0  0.993995  0  0  0.273262  0  0.989171  0  0.488733  0  0.306982  0.261647  0  0.997467  0
H  H62  1  0.91887546  0.50777114  0.84560485  1  0  0.282542  0  0.92878  0  0  0.266533  0  0.993973  0  0  0.273324  0  0.989148  0  0.48872  0  0.307004  0.261708  0  0.997447  0
H  H63  1  0.41887604  0.99222918  0.65439529  1  0  0.282563  0  0.928758  0  0  0.266543  0  0.993957  0  0  0.273335  0  0.989131  0  0.488717  0  0.307015  0.261718  0  0.997429  0
C  C64  1  0.94645446  0.39727672  0.06213911  1  0  0.386641  0  3.863345  0  0  0.343897  0  4.139277  0  0  0.367343  0  4.148699  0  1.114484  0  0.234642  0.328149  0  4.13241  0
C  C65  1  0.44645338  0.10272253  0.43786056  1  0  0.386571  0  3.863356  0  0  0.343836  0  4.139252  0  0  0.367284  0  4.148671  0  1.114456  0  0.234609  0.328093  0  4.132385  0
C  C66  1  0.05354605  0.60272350  0.93786098  1  0  0.386636  0  3.863281  0  0  0.343874  0  4.139243  0  0  0.367319  0  4.148665  0  1.114498  0  0.234645  0.32813  0  4.132376  0
C  C67  1  0.55354548  0.89727683  0.56213916  1  0  0.386671  0  3.863278  0  0  0.343923  0  4.139206  0  0  0.367368  0  4.148629  0  1.114505  0  0.234655  0.328176  0  4.13234  0
C  C68  1  0.70641858  0.57652518  0.14413197  1  0  0.23169  0  3.751954  0  0  0.172355  0  4.036539  0  0  0.186648  0  4.048885  0  0.998524  0  0.129155  0.162915  0  4.027813  0
C  C69  1  0.20641832  0.92347428  0.35586703  1  0  0.231622  0  3.752106  0  0  0.172281  0  4.036689  0  0  0.186572  0  4.049034  0  0.998589  0  0.129096  0.162842  0  4.027963  0
C  C70  1  0.29358110  0.42347331  0.85586660  1  0  0.231579  0  3.752142  0  0  0.172246  0  4.036715  0  0  0.186539  0  4.04906  0  0.998584  0  0.129108  0.162808  0  4.027989  0
C  C71  1  0.79358136  0.07652593  0.64413230  1  0  0.231599  0  3.752055  0  0  0.172266  0  4.036636  0  0  0.186557  0  4.048982  0  0.998531  0  0.129116  0.162826  0  4.02791  0
C  C72  1  0.92800427  0.61965880  0.34054040  1  0  0.387947  0  3.863154  0  0  0.345465  0  4.137875  0  0  0.369357  0  4.147128  0  1.123488  0  0.238008  0.329457  0  4.131121  0
C  C73  1  0.42800402  0.88034067  0.15945937  1  0  0.387894  0  3.863303  0  0  0.345429  0  4.137982  0  0  0.369319  0  4.147235  0  1.123472  0  0.237993  0.329421  0  4.131227  0
C  C74  1  0.07199541  0.38034142  0.65945892  1  0  0.387866  0  3.863259  0  0  0.345408  0  4.137968  0  0  0.369298  0  4.147221  0  1.123488  0  0.237986  0.329399  0  4.131212  0
C  C75  1  0.57199566  0.11965955  0.84054073  1  0  0.387911  0  3.863193  0  0  0.345456  0  4.1379  0  0  0.369347  0  4.147153  0  1.123476  0  0.237982  0.329446  0  4.131145  0
C  C76  1  0.86289656  0.48594830  0.12602137  1  0  0.011179  0  3.778703  0  0  0.003576  0  4.038864  0  0  0.00308  0  4.061082  0  0.469604  0  0.068096  0.003848  0  4.023875  0
C  C77  1  0.36289547  0.01405094  0.37397830  1  0  0.011213  0  3.778823  0  0  0.003609  0  4.038965  0  0  0.003112  0  4.061183  0  0.469622  0  0.068093  0.00388  0  4.023974  0
C  C78  1  0.13710395  0.51405191  0.87397796  1  0  0.011176  0  3.778679  0  0  0.0036  0  4.038851  0  0  0.003104  0  4.061069  0  0.469589  0  0.068104  0.003872  0  4.023859  0
C  C79  1  0.63710421  0.98594841  0.62602219  1  0  0.011189  0  3.778674  0  0  0.003612  0  4.038838  0  0  0.003116  0  4.061057  0  0.469599  0  0.068114  0.003882  0  4.023847  0
C  C80  1  0.85734689  0.57848158  0.23687752  1  0  0.013881  0  3.772864  0  0  0.006484  0  4.034127  0  0  0.006367  0  4.055878  0  0.373989  0  0.070496  0.006448  0  4.019492  0
C  C81  1  0.35734664  0.92151788  0.26312225  1  0  0.013893  0  3.772885  0  0  0.006478  0  4.034158  0  0  0.006362  0  4.055908  0  0.373978  0  0.070497  0.006445  0  4.019519  0
C  C82  1  0.14265362  0.42151777  0.76312220  1  0  0.013914  0  3.772827  0  0  0.006453  0  4.034163  0  0  0.006336  0  4.055915  0  0.373973  0  0.07048  0.006422  0  4.01952  0
C  C83  1  0.64265387  0.07848234  0.73687785  1  0  0.0139  0  3.77285  0  0  0.006432  0  4.034195  0  0  0.006316  0  4.055947  0  0.373996  0  0.070478  0.006404  0  4.019549  0
C  C84  1  0.99656331  0.22121499  0.90111165  1  0  0.057807  0  3.69207  0  0  0.002166  0  3.960205  0  0  0.007915  0  3.973182  0  0.306134  0  -0.072729  -0.001599  0  3.951211  0
C  C85  1  0.49656388  0.27878425  0.59888725  1  0  0.057788  0  3.692009  0  0  0.002164  0  3.960113  0  0  0.007913  0  3.973091  0  0.306037  0  -0.072728  -0.001604  0  3.951122  0
C  C86  1  0.00343804  0.77878436  0.09888807  1  0  0.057705  0  3.69219  0  0  0.002077  0  3.960298  0  0  0.007823  0  3.97328  0  0.30603  0  -0.07273  -0.001695  0  3.951308  0
C  C87  1  0.50343746  0.72121597  0.40111207  1  0  0.057744  0  3.692133  0  0  0.00211  0  3.960262  0  0  0.007856  0  3.973243  0  0.30612  0  -0.072736  -0.00166  0  3.951266  0
C  C88  1  0.08834476  0.58127756  0.43885835  1  0  0.061891  0  3.648154  0  0  0.003135  0  3.915641  0  0  0.00834  0  3.926319  0  0.292442  0  -0.063347  -0.000188  0  3.90824  0
C  C89  1  0.58834418  0.91872277  0.06114179  1  0  0.061837  0  3.64822  0  0  0.003077  0  3.915729  0  0  0.008291  0  3.926394  0  0.292606  0  -0.063349  -0.000258  0  3.908325  0
C  C90  1  0.91165492  0.41872352  0.56114212  1  0  0.061789  0  3.648258  0  0  0.00306  0  3.915691  0  0  0.008284  0  3.926344  0  0.29244  0  -0.063351  -0.000263  0  3.908291  0
C  C91  1  0.41165550  0.08127745  0.93885831  1  0  0.061863  0  3.648156  0  0  0.003104  0  3.915654  0  0  0.008317  0  3.926318  0  0.292452  0  -0.063342  -0.000231  0  3.90825  0
C  C92  1  0.98121250  0.76636924  0.52321170  1  0  0.056972  0  3.704407  0  0  0.000822  0  3.972238  0  0  0.00674  0  3.98484  0  0.257558  0  -0.071005  -0.003015  0  3.963463  0
C  C93  1  0.48121390  0.73363022  0.97678884  1  0  0.056928  0  3.704439  0  0  0.000768  0  3.972293  0  0  0.006687  0  3.984892  0  0.257579  0  -0.07104  -0.003073  0  3.963515  0
C  C94  1  0.01878719  0.23363184  0.47678878  1  0  0.056953  0  3.704433  0  0  0.000835  0  3.972224  0  0  0.006752  0  3.984826  0  0.257558  0  -0.071004  -0.003009  0  3.963446  0
C  C95  1  0.51878744  0.26637000  0.02321125  1  0  0.056927  0  3.704435  0  0  0.000791  0  3.97225  0  0  0.006707  0  3.984854  0  0.257571  0  -0.071012  -0.00305  0  3.963471  0
C  C96  1  0.09682447  0.71275612  0.49600394  1  0  -0.163028  0  3.687979  0  0  -0.202831  0  3.948014  0  0  -0.205462  0  3.962399  0  -0.049445  0  -0.163537  -0.200846  0  3.937958  0
C  C97  1  0.59682556  0.78724334  0.00399583  1  0  -0.162944  0  3.687963  0  0  -0.202778  0  3.948051  0  0  -0.205412  0  3.962432  0  -0.049456  0  -0.163537  -0.200794  0  3.937998  0
C  C98  1  0.90317438  0.28724410  0.50399616  1  0  -0.162977  0  3.688086  0  0  -0.202793  0  3.948081  0  0  -0.205431  0  3.962464  0  -0.049421  0  -0.163544  -0.200809  0  3.938027  0
C  C99  1  0.40317578  0.21275688  0.99600427  1  0  -0.163062  0  3.688029  0  0  -0.202866  0  3.948053  0  0  -0.2055  0  3.962436  0  -0.049432  0  -0.163562  -0.200881  0  3.937999  0
C  C100  1  0.13712802  0.32297405  0.05091472  1  0  0.059574  0  3.665644  0  0  -0.002865  0  3.938905  0  0  0.002244  0  3.951075  0  0.321209  0  -0.06779  -0.006164  0  3.930462  0
C  C101  1  0.63712745  0.17702519  0.44908496  1  0  0.059582  0  3.665652  0  0  -0.002913  0  3.938944  0  0  0.002212  0  3.951092  0  0.321296  0  -0.067815  -0.006206  0  3.9305  0
C  C102  1  0.86287249  0.67702617  0.94908615  1  0  0.059684  0  3.665571  0  0  -0.002754  0  3.938822  0  0  0.002372  0  3.950969  0  0.321174  0  -0.067752  -0.006063  0  3.930377  0
C  C103  1  0.36287306  0.82297416  0.55091476  1  0  0.059625  0  3.665643  0  0  -0.002816  0  3.93889  0  0  0.002304  0  3.951046  0  0.32117  0  -0.067784  -0.006119  0  3.930445  0
C  C104  1  0.08339023  0.20635394  0.97931395  1  0  -0.16163  0  3.689063  0  0  -0.199855  0  3.945422  0  0  -0.202295  0  3.959008  0  -0.015288  0  -0.16328  -0.19802  0  3.935976  0
C  C105  1  0.58338883  0.29364617  0.52068609  1  0  -0.161539  0  3.688971  0  0  -0.199743  0  3.945317  0  0  -0.202188  0  3.9589  0  -0.015292  0  -0.163236  -0.197899  0  3.935861  0
C  C106  1  0.91661028  0.79364628  0.02068614  1  0  -0.161686  0  3.689183  0  0  -0.199901  0  3.945518  0  0  -0.202345  0  3.9591  0  -0.015286  0  -0.163295  -0.198051  0  3.936059  0
C  C107  1  0.41661002  0.70635405  0.47931400  1  0  -0.161613  0  3.689019  0  0  -0.199842  0  3.94539  0  0  -0.202285  0  3.958973  0  -0.015285  0  -0.163279  -0.197994  0  3.935929  0
N  N108  1  0.00123178  0.54459713  0.35098834  1  0  -0.407223  0  3.307727  0  0  -0.347974  0  3.558139  0  0  -0.366978  0  3.566008  0  -1.229007  0  -0.42885  -0.335023  0  3.552455  0
N  N109  1  0.50123204  0.95540233  0.14901143  1  0  -0.407059  0  3.307777  0  0  -0.347779  0  3.55814  0  0  -0.366786  0  3.566011  0  -1.228995  0  -0.428776  -0.334828  0  3.552457  0
N  N110  1  0.99876790  0.45540309  0.64901176  1  0  -0.407096  0  3.307858  0  0  -0.347846  0  3.558235  0  0  -0.366856  0  3.566102  0  -1.229023  0  -0.428809  -0.334896  0  3.552551  0
N  N111  1  0.49876764  0.04459702  0.85098829  1  0  -0.407228  0  3.307721  0  0  -0.347969  0  3.558114  0  0  -0.366975  0  3.565981  0  -1.229002  0  -0.428848  -0.335019  0  3.552435  0
N  N112  1  0.91448288  0.30857914  0.96810733  1  0  -0.484014  0  3.124426  0  0  -0.408849  0  3.412242  0  0  -0.433615  0  3.423658  0  -1.211304  0  -0.387888  -0.39191  0  3.403964  0
N  N113  1  0.41448262  0.19142011  0.53189311  1  0  -0.483974  0  3.124379  0  0  -0.408811  0  3.412175  0  0  -0.433575  0  3.423585  0  -1.211317  0  -0.387842  -0.391877  0  3.403901  0
N  N114  1  0.08551763  0.69142108  0.03189199  1  0  -0.483927  0  3.124433  0  0  -0.40876  0  3.412244  0  0  -0.433525  0  3.423664  0  -1.211226  0  -0.387865  -0.391823  0  3.403971  0
N  N115  1  0.58551706  0.80857924  0.46810738  1  0  -0.484035  0  3.124436  0  0  -0.408869  0  3.412253  0  0  -0.433636  0  3.423672  0  -1.21131  0  -0.3879  -0.39193  0  3.403976  0
N  N116  1  0.76579236  0.48615711  0.06989130  1  0  -0.427281  0  3.238961  0  0  -0.35524  0  3.522335  0  0  -0.376166  0  3.539465  0  -1.230346  0  -0.367162  -0.340816  0  3.510263  0
N  N117  1  0.26579127  0.01384300  0.43010875  1  0  -0.427279  0  3.23903  0  0  -0.355222  0  3.522389  0  0  -0.376147  0  3.539516  0  -1.230324  0  -0.367133  -0.340797  0  3.510314  0
N  N118  1  0.23420815  0.51384224  0.93010765  1  0  -0.427274  0  3.238995  0  0  -0.355229  0  3.522355  0  0  -0.376156  0  3.539485  0  -1.230291  0  -0.367151  -0.340805  0  3.510283  0
N  N119  1  0.73420841  0.98615722  0.56989135  1  0  -0.427272  0  3.238972  0  0  -0.355232  0  3.522341  0  0  -0.376157  0  3.53947  0  -1.23032  0  -0.367157  -0.340808  0  3.510269  0
N  N120  1  0.75827300  0.63533083  0.24518102  1  0  -0.426756  0  3.210341  0  0  -0.355974  0  3.492289  0  0  -0.376375  0  3.508133  0  -1.204184  0  -0.364083  -0.341874  0  3.481086  0
N  N121  1  0.25827275  0.86466863  0.25481797  1  0  -0.426754  0  3.210417  0  0  -0.35597  0  3.492366  0  0  -0.376371  0  3.508212  0  -1.204217  0  -0.364079  -0.341871  0  3.481164  0
N  N122  1  0.24172668  0.36466766  0.75481755  1  0  -0.426703  0  3.210445  0  0  -0.355898  0  3.492397  0  0  -0.3763  0  3.508244  0  -1.20422  0  -0.364057  -0.341801  0  3.481194  0
N  N123  1  0.74172776  0.13533159  0.74518212  1  0  -0.426742  0  3.210378  0  0  -0.355938  0  3.492341  0  0  -0.376338  0  3.508186  0  -1.204221  0  -0.364074  -0.341841  0  3.481137  0
N  N124  1  0.91269165  0.72580286  0.41994334  1  0  -0.492153  0  3.144197  0  0  -0.412448  0  3.431291  0  0  -0.438706  0  3.443574  0  -1.188529  0  -0.393713  -0.394476  0  3.422311  0
N  N125  1  0.41269305  0.77419660  0.08005643  1  0  -0.492172  0  3.144322  0  0  -0.412471  0  3.431411  0  0  -0.438727  0  3.443691  0  -1.188508  0  -0.393719  -0.394498  0  3.422434  0
N  N126  1  0.08730721  0.27419735  0.58005675  1  0  -0.492141  0  3.144245  0  0  -0.412452  0  3.431319  0  0  -0.438707  0  3.4436  0  -1.188516  0  -0.393721  -0.39448  0  3.422343  0
N  N127  1  0.58730746  0.22580362  0.91994367  1  0  -0.492105  0  3.14431  0  0  -0.412401  0  3.431382  0  0  -0.438657  0  3.443664  0  -1.188524  0  -0.39368  -0.394429  0  3.422404  0
N  N128  1  0.81339697  0.97094873  0.29385843  1  0  0.71745  0  4.089327  0  0  0.732202  0  4.405444  0  0  0.760631  0  4.412007  0  0.82031  0  0.094456  0.713136  0  4.400444  0
N  N129  1  0.31339754  0.52905160  0.20614171  1  0  0.717492  0  4.089388  0  0  0.732256  0  4.405483  0  0  0.760689  0  4.412038  0  0.820304  0  0.094492  0.713189  0  4.400484  0
N  N130  1  0.18660272  0.02905149  0.70614166  1  0  0.717504  0  4.089256  0  0  0.732264  0  4.405364  0  0  0.760695  0  4.411921  0  0.820321  0  0.094484  0.713197  0  4.400365  0
N  N131  1  0.68660297  0.47094862  0.79385839  1  0  0.717458  0  4.08929  0  0  0.732224  0  4.405388  0  0  0.760654  0  4.411945  0  0.820318  0  0.094485  0.713158  0  4.40039  0
N  N132  1  0.05144438  0.41071076  0.10564921  1  0  -0.429305  0  3.308021  0  0  -0.367777  0  3.55526  0  0  -0.387582  0  3.563753  0  -1.231819  0  -0.434743  -0.354225  0  3.54919  0
N  N133  1  0.55144381  0.08928935  0.39435084  1  0  -0.429282  0  3.308002  0  0  -0.367738  0  3.555243  0  0  -0.387546  0  3.563727  0  -1.23168  0  -0.434732  -0.35419  0  3.549173  0
N  N134  1  0.94855530  0.58928860  0.89434896  1  0  -0.429404  0  3.307989  0  0  -0.36789  0  3.555274  0  0  -0.387696  0  3.563754  0  -1.231776  0  -0.434805  -0.354346  0  3.549216  0
N  N135  1  0.44855504  0.91071173  0.60565118  1  0  -0.429421  0  3.308034  0  0  -0.36789  0  3.555295  0  0  -0.387695  0  3.563778  0  -1.231797  0  -0.434809  -0.35434  0  3.549228  0
O  O136  1  0.89131390  0.95700263  0.35198053  1  0  -0.468311  0  1.72532  0  0  -0.448324  0  1.945526  0  0  -0.464644  0  1.938791  0  -0.539138  0  -0.183063  -0.436973  0  1.949912  0
O  O137  1  0.39131364  0.54299770  0.14802038  1  0  -0.46829  0  1.725346  0  0  -0.448292  0  1.945544  0  0  -0.464611  0  1.938807  0  -0.539132  0  -0.183043  -0.43694  0  1.94993  0
O  O138  1  0.10868578  0.04299759  0.64801956  1  0  -0.468356  0  1.725318  0  0  -0.448365  0  1.945528  0  0  -0.464685  0  1.938792  0  -0.539149  0  -0.183079  -0.437013  0  1.949914  0
O  O139  1  0.60868604  0.45700252  0.85197972  1  0  -0.468322  0  1.725331  0  0  -0.44833  0  1.945532  0  0  -0.464648  0  1.938793  0  -0.539132  0  -0.183059  -0.436979  0  1.949918  0
O  O140  1  0.72230311  0.91180863  0.28179062  1  0  -0.52441  0  1.766296  0  0  -0.485315  0  2.001022  0  0  -0.50499  0  1.992215  0  -0.603427  0  -0.21735  -0.471595  0  2.006858  0
O  O141  1  0.22230368  0.58819169  0.21820952  1  0  -0.524431  0  1.766334  0  0  -0.485377  0  2.001094  0  0  -0.505049  0  1.992277  0  -0.603417  0  -0.217369  -0.471653  0  2.006927  0
O  O142  1  0.27769658  0.08819245  0.71820985  1  0  -0.524402  0  1.766276  0  0  -0.485324  0  2.001017  0  0  -0.504999  0  1.992204  0  -0.603428  0  -0.217351  -0.471604  0  2.006852  0
O  O143  1  0.77769683  0.41180766  0.78179097  1  0  -0.524399  0  1.766282  0  0  -0.485343  0  2.001044  0  0  -0.505013  0  1.992229  0  -0.603424  0  -0.217364  -0.471618  0  2.006876  0
O  O144  1  0.82082087  0.03807365  0.24767573  1  0  -0.438916  0  1.694731  0  0  -0.43746  0  1.898583  0  0  -0.448464  0  1.891382  0  -0.508575  0  -0.181542  -0.429895  0  1.903579  0
O  O145  1  0.32082144  0.46192559  0.25232394  1  0  -0.438959  0  1.69474  0  0  -0.437507  0  1.898578  0  0  -0.448517  0  1.891378  0  -0.508587  0  -0.181579  -0.429942  0  1.903572  0
O  O146  1  0.17917881  0.96192570  0.75232398  1  0  -0.43893  0  1.694716  0  0  -0.437481  0  1.898559  0  0  -0.448487  0  1.891354  0  -0.508579  0  -0.181549  -0.429916  0  1.903555  0
O  O147  1  0.67917824  0.53807463  0.74767616  1  0  -0.438916  0  1.694715  0  0  -0.437461  0  1.898545  0  0  -0.448472  0  1.891347  0  -0.508586  0  -0.181558  -0.429897  0  1.903541  0
