# generated using pymatgen
data_CdH8(C7N4)2
_symmetry_space_group_name_H-M   'P 1'
_cell_length_a   6.48923885
_cell_length_b   9.52142487
_cell_length_c   13.03642837
_cell_angle_alpha   89.12781498
_cell_angle_beta   87.59593019
_cell_angle_gamma   70.13158176
_symmetry_Int_Tables_number   1
_chemical_formula_structural   CdH8(C7N4)2
_chemical_formula_sum   'Cd2 H16 C28 N16'
_cell_volume   756.86639106
_cell_formula_units_Z   2
loop_
 _symmetry_equiv_pos_site_id
 _symmetry_equiv_pos_as_xyz
  1  'x, y, z'
loop_
 _atom_site_type_symbol
 _atom_site_label
 _atom_site_symmetry_multiplicity
 _atom_site_fract_x
 _atom_site_fract_y
 _atom_site_fract_z
 _atom_site_occupancy
 _atom_site_hle17_bader_spin_density
 _atom_site_hle17_ddec_charge
 _atom_site_hle17_ddec_spin_density
 _atom_site_hle17_ddec_sum_bond_order
 _atom_site_hle17_magmom
 _atom_site_hse06_10hf_bader_spin_density
 _atom_site_hse06_10hf_ddec_charge
 _atom_site_hse06_10hf_ddec_spin_density
 _atom_site_hse06_10hf_ddec_sum_bond_order
 _atom_site_hse06_10hf_magmom
 _atom_site_hse06_bader_spin_density
 _atom_site_hse06_ddec_charge
 _atom_site_hse06_ddec_spin_density
 _atom_site_hse06_ddec_sum_bond_order
 _atom_site_hse06_magmom
 _atom_site_pbe_bader_spin_density
 _atom_site_pbe_cm5_charge
 _atom_site_pbe_ddec_charge
 _atom_site_pbe_ddec_spin_density
 _atom_site_pbe_ddec_sum_bond_order
 _atom_site_pbe_magmom
Cd  Cd0  1  0.12322167  0.75530106  0.25016687  1  0  1.157533  0  1.907679  0  0  0.963638  0  2.407097  0  0  1.011856  0  2.357259  0  0  0.837809  0.930162  0  2.440653  0
Cd  Cd1  1  0.87678156  0.24469719  0.74984304  1  0  1.157584  0  1.907749  0  0  0.963657  0  2.407223  0  0  1.011876  0  2.357378  0  0  0.837789  0.930231  0  2.440805  0
H  H2  1  0.77760939  0.65973683  0.11963012  1  0  0.082653  0  0.951073  0  0  0.089204  0  1.017537  0  0  0.09105  0  1.016611  0  0  0.112711  0.087533  0  1.018846  0
H  H3  1  0.56392586  0.65968012  0.38065157  1  0  0.081865  0  0.953212  0  0  0.088398  0  1.019984  0  0  0.090182  0  1.019125  0  0  0.112401  0.087263  0  1.02025  0
H  H4  1  0.22239065  0.34026813  0.88037288  1  0  0.082642  0  0.951043  0  0  0.089203  0  1.017516  0  0  0.09105  0  1.016589  0  0  0.112702  0.087536  0  1.018821  0
H  H5  1  0.43610279  0.34030810  0.61934192  1  0  0.081891  0  0.952991  0  0  0.08839  0  1.019817  0  0  0.090188  0  1.018935  0  0  0.112375  0.087253  0  1.020089  0
H  H6  1  0.28552408  0.16490864  0.21137041  1  0  0.107762  0  0.964951  0  0  0.117723  0  1.025906  0  0  0.120358  0  1.025273  0  0  0.10842  0.115823  0  1.026544  0
H  H7  1  0.55119433  0.16489220  0.28822941  1  0  0.108247  0  0.964682  0  0  0.118308  0  1.025323  0  0  0.120895  0  1.02473  0  0  0.108767  0.116375  0  1.025886  0
H  H8  1  0.71446480  0.83509408  0.78862971  1  0  0.107782  0  0.964939  0  0  0.117791  0  1.02584  0  0  0.120426  0  1.025207  0  0  0.108425  0.115891  0  1.0265  0
H  H9  1  0.44879685  0.83510605  0.71176764  1  0  0.108371  0  0.96458  0  0  0.118426  0  1.025225  0  0  0.121014  0  1.02463  0  0  0.108825  0.116498  0  1.025797  0
H  H10  1  0.71094855  0.43195954  0.05546344  1  0  0.108369  0  0.942169  0  0  0.118719  0  1.000451  0  0  0.121737  0  0.999854  0  0  0.108133  0.116557  0  1.000942  0
H  H11  1  0.85833281  0.43180584  0.44467409  1  0  0.108409  0  0.943173  0  0  0.118718  0  1.001414  0  0  0.121651  0  1.000921  0  0  0.108292  0.116642  0  1.001938  0
H  H12  1  0.28903637  0.56805099  0.94453975  1  0  0.108265  0  0.942203  0  0  0.118619  0  1.000483  0  0  0.121636  0  0.999887  0  0  0.108083  0.116459  0  1.000961  0
H  H13  1  0.14170445  0.56817792  0.55530933  1  0  0.108444  0  0.943271  0  0  0.11872  0  1.001503  0  0  0.121653  0  1.001013  0  0  0.108311  0.116649  0  1.002009  0
H  H14  1  0.97577685  0.17903446  0.10436742  1  0  0.088598  0  0.955131  0  0  0.10193  0  1.011001  0  0  0.103193  0  1.011029  0  0  0.105757  0.100549  0  1.01182  0
H  H15  1  0.84672198  0.17891254  0.39541343  1  0  0.088467  0  0.956331  0  0  0.101648  0  1.012373  0  0  0.102964  0  1.012346  0  0  0.105935  0.100534  0  1.012773  0
H  H16  1  0.02420765  0.82097384  0.89563502  1  0  0.088554  0  0.95506  0  0  0.101885  0  1.01094  0  0  0.103147  0  1.010969  0  0  0.105734  0.100512  0  1.011757  0
H  H17  1  0.15328623  0.82107680  0.60457270  1  0  0.088493  0  0.956293  0  0  0.101634  0  1.012348  0  0  0.102946  0  1.01233  0  0  0.105953  0.100522  0  1.012739  0
C  C18  1  0.20403512  0.40559990  0.21904677  1  0  0.179  0  3.746626  0  0  0.17413  0  3.988349  0  0  0.180636  0  4.008326  0  0  0.120826  0.169823  0  3.974518  0
C  C19  1  0.39206874  0.40556976  0.28075709  1  0  0.177496  0  3.746699  0  0  0.174865  0  3.986488  0  0  0.181329  0  4.006514  0  0  0.121234  0.170691  0  3.972467  0
C  C20  1  0.79596835  0.59439835  0.78095239  1  0  0.179044  0  3.746664  0  0  0.174135  0  3.988428  0  0  0.180638  0  4.008408  0  0  0.120826  0.16984  0  3.974585  0
C  C21  1  0.60793321  0.59442850  0.71924057  1  0  0.177519  0  3.746789  0  0  0.174878  0  3.98656  0  0  0.181342  0  4.006586  0  0  0.121203  0.170703  0  3.972546  0
C  C22  1  0.72868611  0.00737871  0.11011961  1  0  0.506789  0  4.015437  0  0  0.464769  0  4.304396  0  0  0.491471  0  4.315158  0  0  0.306345  0.446517  0  4.297481  0
C  C23  1  0.26577919  0.00713584  0.39022400  1  0  0.505313  0  4.019062  0  0  0.463503  0  4.308218  0  0  0.49013  0  4.319034  0  0  0.305789  0.445379  0  4.300708  0
C  C24  1  0.27131852  0.99261953  0.88989641  1  0  0.507031  0  4.016198  0  0  0.464926  0  4.305143  0  0  0.491659  0  4.315917  0  0  0.306276  0.446675  0  4.298266  0
C  C25  1  0.73419990  0.99287135  0.60976933  1  0  0.50525  0  4.019419  0  0  0.463378  0  4.308564  0  0  0.489998  0  4.319394  0  0  0.305822  0.44527  0  4.301089  0
C  C26  1  0.88834136  0.54760071  0.13670148  1  0  0.13724  0  3.710879  0  0  0.107975  0  3.963108  0  0  0.114319  0  3.982195  0  0  0.050122  0.103976  0  3.950299  0
C  C27  1  0.56552073  0.54752117  0.36339963  1  0  0.137359  0  3.71066  0  0  0.107927  0  3.963027  0  0  0.114304  0  3.982122  0  0  0.050209  0.1038  0  3.949712  0
C  C28  1  0.11165098  0.45240424  0.86330087  1  0  0.137198  0  3.710798  0  0  0.107889  0  3.963055  0  0  0.114235  0  3.982139  0  0  0.050063  0.103912  0  3.950216  0
C  C29  1  0.43450670  0.45247263  0.63659230  1  0  0.137504  0  3.710231  0  0  0.108053  0  3.96258  0  0  0.114425  0  3.981669  0  0  0.050315  0.103947  0  3.949256  0
C  C30  1  0.17362954  0.27351869  0.18909652  1  0  -0.132067  0  3.709423  0  0  -0.155212  0  3.964534  0  0  -0.161276  0  3.985699  0  0  -0.077762  -0.151245  0  3.949983  0
C  C31  1  0.55453784  0.27345704  0.31060697  1  0  -0.132017  0  3.708259  0  0  -0.155675  0  3.963083  0  0  -0.161691  0  3.984334  0  0  -0.077946  -0.151663  0  3.948415  0
C  C32  1  0.82636498  0.72648515  0.81090196  1  0  -0.132055  0  3.709178  0  0  -0.155235  0  3.964286  0  0  -0.161298  0  3.98545  0  0  -0.077728  -0.151264  0  3.949744  0
C  C33  1  0.44546272  0.72653787  0.68938996  1  0  -0.13219  0  3.708445  0  0  -0.155877  0  3.963284  0  0  -0.161892  0  3.984533  0  0  -0.077978  -0.151858  0  3.948615  0
C  C34  1  0.85080303  0.42086598  0.10223446  1  0  -0.107981  0  3.717672  0  0  -0.123379  0  3.97198  0  0  -0.129838  0  3.994087  0  0  -0.080146  -0.119084  0  3.956751  0
C  C35  1  0.72979838  0.42075027  0.39775553  1  0  -0.108086  0  3.716498  0  0  -0.123294  0  3.970364  0  0  -0.129646  0  3.992451  0  0  -0.080761  -0.119289  0  3.955686  0
C  C36  1  0.14918998  0.57914679  0.89777012  1  0  -0.107817  0  3.717345  0  0  -0.1232  0  3.971643  0  0  -0.129657  0  3.99375  0  0  -0.080012  -0.118886  0  3.956371  0
C  C37  1  0.27022379  0.57923572  0.60223271  1  0  -0.108211  0  3.716485  0  0  -0.123379  0  3.970324  0  0  -0.129737  0  3.992411  0  0  -0.080796  -0.119361  0  3.955606  0
C  C38  1  0.99738165  0.28169870  0.12913426  1  0  -0.002713  0  3.726652  0  0  -0.020241  0  3.976867  0  0  -0.017974  0  3.997538  0  0  -0.066715  -0.021168  0  3.962821  0
C  C39  1  0.72253039  0.28157806  0.37065843  1  0  -0.002643  0  3.725692  0  0  -0.020186  0  3.976254  0  0  -0.017988  0  3.996888  0  0  -0.067014  -0.02147  0  3.962234  0
C  C40  1  0.00261280  0.71830514  0.87086730  1  0  -0.002721  0  3.726493  0  0  -0.020249  0  3.976726  0  0  -0.017985  0  3.997401  0  0  -0.066733  -0.021173  0  3.96267  0
C  C41  1  0.27748389  0.71841128  0.62933220  1  0  -0.002597  0  3.725742  0  0  -0.020074  0  3.97625  0  0  -0.017874  0  3.996881  0  0  -0.066977  -0.021337  0  3.962195  0
C  C42  1  0.63758725  0.17244723  0.97368984  1  0  0.50297  0  3.997199  0  0  0.465403  0  4.280258  0  0  0.491327  0  4.291291  0  0  0.302528  0.447815  0  4.27235  0
C  C43  1  0.18892781  0.17271849  0.52621984  1  0  0.504258  0  3.997027  0  0  0.467163  0  4.279646  0  0  0.493104  0  4.290633  0  0  0.302695  0.449298  0  4.272354  0
C  C44  1  0.36240845  0.82754095  0.02633024  1  0  0.503376  0  3.997376  0  0  0.465706  0  4.280418  0  0  0.491655  0  4.291446  0  0  0.302661  0.448094  0  4.272469  0
C  C45  1  0.81106231  0.82728536  0.47376874  1  0  0.504155  0  3.997146  0  0  0.467  0  4.279742  0  0  0.492928  0  4.290729  0  0  0.302643  0.449122  0  4.272408  0
N  N46  1  0.06086114  0.53968628  0.19223049  1  0  -0.363469  0  3.25532  0  0  -0.291936  0  3.512701  0  0  -0.310555  0  3.531051  0  0  -0.323382  -0.279184  0  3.500061  0
N  N47  1  0.40103601  0.53963154  0.30777699  1  0  -0.361887  0  3.254081  0  0  -0.290945  0  3.51094  0  0  -0.309526  0  3.52923  0  0  -0.32273  -0.277966  0  3.497752  0
N  N48  1  0.93913793  0.46031756  0.80777177  1  0  -0.363449  0  3.255582  0  0  -0.291869  0  3.512939  0  0  -0.310488  0  3.531288  0  0  -0.323338  -0.279119  0  3.500286  0
N  N49  1  0.59897684  0.46036337  0.69222205  1  0  -0.362061  0  3.254104  0  0  -0.291036  0  3.510873  0  0  -0.309616  0  3.529163  0  0  -0.322788  -0.278052  0  3.497679  0
N  N50  1  0.83219653  0.91291015  0.16551112  1  0  -0.616245  0  2.816894  0  0  -0.562171  0  3.099744  0  0  -0.585515  0  3.102686  0  0  -0.392254  -0.546271  0  3.098494  0
N  N51  1  0.25813418  0.91217522  0.33498548  1  0  -0.614972  0  2.820103  0  0  -0.561022  0  3.102929  0  0  -0.584338  0  3.105901  0  0  -0.391209  -0.544863  0  3.100392  0
N  N52  1  0.16780949  0.08710374  0.83450782  1  0  -0.616413  0  2.817019  0  0  -0.562337  0  3.099895  0  0  -0.585685  0  3.102826  0  0  -0.392277  -0.546441  0  3.098681  0
N  N53  1  0.74190514  0.08780293  0.66503170  1  0  -0.615031  0  2.820119  0  0  -0.56108  0  3.102993  0  0  -0.584403  0  3.105977  0  0  -0.391231  -0.544926  0  3.100488  0
N  N54  1  0.59556215  0.11331926  0.05823960  1  0  -0.462734  0  3.342947  0  0  -0.406864  0  3.605861  0  0  -0.431942  0  3.612724  0  0  -0.307347  -0.389505  0  3.600476  0
N  N55  1  0.29135778  0.11368738  0.44201959  1  0  -0.462527  0  3.341416  0  0  -0.407252  0  3.604596  0  0  -0.4323  0  3.611501  0  0  -0.307858  -0.389978  0  3.599301  0
N  N56  1  0.40443530  0.88668458  0.94176574  1  0  -0.463403  0  3.343038  0  0  -0.40737  0  3.605878  0  0  -0.432517  0  3.612777  0  0  -0.307517  -0.389988  0  3.600492  0
N  N57  1  0.70852941  0.88638458  0.55794855  1  0  -0.462268  0  3.340928  0  0  -0.406852  0  3.604001  0  0  -0.431884  0  3.610922  0  0  -0.307743  -0.389581  0  3.598708  0
N  N58  1  0.65470215  0.23765095  0.89787526  1  0  -0.606927  0  2.764672  0  0  -0.562374  0  3.039772  0  0  -0.583393  0  3.043023  0  0  -0.386523  -0.547972  0  3.037527  0
N  N59  1  0.10537713  0.23796830  0.60172350  1  0  -0.608116  0  2.766696  0  0  -0.563519  0  3.041834  0  0  -0.584573  0  3.045044  0  0  -0.386382  -0.54924  0  3.039804  0
N  N60  1  0.34529237  0.76234953  0.10212939  1  0  -0.606741  0  2.765545  0  0  -0.562173  0  3.040645  0  0  -0.583179  0  3.043878  0  0  -0.386403  -0.547758  0  3.038363  0
N  N61  1  0.89463411  0.76201654  0.39829637  1  0  -0.60809  0  2.767521  0  0  -0.563508  0  3.04268  0  0  -0.584554  0  3.045889  0  0  -0.386428  -0.549207  0  3.040593  0
