# generated using pymatgen
data_ZnSiH8C24N12(O8F3)2
_symmetry_space_group_name_H-M   'P 1'
_cell_length_a   7.43262342
_cell_length_b   14.05556073
_cell_length_c   14.02798160
_cell_angle_alpha   90.00264366
_cell_angle_beta   90.01238406
_cell_angle_gamma   89.97836024
_symmetry_Int_Tables_number   1
_chemical_formula_structural   ZnSiH8C24N12(O8F3)2
_chemical_formula_sum   'Zn1 Si1 H8 C24 N12 O16 F6'
_cell_volume   1465.49874697
_cell_formula_units_Z   1
loop_
 _symmetry_equiv_pos_site_id
 _symmetry_equiv_pos_as_xyz
  1  'x, y, z'
loop_
 _atom_site_type_symbol
 _atom_site_label
 _atom_site_symmetry_multiplicity
 _atom_site_fract_x
 _atom_site_fract_y
 _atom_site_fract_z
 _atom_site_occupancy
 _atom_site_pbe_bader_charge
 _atom_site_pbe_bader_spin_density
 _atom_site_pbe_cm5_charge
 _atom_site_pbe_ddec_charge
 _atom_site_pbe_ddec_spin_density
 _atom_site_pbe_ddec_sum_bond_order
 _atom_site_pbe_magmom
Zn  Zn0  1  0.50001515  0.49991780  0.49996979  1  1.430049  0  0.718419  0.751509  0  2.488218  0
Si  Si1  1  0.00002205  0.50004920  0.49998084  1  3.178495  0  0.254424  1.720904  0  3.989644  0
H  H2  1  0.25946991  0.66283378  0.57790459  1  0.235723  0  0.133028  0.127425  0  1.018617  0
H  H3  1  0.74010582  0.66281670  0.42196194  1  0.213141  0  0.133109  0.127367  0  1.018204  0
H  H4  1  0.25970458  0.33704735  0.42209990  1  0.21439  0  0.133052  0.12737  0  1.018474  0
H  H5  1  0.74082463  0.33701179  0.57776661  1  0.234933  0  0.132848  0.127364  0  1.018971  0
H  H6  1  0.26246972  0.41998704  0.66212867  1  0.229646  0  0.133607  0.127902  0  1.014234  0
H  H7  1  0.73779835  0.57989514  0.66213201  1  0.22857  0  0.133358  0.127883  0  1.015186  0
H  H8  1  0.26225457  0.58002942  0.33783266  1  0.243254  0  0.133233  0.127564  0  1.015585  0
H  H9  1  0.73747873  0.41983574  0.33783075  1  0.232226  0  0.133443  0.127678  0  1.015091  0
C  C10  1  0.36895407  0.70291147  0.54471747  1  0.609771  0  0.078878  0.074078  0  3.869816  0
C  C11  1  0.36792818  0.80158648  0.54802166  1  0.155197  0  0.099126  0.001217  0  3.817845  0
C  C12  1  0.49986849  0.85675667  0.50008781  1  0.147863  0  0.052452  0.106526  0  4.013152  0
C  C13  1  0.63176313  0.80158192  0.45205017  1  0.1567  0  0.099435  0.001772  0  3.817548  0
C  C14  1  0.63065380  0.70290656  0.45521151  1  0.6326  0  0.07929  0.074507  0  3.870055  0
C  C15  1  0.49980224  0.95637348  0.50013145  1  0.114414  0  0.015376  0.003946  0  3.990611  0
C  C16  1  0.50016085  0.04347352  0.50016528  1  -0.109673  0  0.016083  0.005194  0  3.991047  0
C  C17  1  0.50010669  0.14309033  0.50012979  1  0.147206  0  0.053331  0.106232  0  4.013475  0
C  C18  1  0.36811460  0.19826999  0.45212795  1  0.285792  0  0.099015  0.001668  0  3.816514  0
C  C19  1  0.36924808  0.29695047  0.45528826  1  0.505607  0  0.079037  0.074251  0  3.870036  0
C  C20  1  0.63121001  0.29693685  0.54465623  1  0.487385  0  0.079083  0.074207  0  3.869946  0
C  C21  1  0.63218746  0.19826129  0.54799448  1  0.28326  0  0.09873  0.001447  0  3.818052  0
C  C22  1  0.37069674  0.45408814  0.70241805  1  0.611863  0  0.079089  0.073  0  3.870818  0
C  C23  1  0.36946785  0.45123259  0.80130242  1  0.16899  0  0.100254  0.005199  0  3.821507  0
C  C24  1  0.50006430  0.50005336  0.85641809  1  0.144008  0  0.051899  0.104224  0  4.014052  0
C  C25  1  0.63066001  0.54882178  0.80129908  1  0.16872  0  0.100219  0.005529  0  3.820759  0
C  C26  1  0.62956070  0.54583432  0.70242086  1  0.610746  0  0.079147  0.072691  0  3.870332  0
C  C27  1  0.50011277  0.50008838  0.95643105  1  0.110672  0  0.01222  -0.002471  0  3.995803  0
C  C28  1  0.50000889  0.50011575  0.04352779  1  -0.116667  0  0.0128  -0.001155  0  3.996265  0
C  C29  1  0.50000625  0.50008319  0.14354076  1  0.145674  0  0.051315  0.103661  0  4.015089  0
C  C30  1  0.36946338  0.54895939  0.19865133  1  0.167115  0  0.100449  0.005588  0  3.821729  0
C  C31  1  0.37050428  0.54592860  0.29753511  1  0.598479  0  0.079148  0.072968  0  3.87014  0
C  C32  1  0.62926249  0.45398735  0.29753724  1  0.609877  0  0.078794  0.072713  0  3.870617  0
C  C33  1  0.63048802  0.45113341  0.19865630  1  0.167792  0  0.100379  0.005525  0  3.821179  0
N  N34  1  0.49980166  0.65428235  0.49993913  1  -1.250448  0  -0.310379  -0.211138  0  3.504346  0
N  N35  1  0.50024745  0.34556961  0.49994201  1  -1.253421  0  -0.310177  -0.211048  0  3.504978  0
N  N36  1  0.50016332  0.49991564  0.65386935  1  -1.257659  0  -0.309939  -0.208038  0  3.512802  0
N  N37  1  0.49983469  0.49991143  0.34608093  1  -1.258301  0  -0.310137  -0.208182  0  3.513268  0
N  N38  1  0.77801531  0.84696647  0.39677873  1  0.433329  0  0.064915  0.510101  0  4.219897  0
N  N39  1  0.22177162  0.84704639  0.60333370  1  0.433279  0  0.064889  0.510505  0  4.218308  0
N  N40  1  0.77845383  0.15281245  0.60325573  1  0.435954  0  0.064988  0.510311  0  4.217105  0
N  N41  1  0.22166248  0.15289501  0.39695583  1  0.431141  0  0.064974  0.510785  0  4.218005  0
N  N42  1  0.77520112  0.60522653  0.84671869  1  0.399754  0  0.064006  0.509251  0  4.221646  0
N  N43  1  0.22477150  0.39495873  0.84671626  1  0.40386  0  0.064663  0.509473  0  4.221566  0
N  N44  1  0.77507363  0.39471879  0.15325482  1  0.404636  0  0.063777  0.508229  0  4.221088  0
N  N45  1  0.22505983  0.60549285  0.15322507  1  0.404714  0  0.064448  0.508919  0  4.221094  0
O  O46  1  0.80277666  0.93306044  0.40916026  1  -0.418469  0  -0.099923  -0.288751  0  1.94644  0
O  O47  1  0.86454668  0.79502760  0.34236771  1  -0.42374  0  -0.110772  -0.295998  0  1.891735  0
O  O48  1  0.19886118  0.93344271  0.59201129  1  -0.418477  0  -0.099311  -0.288209  0  1.94613  0
O  O49  1  0.13351578  0.79493620  0.65673637  1  -0.424911  0  -0.110439  -0.295912  0  1.89191  0
O  O50  1  0.80073149  0.06632390  0.59232543  1  -0.420632  0  -0.099125  -0.287957  0  1.945429  0
O  O51  1  0.86745095  0.20502320  0.65625045  1  -0.425407  0  -0.110671  -0.295905  0  1.891798  0
O  O52  1  0.19728822  0.06674323  0.40910814  1  -0.418886  0  -0.099896  -0.288657  0  1.946242  0
O  O53  1  0.13455618  0.20489903  0.34284586  1  -0.421946  0  -0.110751  -0.296669  0  1.891323  0
O  O54  1  0.81425420  0.58564935  0.93004324  1  -0.403296  0  -0.097756  -0.285548  0  1.950047  0
O  O55  1  0.84584657  0.66757580  0.79702782  1  -0.404455  0  -0.111108  -0.29708  0  1.884216  0
O  O56  1  0.18522860  0.41487987  0.92988036  1  -0.405239  0  -0.098114  -0.286059  0  1.949986  0
O  O57  1  0.15446260  0.33237021  0.79715052  1  -0.40485  0  -0.111903  -0.297337  0  1.883164  0
O  O58  1  0.81461858  0.41455700  0.07007738  1  -0.403827  0  -0.097582  -0.28503  0  1.949626  0
O  O59  1  0.84529373  0.33210206  0.20284546  1  -0.407814  0  -0.111373  -0.296964  0  1.882866  0
O  O60  1  0.18632460  0.58613167  0.06981053  1  -0.406285  0  -0.097682  -0.285147  0  1.949604  0
O  O61  1  0.15418186  0.66774340  0.20299650  1  -0.405668  0  -0.111583  -0.297043  0  1.883125  0
F  F62  1  0.23285803  0.49948366  0.50042556  1  -0.839215  0  -0.19349  -0.488513  0  1.450762  0
F  F63  1  0.76718698  0.50056538  0.49952045  1  -0.838673  0  -0.193484  -0.488376  0  1.450609  0
F  F64  1  0.00133323  0.58571355  0.41432552  1  -0.819674  0  -0.236076  -0.532361  0  1.1162  0
F  F65  1  0.99904005  0.41442581  0.58567896  1  -0.819573  0  -0.236035  -0.532233  0  1.116773  0
F  F66  1  0.99995891  0.58548472  0.58586831  1  -0.818879  0  -0.236423  -0.532448  0  1.116836  0
F  F67  1  0.99981254  0.41460819  0.41408554  1  -0.820732  0  -0.236603  -0.532452  0  1.115634  0
