# generated using pymatgen
data_ZnH42C40N3O8
_symmetry_space_group_name_H-M   'P 1'
_cell_length_a   15.12726815
_cell_length_b   16.24281887
_cell_length_c   16.89328228
_cell_angle_alpha   86.99019310
_cell_angle_beta   88.55038000
_cell_angle_gamma   89.37876655
_symmetry_Int_Tables_number   1
_chemical_formula_structural   ZnH42C40N3O8
_chemical_formula_sum   'Zn2 H84 C80 N6 O16'
_cell_volume   4143.59891527
_cell_formula_units_Z   2
loop_
 _symmetry_equiv_pos_site_id
 _symmetry_equiv_pos_as_xyz
  1  'x, y, z'
loop_
 _atom_site_type_symbol
 _atom_site_label
 _atom_site_symmetry_multiplicity
 _atom_site_fract_x
 _atom_site_fract_y
 _atom_site_fract_z
 _atom_site_occupancy
 _atom_site_pbe_bader_charge
 _atom_site_pbe_bader_spin_density
 _atom_site_pbe_cm5_charge
 _atom_site_pbe_ddec_charge
 _atom_site_pbe_ddec_spin_density
 _atom_site_pbe_ddec_sum_bond_order
 _atom_site_pbe_magmom
Zn  Zn0  1  0.49850620  0.59032597  0.50663631  1  1.304518  0  0.682414  0.8568  0  2.35486  0
Zn  Zn1  1  0.50669676  0.40389018  0.49572227  1  1.301708  0  0.678189  0.852357  0  2.298285  0
H  H2  1  0.07442087  0.61474722  0.31939053  1  0.120537  0  0.111026  0.113333  0  1.016829  0
H  H3  1  0.92197888  0.51112191  0.71515079  1  0.117021  0  0.110047  0.116357  0  1.014433  0
H  H4  1  0.45141550  0.56735725  0.91047615  1  0.136516  0  0.115008  0.121244  0  1.004668  0
H  H5  1  0.46397590  0.42143857  0.10072176  1  0.119811  0  0.115389  0.12173  0  1.006412  0
H  H6  1  0.60929152  0.62943072  0.25719554  1  0.11559  0  0.10682  0.118259  0  1.034566  0
H  H7  1  0.58571426  0.36394053  0.73311275  1  0.102129  0  0.11152  0.122923  0  0.988248  0
H  H8  1  0.28911182  0.33029334  0.75272064  1  0.066102  0  0.080894  0.115215  0  1.03582  0
H  H9  1  0.18947698  0.37477371  0.79102449  1  0.051393  0  0.084333  0.117719  0  1.008092  0
H  H10  1  0.19053855  0.27238963  0.75921560  1  0.016491  0  0.08502  0.113757  0  0.998696  0
H  H11  1  0.12037742  0.37102983  0.65916521  1  -0.002852  0  0.086667  0.076259  0  1.000535  0
H  H12  1  0.21451422  0.32391238  0.61801867  1  0.013369  0  0.082522  0.06784  0  0.993084  0
H  H13  1  0.30325874  0.44615056  0.62723743  1  0.02484  0  0.090981  0.093974  0  1.024004  0
H  H14  1  0.22874848  0.48913111  0.69397742  1  0.00742  0  0.090733  0.081246  0  1.045554  0
H  H15  1  0.72329732  0.47429278  0.21360246  1  0.034441  0  0.077365  0.100901  0  1.054847  0
H  H16  1  0.82218408  0.53168238  0.20149063  1  0.072172  0  0.084407  0.115743  0  1.014234  0
H  H17  1  0.82357151  0.42429049  0.18659449  1  0.023533  0  0.088163  0.117773  0  0.995481  0
H  H18  1  0.88695710  0.45796714  0.31829977  1  0.013034  0  0.086763  0.075996  0  1.004157  0
H  H19  1  0.79543393  0.39243312  0.33123594  1  0.022049  0  0.088118  0.079067  0  0.982541  0
H  H20  1  0.69966080  0.49762121  0.37552138  1  0.009996  0  0.091975  0.097784  0  1.010167  0
H  H21  1  0.76269620  0.57742339  0.33117999  1  0.063135  0  0.091385  0.087115  0  1.041985  0
H  H22  1  0.67666282  0.00436709  0.25669450  1  0.063931  0  0.086467  0.117066  0  1.014638  0
H  H23  1  0.71091718  0.90824871  0.22066067  1  0.040386  0  0.092929  0.126055  0  0.990336  0
H  H24  1  0.61590300  0.95907923  0.18152118  1  0.038687  0  0.088999  0.11618  0  1.003002  0
H  H25  1  0.57394275  0.84079766  0.27842103  1  0.038467  0  0.089765  0.079919  0  0.995967  0
H  H26  1  0.53379731  0.93597907  0.31063940  1  0.001202  0  0.080371  0.060559  0  0.997675  0
H  H27  1  0.66746148  0.94333315  0.39835615  1  0.07129  0  0.098541  0.099851  0  1.023677  0
H  H28  1  0.70259378  0.84623831  0.36516746  1  0.091694  0  0.105321  0.119435  0  0.988974  0
H  H29  1  0.22069530  0.98188701  0.59880726  1  0.022816  0  0.083331  0.106082  0  1.012834  0
H  H30  1  0.17060076  0.07746286  0.62120154  1  0.039904  0  0.089501  0.116528  0  0.994712  0
H  H31  1  0.14512016  0.03057259  0.53206313  1  0.030677  0  0.091519  0.119309  0  0.994685  0
H  H32  1  0.25127469  0.14641868  0.50233754  1  0.01205  0  0.089722  0.079818  0  0.970982  0
H  H33  1  0.30156181  0.05123783  0.48134785  1  0.026906  0  0.084277  0.068058  0  1.003068  0
H  H34  1  0.37289182  0.04674384  0.61577755  1  0.051631  0  0.097808  0.102132  0  1.01103  0
H  H35  1  0.32431799  0.14254846  0.63427991  1  0.068565  0  0.103117  0.114075  0  0.996338  0
H  H36  1  0.57708357  0.05125335  0.35914925  1  0.0741  0  0.104344  0.029801  0  1.017141  0
H  H37  1  0.38810284  0.87721311  0.65302480  1  0.101674  0  0.115392  0.053963  0  0.969258  0
H  H38  1  0.64905884  0.36753479  0.24455912  1  0.025624  0  0.085159  0.115966  0  1.035319  0
H  H39  1  0.71251183  0.27519011  0.24111654  1  0.037007  0  0.088308  0.115188  0  0.996658  0
H  H40  1  0.62164808  0.29252161  0.17712949  1  0.019887  0  0.090478  0.121101  0  0.995359  0
H  H41  1  0.57968929  0.19395643  0.29022272  1  -0.022379  0  0.084672  0.068985  0  1.00422  0
H  H42  1  0.51578532  0.28454830  0.29300649  1  0.045036  0  0.087999  0.083442  0  1.011414  0
H  H43  1  0.61484046  0.33973040  0.39435598  1  0.072784  0  0.100483  0.121294  0  1.036075  0
H  H44  1  0.68112153  0.24979989  0.39175030  1  0.074612  0  0.106835  0.126872  0  0.973674  0
H  H45  1  0.22863718  0.64926720  0.60376078  1  0.047813  0  0.082275  0.1103  0  1.049988  0
H  H46  1  0.23107466  0.72230986  0.67861234  1  0.055329  0  0.086846  0.11605  0  1.004895  0
H  H47  1  0.16253957  0.73974483  0.59502522  1  0.044453  0  0.089149  0.118582  0  0.992935  0
H  H48  1  0.29644591  0.82652240  0.57364389  1  0.026546  0  0.081698  0.056365  0  1.017484  0
H  H49  1  0.30014663  0.74766617  0.50563776  1  0.021716  0  0.092645  0.08874  0  0.966865  0
H  H50  1  0.39654243  0.66193360  0.59824862  1  0.098011  0  0.103638  0.123208  0  1.043924  0
H  H51  1  0.39832765  0.74232097  0.66321302  1  0.071245  0  0.104364  0.12061  0  0.982218  0
H  H52  1  0.20514637  0.58553810  0.18596232  1  0.028006  0  0.086727  0.11414  0  0.99859  0
H  H53  1  0.31236571  0.54539566  0.20502535  1  0.005297  0  0.078071  0.102363  0  1.031676  0
H  H54  1  0.23236640  0.48253307  0.16328426  1  0.05577  0  0.090762  0.123877  0  0.991636  0
H  H55  1  0.23926099  0.43977295  0.30647971  1  0.017714  0  0.086925  0.076659  0  0.996346  0
H  H56  1  0.13797227  0.49035417  0.28934973  1  0.011426  0  0.088521  0.081089  0  0.995172  0
H  H57  1  0.21247590  0.62439688  0.32939424  1  0.022708  0  0.095782  0.095772  0  0.977936  0
H  H58  1  0.30337890  0.56389806  0.35926506  1  0.025773  0  0.091419  0.096561  0  1.004904  0
H  H59  1  0.63483716  0.56588831  0.77687678  1  0.01304  0  0.077074  0.104979  0  1.064264  0
H  H60  1  0.73997181  0.55787716  0.82110602  1  0.03268  0  0.083535  0.110345  0  1.000071  0
H  H61  1  0.69350875  0.65625500  0.79552113  1  0.024133  0  0.086255  0.113623  0  0.998059  0
H  H62  1  0.80955963  0.62278584  0.69441326  1  0.008214  0  0.08549  0.071618  0  0.988968  0
H  H63  1  0.70502648  0.62622165  0.65037846  1  0.044005  0  0.085317  0.081518  0  0.984254  0
H  H64  1  0.69621868  0.47407780  0.65886645  1  0.039664  0  0.092547  0.09798  0  1.002095  0
H  H65  1  0.79517232  0.46593982  0.71108436  1  0.004578  0  0.094853  0.094289  0  0.986409  0
H  H66  1  0.84354317  0.67016907  0.33025413  1  0.072967  0  0.097362  0.033373  0  0.999234  0
H  H67  1  0.14529466  0.57062979  0.72962231  1  0.064873  0  0.100667  0.034897  0  0.978613  0
H  H68  1  0.35252254  0.56964002  0.71254909  1  0.079228  0  0.099708  0.035536  0  1.00945  0
H  H69  1  0.38844831  0.42080145  0.31224015  1  0.078156  0  0.102189  0.044277  0  0.997295  0
H  H70  1  0.74946835  0.79746195  0.09446929  1  0.039085  0  0.087736  0.113996  0  1.001467  0
H  H71  1  0.69493099  0.78975476  0.00337375  1  0.029072  0  0.086787  0.113394  0  0.999557  0
H  H72  1  0.65942707  0.86450966  0.07050147  1  0.008639  0  0.08491  0.10757  0  1.019793  0
H  H73  1  0.55502983  0.74533689  0.07949968  1  0.024934  0  0.08963  0.078375  0  0.971135  0
H  H74  1  0.61075842  0.75178522  0.16951474  1  -0.000414  0  0.086684  0.074572  0  1.001432  0
H  H75  1  0.71930644  0.64345141  0.12642301  1  0.046286  0  0.102885  0.11008  0  0.964513  0
H  H76  1  0.66259477  0.63655226  0.03688793  1  0.073976  0  0.096129  0.093327  0  1.004441  0
H  H77  1  0.70995888  0.17944561  0.91137523  1  0.017855  0  0.084674  0.108595  0  1.004761  0
H  H78  1  0.70983304  0.22932010  0.00236180  1  0.025691  0  0.085005  0.109668  0  1.005286  0
H  H79  1  0.63462351  0.14825164  0.98915629  1  0.020232  0  0.086891  0.11252  0  1.002535  0
H  H80  1  0.55648559  0.28597055  0.97594622  1  0.039865  0  0.08827  0.075253  0  0.994769  0
H  H81  1  0.55551309  0.23592656  0.88561537  1  0.007637  0  0.090584  0.081737  0  0.96855  0
H  H82  1  0.68572799  0.31929400  0.83535093  1  0.019276  0  0.095863  0.094597  0  0.974046  0
H  H83  1  0.68785759  0.36813212  0.92643856  1  0.059367  0  0.097383  0.096435  0  0.982167  0
H  H84  1  0.65418924  0.64286261  0.44369959  1  0.118923  0  0.112796  0.061499  0  1.056819  0
H  H85  1  0.36830951  0.34148723  0.58686267  1  0.148688  0  0.11058  0.058771  0  1.052378  0
C  C86  1  0.51731745  0.52044014  0.34914417  1  1.547925  0  0.221021  0.590453  0  4.175662  0
C  C87  1  0.49085671  0.47788415  0.65387554  1  1.542702  0  0.219514  0.589433  0  4.174391  0
C  C88  1  0.95072651  0.58825457  0.37439455  1  -0.094402  0  -0.024062  -0.035997  0  4.005957  0
C  C89  1  0.04610506  0.51512180  0.65567281  1  -0.039277  0  -0.023466  -0.035543  0  4.000192  0
C  C90  1  0.52364917  0.52474028  0.26068049  1  -0.02997  0  -0.005307  -0.049261  0  3.949915  0
C  C91  1  0.49868615  0.46817754  0.74178648  1  -0.036736  0  -0.00469  -0.051  0  3.947313  0
C  C92  1  0.48158740  0.46523554  0.21684979  1  -0.013913  0  -0.015904  -0.005028  0  3.999714  0
C  C93  1  0.45916724  0.52605526  0.79164012  1  0.002138  0  -0.014542  0.002816  0  3.99104  0
C  C94  1  0.49788984  0.46552490  0.13544363  1  -0.010363  0  -0.065857  -0.151224  0  3.921638  0
C  C95  1  0.48195280  0.52368339  0.87105969  1  -0.052085  0  -0.06564  -0.152635  0  3.918358  0
C  C96  1  0.55333310  0.52455606  0.09726050  1  0.364926  0  0.094324  0.10952  0  4.02586  0
C  C97  1  0.54177085  0.46428036  0.90132716  1  0.390994  0  0.097016  0.116066  0  4.020175  0
C  C98  1  0.59329345  0.58629608  0.13988739  1  -0.01212  0  0.019029  0.09401  0  3.887751  0
C  C99  1  0.57900818  0.40375417  0.85299976  1  0.0281  0  0.017977  0.088316  0  3.898558  0
C  C100  1  0.57712960  0.58462497  0.22192530  1  -0.033535  0  -0.079351  -0.151088  0  3.930812  0
C  C101  1  0.55588084  0.40732775  0.77331583  1  -0.080976  0  -0.076003  -0.143299  0  3.935091  0
C  C102  1  0.44202346  0.23195297  0.54413832  1  0.454133  0  0.121295  0.126687  0  3.895578  0
C  C103  1  0.57727358  0.75723163  0.45117535  1  0.471333  0  0.121743  0.132009  0  3.878478  0
C  C104  1  0.42631384  0.14709267  0.54330984  1  0.048787  0  0.027023  0.03314  0  3.863802  0
C  C105  1  0.58706717  0.84319345  0.44109573  1  0.011699  0  0.026161  0.029919  0  3.85337  0
C  C106  1  0.48536866  0.10285878  0.49533160  1  0.315316  0  0.11785  0.120433  0  3.983921  0
C  C107  1  0.53816756  0.89067070  0.49482018  1  0.338067  0  0.124383  0.130965  0  3.980618  0
C  C108  1  0.67282793  0.48956062  0.51464791  1  1.577184  0  0.221028  0.611049  0  4.179635  0
C  C109  1  0.32896912  0.50433161  0.49324883  1  1.564507  0  0.220454  0.612477  0  4.16818  0
C  C110  1  0.55134872  0.14297331  0.44830993  1  0.066794  0  0.006447  -0.110757  0  3.884692  0
C  C111  1  0.48374190  0.85258298  0.55443611  1  0.031489  0  0.001475  -0.125938  0  3.902586  0
C  C112  1  0.55404898  0.23004464  0.44505467  1  0.485345  0  0.14907  0.281781  0  3.858746  0
C  C113  1  0.46809153  0.76721908  0.55196058  1  0.51874  0  0.14661  0.27241  0  3.891372  0
C  C114  1  0.18589494  0.49681554  0.57249466  1  0.010662  0  0.000178  0.063014  0  3.906631  0
C  C115  1  0.81379378  0.52668337  0.44196566  1  0.04243  0  -0.000221  0.065381  0  3.90174  0
C  C116  1  0.22936517  0.51225283  0.49830162  1  -0.081321  0  -0.014618  -0.133369  0  3.917832  0
C  C117  1  0.77054211  0.50577181  0.51501836  1  -0.002136  0  -0.015596  -0.135827  0  3.943957  0
C  C118  1  0.18491107  0.54391829  0.43112217  1  -0.018071  0  0.003063  0.073752  0  3.900696  0
C  C119  1  0.81236790  0.50733945  0.58803631  1  -0.066656  0  0.002379  0.070919  0  3.915056  0
C  C120  1  0.09202767  0.55427867  0.43697456  1  0.070798  0  -0.011443  0.010936  0  4.019851  0
C  C121  1  0.90523047  0.51719277  0.58678487  1  0.011575  0  -0.011968  0.012213  0  4.032097  0
C  C122  1  0.04609616  0.53760740  0.51091767  1  -0.037702  0  0.004221  0.012527  0  3.948274  0
C  C123  1  0.95145054  0.53682011  0.51354543  1  -0.020946  0  0.002655  0.009181  0  3.949554  0
C  C124  1  0.09487998  0.51755109  0.58058404  1  0.020056  0  -0.005266  -0.0169  0  3.974463  0
C  C125  1  0.90305657  0.55198699  0.44279448  1  -0.032686  0  -0.00686  -0.018149  0  3.982049  0
C  C126  1  0.04156442  0.58642830  0.37201872  1  -0.035667  0  -0.069193  -0.124945  0  3.941713  0
C  C127  1  0.95523267  0.51289969  0.65712683  1  -0.073477  0  -0.070673  -0.130631  0  3.944863  0
C  C128  1  0.23232399  0.45274985  0.64094193  1  -0.006696  0  -0.165427  -0.211291  0  3.951256  0
C  C129  1  0.19276754  0.36704607  0.66301350  1  0.029236  0  -0.165751  -0.081277  0  3.939566  0
C  C130  1  0.21718368  0.33446105  0.74615569  1  -0.104654  0  -0.252089  -0.364569  0  3.967624  0
C  C131  1  0.76816108  0.51754186  0.36429761  1  -0.02164  0  -0.165619  -0.204864  0  3.921839  0
C  C132  1  0.81508256  0.45523838  0.31083580  1  0.011986  0  -0.16513  -0.08487  0  3.932015  0
C  C133  1  0.79479717  0.47206715  0.22335904  1  -0.130782  0  -0.248783  -0.360418  0  3.967917  0
C  C134  1  0.64434793  0.88465982  0.37742668  1  -0.017318  0  -0.163173  -0.212875  0  3.956942  0
C  C135  1  0.59495377  0.90040871  0.29926143  1  -0.006696  0  -0.16199  -0.081457  0  3.954763  0
C  C136  1  0.65266464  0.94572111  0.23602277  1  -0.111374  0  -0.242723  -0.358251  0  3.953197  0
C  C137  1  0.34996314  0.10485577  0.58688720  1  -0.002577  0  -0.160639  -0.209898  0  3.956543  0
C  C138  1  0.27505699  0.08756338  0.52991861  1  0.013003  0  -0.163282  -0.088928  0  3.962556  0
C  C139  1  0.19861843  0.04191959  0.57276922  1  -0.085351  0  -0.240462  -0.346952  0  3.970345  0
C  C140  1  0.61187850  0.09417421  0.39700907  1  0.936937  0  0.099272  0.263276  0  4.052673  0
C  C141  1  0.45302419  0.89616992  0.62618375  1  0.947133  0  0.109625  0.282882  0  3.9646  0
C  C142  1  0.61340577  0.27379764  0.38460811  1  -0.004522  0  -0.165019  -0.262001  0  3.927364  0
C  C143  1  0.58336482  0.26043088  0.29975508  1  0.019223  0  -0.163307  -0.076541  0  3.939061  0
C  C144  1  0.64516456  0.30101913  0.23711423  1  -0.055307  0  -0.243919  -0.353665  0  3.952167  0
C  C145  1  0.39324929  0.72903418  0.60028514  1  -0.040704  0  -0.164367  -0.265321  0  3.924244  0
C  C146  1  0.30283254  0.75920431  0.56916290  1  -0.02312  0  -0.160394  -0.072628  0  3.945442  0
C  C147  1  0.22690297  0.71536132  0.61442084  1  -0.106831  0  -0.24617  -0.355366  0  3.950417  0
C  C148  1  0.23146245  0.56197297  0.35222749  1  0.010912  0  -0.162354  -0.200453  0  3.955993  0
C  C149  1  0.20981968  0.50018760  0.28939957  1  0.014561  0  -0.166442  -0.097397  0  3.957353  0
C  C150  1  0.24173209  0.52981422  0.20638129  1  -0.080419  0  -0.246298  -0.354962  0  3.974435  0
C  C151  1  0.76042125  0.50369620  0.66541050  1  0.003935  0  -0.161359  -0.199302  0  3.944906  0
C  C152  1  0.74531697  0.59149773  0.69432690  1  -0.009411  0  -0.164921  -0.082622  0  3.941137  0
C  C153  1  0.70100199  0.59285964  0.77639353  1  -0.060148  0  -0.248764  -0.352982  0  3.969259  0
C  C154  1  0.90726202  0.64079297  0.31191341  1  0.910572  0  0.092482  0.273363  0  3.979252  0
C  C155  1  0.08627048  0.52981450  0.73297197  1  0.937136  0  0.094803  0.274301  0  3.986753  0
C  C156  1  0.39100321  0.58679299  0.76416299  1  0.944611  0  0.097297  0.285385  0  3.951974  0
C  C157  1  0.41441416  0.40727914  0.25226516  1  0.936163  0  0.096045  0.274511  0  3.966367  0
C  C158  1  0.65355280  0.64963631  0.09975381  1  -0.030296  0  -0.156019  -0.200919  0  3.945392  0
C  C159  1  0.62041315  0.73888531  0.10650927  1  0.010062  0  -0.160928  -0.081272  0  3.94919  0
C  C160  1  0.68452356  0.80111205  0.06655748  1  -0.051449  0  -0.24341  -0.356479  0  3.981581  0
C  C161  1  0.64376733  0.34010076  0.88481332  1  -0.002425  0  -0.156256  -0.197895  0  3.966986  0
C  C162  1  0.59911984  0.26471420  0.92724199  1  0.02034  0  -0.16212  -0.086622  0  3.952983  0
C  C163  1  0.66701676  0.20198043  0.95928250  1  -0.068903  0  -0.242888  -0.352167  0  3.987707  0
C  C164  1  0.63883752  0.70048659  0.40878031  1  0.970365  0  0.108353  0.254969  0  3.896015  0
C  C165  1  0.39759892  0.28154452  0.60685311  1  0.942444  0  0.110574  0.254381  0  3.899642  0
N  N166  1  0.56025447  0.52883231  0.01392530  1  -0.477052  0  -0.131561  -0.102423  0  3.279943  0
N  N167  1  0.55893574  0.45953455  0.98297594  1  -0.485951  0  -0.132138  -0.104024  0  3.270393  0
N  N168  1  0.49989122  0.27283482  0.49345157  1  -1.216974  0  -0.291795  -0.27676  0  3.387467  0
N  N169  1  0.51761013  0.72059422  0.50353603  1  -1.206611  0  -0.297017  -0.283383  0  3.395039  0
N  N170  1  0.47560274  0.01642903  0.49853139  1  -0.410273  0  -0.105223  -0.068537  0  3.241328  0
N  N171  1  0.54668323  0.97693337  0.48814766  1  -0.45789  0  -0.096432  -0.047539  0  3.268972  0
O  O172  1  0.51744621  0.58738370  0.38485534  1  -1.166544  0  -0.307869  -0.544866  0  2.355597  0
O  O173  1  0.50391191  0.41386058  0.61439900  1  -1.170264  0  -0.310387  -0.550481  0  2.405965  0
O  O174  1  0.51432030  0.44781460  0.38189932  1  -1.17181  0  -0.304969  -0.546327  0  2.419016  0
O  O175  1  0.47544309  0.55042608  0.62504411  1  -1.163574  0  -0.304983  -0.543203  0  2.369254  0
O  O176  1  0.62497115  0.55303201  0.52753009  1  -1.18373  0  -0.316458  -0.565928  0  2.410458  0
O  O177  1  0.36593690  0.43385362  0.49107189  1  -1.183885  0  -0.314307  -0.563154  0  2.293932  0
O  O178  1  0.64509877  0.41857233  0.50124396  1  -1.161922  0  -0.305567  -0.525763  0  2.278057  0
O  O179  1  0.36806968  0.57362724  0.49216421  1  -1.159099  0  -0.311151  -0.536933  0  2.347524  0
O  O180  1  0.69212771  0.10207884  0.39195782  1  -1.044947  0  -0.256823  -0.341742  0  2.127118  0
O  O181  1  0.49914576  0.94566156  0.65775022  1  -1.063347  0  -0.251252  -0.330341  0  2.098042  0
O  O182  1  0.93935906  0.65710642  0.24550057  1  -1.087801  0  -0.283524  -0.376572  0  2.082009  0
O  O183  1  0.05518002  0.50583632  0.79776343  1  -1.082186  0  -0.27993  -0.371107  0  2.086374  0
O  O184  1  0.37428587  0.65099123  0.79704621  1  -1.089802  0  -0.276944  -0.372481  0  2.088778  0
O  O185  1  0.38604231  0.34883189  0.21764392  1  -1.087224  0  -0.275824  -0.369932  0  2.091916  0
O  O186  1  0.67432409  0.71721579  0.34391308  1  -1.086155  0  -0.235316  -0.329978  0  2.196834  0
O  O187  1  0.39534893  0.25518474  0.67592986  1  -1.056572  0  -0.228933  -0.30738  0  2.142268  0
