# generated using pymatgen
data_Cu2H10C13S2(IBr)2
_symmetry_space_group_name_H-M   'P 1'
_cell_length_a   12.22198879
_cell_length_b   12.26073215
_cell_length_c   14.77180000
_cell_angle_alpha   98.87542054
_cell_angle_beta   110.80119194
_cell_angle_gamma   113.24326177
_symmetry_Int_Tables_number   1
_chemical_formula_structural   Cu2H10C13S2(IBr)2
_chemical_formula_sum   'Cu8 H40 C52 S8 I8 Br8'
_cell_volume   1786.13792870
_cell_formula_units_Z   4
loop_
 _symmetry_equiv_pos_site_id
 _symmetry_equiv_pos_as_xyz
  1  'x, y, z'
loop_
 _atom_site_type_symbol
 _atom_site_label
 _atom_site_symmetry_multiplicity
 _atom_site_fract_x
 _atom_site_fract_y
 _atom_site_fract_z
 _atom_site_occupancy
 _atom_site_hle17_bader_spin_density
 _atom_site_hle17_ddec_charge
 _atom_site_hle17_ddec_spin_density
 _atom_site_hle17_ddec_sum_bond_order
 _atom_site_hle17_magmom
 _atom_site_hse06_10hf_bader_spin_density
 _atom_site_hse06_10hf_ddec_charge
 _atom_site_hse06_10hf_ddec_spin_density
 _atom_site_hse06_10hf_ddec_sum_bond_order
 _atom_site_hse06_10hf_magmom
 _atom_site_hse06_bader_spin_density
 _atom_site_hse06_ddec_charge
 _atom_site_hse06_ddec_spin_density
 _atom_site_hse06_ddec_sum_bond_order
 _atom_site_hse06_magmom
 _atom_site_pbe_bader_charge
 _atom_site_pbe_bader_spin_density
 _atom_site_pbe_cm5_charge
 _atom_site_pbe_ddec_charge
 _atom_site_pbe_ddec_spin_density
 _atom_site_pbe_ddec_sum_bond_order
 _atom_site_pbe_magmom
Cu  Cu0  1  0.24025860  0.86503847  0.27027041  1  0  0.129638  0  2.344255  0  0  0.077076  0  2.797977  0  0  0.088001  0  2.745039  0  0.325036  0  0.182576  0.070542  0  2.834471  0
Cu  Cu1  1  0.09439031  0.96937189  0.22953769  1  0  0.12939  0  2.346053  0  0  0.076826  0  2.799631  0  0  0.087875  0  2.746543  0  0.320409  0  0.182687  0.070136  0  2.836216  0
Cu  Cu2  1  0.75974961  0.13495869  0.72972872  1  0  0.129612  0  2.344346  0  0  0.077061  0  2.798058  0  0  0.087979  0  2.745123  0  0.325017  0  0.182618  0.070521  0  2.834544  0
Cu  Cu3  1  0.90561430  0.03062338  0.77046759  1  0  0.129411  0  2.346078  0  0  0.07686  0  2.799653  0  0  0.087925  0  2.746561  0  0.320669  0  0.182691  0.070187  0  2.836217  0
Cu  Cu4  1  0.34845566  0.11769814  0.34661622  1  0  0.122721  0  2.350538  0  0  0.073268  0  2.794411  0  0  0.083259  0  2.744015  0  0.319354  0  0.186912  0.068003  0  2.827964  0
Cu  Cu5  1  0.27098693  0.00167909  0.15285643  1  0  0.12356  0  2.34319  0  0  0.073265  0  2.787834  0  0  0.083154  0  2.73768  0  0.323187  0  0.186497  0.068043  0  2.821241  0
Cu  Cu6  1  0.65154750  0.88230280  0.65339072  1  0  0.122739  0  2.350502  0  0  0.073293  0  2.794376  0  0  0.083275  0  2.743981  0  0.319383  0  0.186912  0.068012  0  2.827934  0
Cu  Cu7  1  0.72901769  0.99832468  0.84714927  1  0  0.123544  0  2.343214  0  0  0.073248  0  2.787848  0  0  0.083127  0  2.737697  0  0.323205  0  0.186487  0.068044  0  2.821251  0
H  H8  1  0.52030254  0.11724836  0.55493104  1  0  0.115413  0  0.96779  0  0  0.127783  0  1.0359  0  0  0.129502  0  1.035491  0  0.133104  0  0.087038  0.125796  0  1.037561  0
H  H9  1  0.06111343  0.96562440  0.94334019  1  0  0.115086  0  0.969121  0  0  0.128201  0  1.036338  0  0  0.129918  0  1.035896  0  0.12305  0  0.08721  0.126247  0  1.037922  0
H  H10  1  0.47969799  0.88275257  0.44506971  1  0  0.115345  0  0.967795  0  0  0.127718  0  1.035908  0  0  0.129443  0  1.035498  0  0.133117  0  0.087026  0.125734  0  1.037569  0
H  H11  1  0.93889285  0.03437748  0.05666508  1  0  0.115091  0  0.969141  0  0  0.128223  0  1.03635  0  0  0.129944  0  1.035906  0  0.122923  0  0.08723  0.126268  0  1.037933  0
H  H12  1  0.64543812  0.19620923  0.51752463  1  0  0.113698  0  0.978544  0  0  0.124589  0  1.045536  0  0  0.126195  0  1.04576  0  0.111585  0  0.087991  0.123187  0  1.046051  0
H  H13  1  0.17975368  0.12823381  0.98258097  1  0  0.11376  0  0.977435  0  0  0.124865  0  1.044101  0  0  0.12644  0  1.044381  0  0.103965  0  0.088356  0.123477  0  1.044591  0
H  H14  1  0.35456193  0.80379076  0.48247450  1  0  0.113701  0  0.978525  0  0  0.124574  0  1.045527  0  0  0.126183  0  1.045753  0  0.111569  0  0.087992  0.123171  0  1.046042  0
H  H15  1  0.82025386  0.87176712  0.01742387  1  0  0.113732  0  0.977451  0  0  0.124838  0  1.044123  0  0  0.126415  0  1.044403  0  0.103975  0  0.088352  0.123449  0  1.044612  0
H  H16  1  0.64475806  0.54312303  0.62231236  1  0  0.092463  0  0.97542  0  0  0.097972  0  1.048979  0  0  0.101061  0  1.047329  0  0.096568  0  0.086808  0.095362  0  1.050535  0
H  H17  1  0.41998566  0.02134159  0.87771608  1  0  0.09194  0  0.976436  0  0  0.09713  0  1.050864  0  0  0.100142  0  1.049247  0  0.094097  0  0.086108  0.094561  0  1.052393  0
H  H18  1  0.35524473  0.45688735  0.37769027  1  0  0.092445  0  0.97532  0  0  0.097966  0  1.0489  0  0  0.101055  0  1.047247  0  0.09632  0  0.086812  0.09535  0  1.050464  0
H  H19  1  0.58001467  0.97865557  0.12228819  1  0  0.091926  0  0.976493  0  0  0.097118  0  1.050926  0  0  0.10013  0  1.049306  0  0.094185  0  0.086112  0.094539  0  1.052464  0
H  H20  1  0.58891914  0.30043683  0.34628833  1  0  0.086093  0  0.999163  0  0  0.092292  0  1.073889  0  0  0.095319  0  1.071547  0  0.104168  0  0.081467  0.08952  0  1.076604  0
H  H21  1  0.45541265  0.24347426  0.15374922  1  0  0.086705  0  0.998349  0  0  0.093239  0  1.072272  0  0  0.096323  0  1.069914  0  0.106259  0  0.081993  0.090394  0  1.075042  0
H  H22  1  0.41107867  0.69956222  0.65371680  1  0  0.086095  0  0.999208  0  0  0.092327  0  1.073891  0  0  0.095354  0  1.071552  0  0.104156  0  0.081471  0.089551  0  1.076608  0
H  H23  1  0.54459159  0.75653046  0.84625378  1  0  0.086673  0  0.998317  0  0  0.093216  0  1.072237  0  0  0.096298  0  1.069882  0  0.106037  0  0.081969  0.09037  0  1.075007  0
H  H24  1  0.81032300  0.72844698  0.60703737  1  0  0.099365  0  0.972021  0  0  0.105076  0  1.044683  0  0  0.108359  0  1.042596  0  0.10803  0  0.087645  0.102106  0  1.04685  0
H  H25  1  0.62074291  0.20308152  0.89337687  1  0  0.099591  0  0.972873  0  0  0.10544  0  1.044976  0  0  0.108803  0  1.042826  0  0.106918  0  0.087356  0.102412  0  1.04719  0
H  H26  1  0.18967394  0.27156057  0.39295708  1  0  0.099413  0  0.971938  0  0  0.105085  0  1.044648  0  0  0.108377  0  1.042552  0  0.108234  0  0.087645  0.102086  0  1.046846  0
H  H27  1  0.37925267  0.79691658  0.10662070  1  0  0.099578  0  0.972887  0  0  0.105423  0  1.044996  0  0  0.108797  0  1.042836  0  0.1068  0  0.087352  0.102389  0  1.047215  0
H  H28  1  0.75220204  0.48636079  0.32970139  1  0  0.099608  0  0.968715  0  0  0.110483  0  1.030863  0  0  0.113441  0  1.029221  0  0.061608  0  0.09771  0.108238  0  1.032308  0
H  H29  1  0.65821626  0.42436094  0.17073469  1  0  0.100116  0  0.967399  0  0  0.111244  0  1.029072  0  0  0.114212  0  1.027414  0  0.074524  0  0.098098  0.10896  0  1.030588  0
H  H30  1  0.24779081  0.51363543  0.67029717  1  0  0.099603  0  0.968704  0  0  0.110487  0  1.030844  0  0  0.113442  0  1.029205  0  0.06155  0  0.097734  0.10824  0  1.032294  0
H  H31  1  0.34178146  0.57564473  0.82926177  1  0  0.100093  0  0.967453  0  0  0.111244  0  1.029104  0  0  0.114211  0  1.02745  0  0.074494  0  0.098096  0.108971  0  1.030591  0
H  H32  1  0.85969266  0.54604279  0.82840808  1  0  0.097629  0  0.957708  0  0  0.104112  0  1.026867  0  0  0.10757  0  1.024634  0  0.085188  0  0.08994  0.101086  0  1.029334  0
H  H33  1  0.21690099  0.03013770  0.67154625  1  0  0.098326  0  0.956895  0  0  0.104724  0  1.026231  0  0  0.108182  0  1.024026  0  0.094272  0  0.090047  0.101687  0  1.028644  0
H  H34  1  0.14030768  0.45395437  0.17159010  1  0  0.0976  0  0.957642  0  0  0.104096  0  1.02681  0  0  0.107552  0  1.024571  0  0.085145  0  0.089969  0.101077  0  1.02927  0
H  H35  1  0.78309760  0.96985946  0.32845277  1  0  0.09836  0  0.956872  0  0  0.104757  0  1.02621  0  0  0.108218  0  1.024001  0  0.094321  0  0.090065  0.101725  0  1.02862  0
H  H36  1  0.85675769  0.31200623  0.57540724  1  0  0.092687  0  0.974058  0  0  0.101113  0  1.042158  0  0  0.104303  0  1.039974  0  0.081736  0  0.090808  0.09881  0  1.043598  0
H  H37  1  0.23738668  0.28167577  0.92461365  1  0  0.092867  0  0.97409  0  0  0.101318  0  1.042191  0  0  0.104502  0  1.040039  0  0.075307  0  0.090844  0.099053  0  1.043535  0
H  H38  1  0.14324304  0.68798999  0.42459229  1  0  0.092747  0  0.974048  0  0  0.101162  0  1.042177  0  0  0.104352  0  1.039997  0  0.081805  0  0.090851  0.098873  0  1.04359  0
H  H39  1  0.76261463  0.71832328  0.07538505  1  0  0.092827  0  0.974046  0  0  0.101275  0  1.042158  0  0  0.104457  0  1.040002  0  0.075293  0  0.090831  0.099013  0  1.043505  0
H  H40  1  0.05291530  0.73203005  0.83869653  1  0  0.100976  0  0.964726  0  0  0.106879  0  1.035899  0  0  0.109755  0  1.034781  0  0.105269  0  0.089145  0.10416  0  1.037626  0
H  H41  1  0.39234456  0.21339136  0.66170800  1  0  0.101313  0  0.963201  0  0  0.107199  0  1.034199  0  0  0.110117  0  1.033047  0  0.096948  0  0.089078  0.104499  0  1.035867  0
H  H42  1  0.94708076  0.26796899  0.16129725  1  0  0.100968  0  0.964727  0  0  0.106845  0  1.035932  0  0  0.109721  0  1.034811  0  0.105204  0  0.089143  0.104133  0  1.037658  0
H  H43  1  0.60764916  0.78660485  0.33828676  1  0  0.10137  0  0.96309  0  0  0.107222  0  1.034144  0  0  0.110138  0  1.032992  0  0.096962  0  0.08911  0.104535  0  1.035785  0
H  H44  1  0.04149380  0.49833933  0.58118911  1  0  0.100884  0  0.970525  0  0  0.110414  0  1.035073  0  0  0.113203  0  1.033898  0  0.078675  0  0.097814  0.108298  0  1.036129  0
H  H45  1  0.41764961  0.46111958  0.91909518  1  0  0.100288  0  0.972972  0  0  0.110024  0  1.037379  0  0  0.112809  0  1.036235  0  0.105907  0  0.097926  0.107925  0  1.038424  0
H  H46  1  0.95849866  0.50165783  0.41880270  1  0  0.100873  0  0.970589  0  0  0.110399  0  1.03515  0  0  0.113188  0  1.033976  0  0.077531  0  0.097805  0.108294  0  1.03619  0
H  H47  1  0.58234606  0.53888042  0.08089861  1  0  0.100312  0  0.972971  0  0  0.110051  0  1.037355  0  0  0.112835  0  1.036211  0  0.105823  0  0.097947  0.107957  0  1.038399  0
C  C48  1  0.59308107  0.21038562  0.56118884  1  0  -0.215094  0  3.603112  0  0  -0.243671  0  3.862415  0  0  -0.24345  0  3.870076  0  -0.248539  0  -0.156186  -0.244264  0  3.857526  0
C  C49  1  0.14932556  0.03191695  0.93841452  1  0  -0.215556  0  3.603101  0  0  -0.24485  0  3.862676  0  0  -0.244513  0  3.870115  0  -0.231496  0  -0.157041  -0.245481  0  3.857859  0
C  C50  1  0.40691810  0.78961437  0.43881409  1  0  -0.215025  0  3.603017  0  0  -0.243567  0  3.862271  0  0  -0.243368  0  3.869963  0  -0.248366  0  -0.156183  -0.24416  0  3.857384  0
C  C51  1  0.85068149  0.96808304  0.06159074  1  0  -0.215569  0  3.603227  0  0  -0.2449  0  3.862841  0  0  -0.244569  0  3.87029  0  -0.231181  0  -0.157061  -0.245519  0  3.858007  0
C  C52  1  0.60786448  0.41019589  0.48600230  1  0  0.019251  0  3.739562  0  0  0.044948  0  3.983265  0  0  0.042753  0  4.008574  0  -0.153199  0  -0.020637  0.046129  0  3.965901  0
C  C53  1  0.42480085  0.12159492  0.01429966  1  0  0.020194  0  3.740844  0  0  0.045585  0  3.984982  0  0  0.043409  0  4.010231  0  -0.191638  0  -0.020708  0.046744  0  3.967709  0
C  C54  1  0.39213538  0.58980883  0.51400144  1  0  0.019231  0  3.739565  0  0  0.044973  0  3.983235  0  0  0.042777  0  4.008545  0  -0.153164  0  -0.020659  0.046151  0  3.965871  0
C  C55  1  0.57520406  0.87840602  0.98570508  1  0  0.020171  0  3.740671  0  0  0.045567  0  3.984823  0  0  0.043382  0  4.010079  0  -0.191133  0  -0.02071  0.04672  0  3.967549  0
C  C56  1  0.66861541  0.53073157  0.55832819  1  0  -0.074191  0  3.735404  0  0  -0.093088  0  3.978072  0  0  -0.094546  0  4.000784  0  0.00476  0  -0.089831  -0.091889  0  3.962723  0
C  C57  1  0.47224739  0.10972504  0.94191044  1  0  -0.074773  0  3.735609  0  0  -0.093489  0  3.978367  0  0  -0.094871  0  4.001105  0  0.000959  0  -0.089867  -0.092359  0  3.963102  0
C  C58  1  0.33138465  0.46927693  0.44167406  1  0  -0.074105  0  3.735374  0  0  -0.093021  0  3.977956  0  0  -0.094477  0  4.00067  0  0.00518  0  -0.089788  -0.091819  0  3.962609  0
C  C59  1  0.52775168  0.89027306  0.05809359  1  0  -0.074655  0  3.735438  0  0  -0.093341  0  3.9781  0  0  -0.094723  0  4.00084  0  0.000361  0  -0.08984  -0.092216  0  3.962842  0
C  C60  1  0.63673798  0.39411646  0.40301203  1  0  -0.086042  0  3.756499  0  0  -0.107918  0  4.005295  0  0  -0.10871  0  4.026467  0  -0.025425  0  -0.09698  -0.107338  0  3.99177  0
C  C61  1  0.49219490  0.23436066  0.09725969  1  0  -0.087703  0  3.759746  0  0  -0.109573  0  4.008571  0  0  -0.110435  0  4.029652  0  -0.006451  0  -0.097186  -0.108982  0  3.995223  0
C  C62  1  0.36325954  0.60588542  0.59699202  1  0  -0.086047  0  3.75659  0  0  -0.107982  0  4.005403  0  0  -0.10876  0  4.026538  0  -0.025608  0  -0.096967  -0.107394  0  3.991879  0
C  C63  1  0.50780700  0.76564122  0.90274293  1  0  -0.087739  0  3.759605  0  0  -0.109612  0  4.008427  0  0  -0.11047  0  4.029508  0  -0.006155  0  -0.097198  -0.109025  0  3.995079  0
C  C64  1  0.84443745  0.41778535  0.70054802  1  0  0.024989  0  3.75256  0  0  0.048267  0  3.999392  0  0  0.047405  0  4.023467  0  -0.1841  0  -0.018625  0.048668  0  3.984134  0
C  C65  1  0.21764368  0.14342692  0.79974450  1  0  0.027135  0  3.745762  0  0  0.050293  0  3.993049  0  0  0.049536  0  4.017068  0  -0.204036  0  -0.017661  0.050606  0  3.97782  0
C  C66  1  0.15556425  0.58221275  0.29945136  1  0  0.025019  0  3.75253  0  0  0.048287  0  3.999374  0  0  0.047423  0  4.023445  0  -0.183901  0  -0.018613  0.048687  0  3.984129  0
C  C67  1  0.78236065  0.85657118  0.20025700  1  0  0.027178  0  3.745759  0  0  0.050322  0  3.993057  0  0  0.04956  0  4.017077  0  -0.203733  0  -0.017633  0.050634  0  3.977836  0
C  C68  1  0.76140357  0.63497522  0.54979080  1  0  -0.109879  0  3.750584  0  0  -0.127638  0  3.996355  0  0  -0.131625  0  4.018896  0  -0.029246  0  -0.100736  -0.125181  0  3.981718  0
C  C69  1  0.58504993  0.21159038  0.95060929  1  0  -0.10992  0  3.751421  0  0  -0.127259  0  3.996668  0  0  -0.131358  0  4.019253  0  0.012841  0  -0.100546  -0.124756  0  3.982044  0
C  C70  1  0.23859152  0.36503044  0.45020625  1  0  -0.109954  0  3.750532  0  0  -0.127706  0  3.99628  0  0  -0.131701  0  4.018815  0  -0.029592  0  -0.100749  -0.12523  0  3.981674  0
C  C71  1  0.41494837  0.78840962  0.04939068  1  0  -0.109913  0  3.751431  0  0  -0.127267  0  3.996715  0  0  -0.131371  0  4.019295  0  0.012879  0  -0.100532  -0.124766  0  3.9821  0
C  C72  1  0.72865792  0.49815318  0.39372592  1  0  -0.121681  0  3.776706  0  0  -0.142444  0  4.0278  0  0  -0.145867  0  4.048547  0  0.049266  0  -0.102742  -0.140227  0  4.014023  0
C  C73  1  0.60554906  0.33609749  0.10670058  1  0  -0.122208  0  3.778904  0  0  -0.14281  0  4.029758  0  0  -0.146231  0  4.0505  0  -0.012332  0  -0.103188  -0.14059  0  4.01597  0
C  C74  1  0.27133687  0.50184681  0.60627302  1  0  -0.121604  0  3.776775  0  0  -0.142396  0  4.027876  0  0  -0.14581  0  4.04862  0  0.049002  0  -0.102753  -0.140175  0  4.014091  0
C  C75  1  0.39444846  0.66390439  0.89329873  1  0  -0.122195  0  3.779084  0  0  -0.142825  0  4.029927  0  0  -0.146245  0  4.050673  0  -0.012518  0  -0.103185  -0.140601  0  4.016136  0
C  C76  1  0.90053209  0.53568475  0.77487523  1  0  -0.089206  0  3.748405  0  0  -0.109335  0  3.996642  0  0  -0.110711  0  4.017074  0  -0.024294  0  -0.09406  -0.108782  0  3.984573  0
C  C77  1  0.26050180  0.12484161  0.72534003  1  0  -0.090772  0  3.746396  0  0  -0.111037  0  3.994686  0  0  -0.112432  0  4.015035  0  -0.002518  0  -0.094601  -0.11042  0  3.982594  0
C  C78  1  0.09946650  0.46431240  0.22512175  1  0  -0.089215  0  3.748308  0  0  -0.109349  0  3.996551  0  0  -0.110715  0  4.016972  0  -0.024332  0  -0.094101  -0.108793  0  3.984489  0
C  C79  1  0.73949854  0.87515555  0.27465950  1  0  -0.090919  0  3.746498  0  0  -0.111166  0  3.994762  0  0  -0.112553  0  4.015094  0  -0.002651  0  -0.094642  -0.110549  0  3.982668  0
C  C80  1  0.89663891  0.40377054  0.63185100  1  0  -0.082074  0  3.747692  0  0  -0.099724  0  3.988689  0  0  -0.10145  0  4.010498  0  0.021869  0  -0.090488  -0.099199  0  3.974958  0
C  C81  1  0.27257223  0.26489522  0.86839603  1  0  -0.081373  0  3.74285  0  0  -0.099044  0  3.984109  0  0  -0.100843  0  4.005934  0  0.043312  0  -0.090529  -0.098448  0  3.970354  0
C  C82  1  0.10336065  0.59622851  0.36814652  1  0  -0.082176  0  3.747695  0  0  -0.099822  0  3.988676  0  0  -0.101544  0  4.010481  0  0.021869  0  -0.09054  -0.099291  0  3.974964  0
C  C83  1  0.72742909  0.73510383  0.13160336  1  0  -0.081289  0  3.742707  0  0  -0.098992  0  3.984056  0  0  -0.100782  0  4.005874  0  0.043345  0  -0.090533  -0.098391  0  3.970305  0
C  C84  1  0.79118485  0.61738112  0.46763691  1  0  0.101755  0  3.703009  0  0  0.117343  0  3.964848  0  0  0.121452  0  3.986473  0  -0.16856  0  -0.015818  0.114702  0  3.949801  0
C  C85  1  0.65030478  0.32428808  0.03289008  1  0  0.102556  0  3.703948  0  0  0.117512  0  3.966552  0  0  0.121596  0  3.988252  0  -0.129933  0  -0.015667  0.114894  0  3.95144  0
C  C86  1  0.20881092  0.38262076  0.53235918  1  0  0.101711  0  3.70306  0  0  0.117366  0  3.964798  0  0  0.121471  0  3.98642  0  -0.167819  0  -0.015841  0.114723  0  3.949747  0
C  C87  1  0.34969225  0.67571285  0.96710693  1  0  0.102556  0  3.704077  0  0  0.117513  0  3.966684  0  0  0.121594  0  3.988386  0  -0.129724  0  -0.015695  0.11489  0  3.951575  0
C  C88  1  0.00821402  0.64051330  0.78023254  1  0  -0.107692  0  3.759191  0  0  -0.129434  0  4.012132  0  0  -0.132029  0  4.033081  0  0.007066  0  -0.101421  -0.127749  0  3.999379  0
C  C89  1  0.35978817  0.22736743  0.72016343  1  0  -0.10799  0  3.761508  0  0  -0.129041  0  4.014161  0  0  -0.131629  0  4.035147  0  0.001923  0  -0.100809  -0.127374  0  4.001321  0
C  C90  1  0.99178106  0.35948385  0.21976004  1  0  -0.107663  0  3.759233  0  0  -0.129384  0  4.012181  0  0  -0.131974  0  4.033123  0  0.007299  0  -0.101453  -0.127686  0  3.999394  0
C  C91  1  0.64020954  0.77262973  0.27983397  1  0  -0.10804  0  3.761386  0  0  -0.129069  0  4.014045  0  0  -0.131651  0  4.035027  0  0.001909  0  -0.100843  -0.127394  0  4.001204  0
C  C92  1  0.00176136  0.50854429  0.63533292  1  0  -0.113223  0  3.754943  0  0  -0.131669  0  3.99986  0  0  -0.134645  0  4.021071  0  -0.011134  0  -0.098362  -0.129664  0  3.986331  0
C  C93  1  0.37366535  0.36678701  0.86503319  1  0  -0.113765  0  3.755683  0  0  -0.132305  0  4.001196  0  0  -0.135268  0  4.022387  0  0.00677  0  -0.09862  -0.130287  0  3.987615  0
C  C94  1  0.99823373  0.49145287  0.36465965  1  0  -0.11319  0  3.755083  0  0  -0.13164  0  3.999989  0  0  -0.134614  0  4.021198  0  -0.010038  0  -0.098342  -0.129631  0  3.986467  0
C  C95  1  0.62633334  0.63321203  0.13496271  1  0  -0.113866  0  3.755704  0  0  -0.132394  0  4.001231  0  0  -0.135355  0  4.022419  0  0.006618  0  -0.098636  -0.130372  0  3.987648  0
C  C96  1  0.05689239  0.62602982  0.70954808  1  0  0.097604  0  3.70076  0  0  0.114779  0  3.961071  0  0  0.118256  0  3.983015  0  -0.099713  0  -0.017357  0.111952  0  3.946511  0
C  C97  1  0.41652511  0.34730405  0.79099490  1  0  0.097817  0  3.701965  0  0  0.114075  0  3.963401  0  0  0.117552  0  3.985261  0  -0.150923  0  -0.018119  0.111261  0  3.948894  0
C  C98  1  0.94310182  0.37396734  0.29044356  1  0  0.097634  0  3.700864  0  0  0.114835  0  3.961134  0  0  0.118304  0  3.98309  0  -0.099907  0  -0.017279  0.112007  0  3.946583  0
C  C99  1  0.58347222  0.65269406  0.20900116  1  0  0.097912  0  3.701922  0  0  0.114154  0  3.963377  0  0  0.117628  0  3.985237  0  -0.150785  0  -0.018062  0.111341  0  3.948865  0
S  S100  1  0.70711771  0.28858490  0.69797082  1  0  0.089144  0  2.823353  0  0  0.096459  0  3.228611  0  0  0.096266  0  3.21971  0  0.070439  0  -0.015167  0.097136  0  3.235782  0
S  S101  1  0.09069779  0.00855421  0.80186720  1  0  0.088938  0  2.82211  0  0  0.096623  0  3.227771  0  0  0.09622  0  3.218899  0  0.072688  0  -0.014994  0.097471  0  3.234833  0
S  S102  1  0.29288915  0.71141131  0.30203186  1  0  0.089111  0  2.823255  0  0  0.096421  0  3.228508  0  0  0.096229  0  3.219615  0  0.070546  0  -0.015148  0.097096  0  3.235696  0
S  S103  1  0.90930829  0.99144389  0.19813752  1  0  0.088988  0  2.822178  0  0  0.096693  0  3.227862  0  0  0.096296  0  3.218991  0  0.072609  0  -0.014996  0.09754  0  3.234931  0
S  S104  1  0.49174848  0.27951099  0.50123427  1  0  0.083238  0  2.812448  0  0  0.09509  0  3.210977  0  0  0.094488  0  3.204908  0  0.059956  0  -0.014102  0.096559  0  3.2144  0
S  S105  1  0.27817240  0.99018150  0.99868117  1  0  0.083198  0  2.80929  0  0  0.094883  0  3.208426  0  0  0.094387  0  3.202203  0  0.052406  0  -0.012901  0.096233  0  3.211996  0
S  S106  1  0.50825488  0.72049373  0.49877321  1  0  0.083161  0  2.812524  0  0  0.094985  0  3.21105  0  0  0.09439  0  3.204985  0  0.05957  0  -0.014149  0.096452  0  3.214471  0
S  S107  1  0.72183329  0.00981755  0.00132559  1  0  0.08321  0  2.809342  0  0  0.094901  0  3.208497  0  0  0.094409  0  3.202272  0  0.052209  0  -0.012905  0.096239  0  3.212061  0
I  I108  1  0.19725755  0.96572834  0.42018322  1  0  -0.256634  0  1.60311  0  0  -0.215237  0  2.008236  0  0  -0.227377  0  1.972703  0  -0.356993  0  -0.155973  -0.206165  0  2.034446  0
I  I109  1  0.04478500  0.77659832  0.07877424  1  0  -0.256034  0  1.610733  0  0  -0.214657  0  2.017926  0  0  -0.226758  0  1.982086  0  -0.361035  0  -0.156087  -0.205558  0  2.044404  0
I  I110  1  0.80275067  0.03426882  0.57982066  1  0  -0.256595  0  1.603085  0  0  -0.215211  0  2.008213  0  0  -0.227353  0  1.97268  0  -0.357075  0  -0.156  -0.206169  0  2.034423  0
I  I111  1  0.95521933  0.22339978  0.92123201  1  0  -0.256045  0  1.610748  0  0  -0.21469  0  2.017964  0  0  -0.226787  0  1.98212  0  -0.3611  0  -0.156119  -0.205634  0  2.044449  0
I  I112  1  0.49269894  0.02344589  0.29442912  1  0  -0.259404  0  1.644538  0  0  -0.211984  0  2.056815  0  0  -0.224106  0  2.021879  0  -0.375314  0  -0.134981  -0.203356  0  2.084714  0
I  I113  1  0.22976450  0.19793085  0.20583461  1  0  -0.260345  0  1.641106  0  0  -0.212564  0  2.051619  0  0  -0.224792  0  2.017026  0  -0.375935  0  -0.13501  -0.203828  0  2.079164  0
I  I114  1  0.50730500  0.97655315  0.70557509  1  0  -0.259437  0  1.644555  0  0  -0.212021  0  2.056829  0  0  -0.224138  0  2.021892  0  -0.375313  0  -0.135023  -0.203406  0  2.084727  0
I  I115  1  0.77024713  0.80207292  0.79417586  1  0  -0.260331  0  1.641033  0  0  -0.212571  0  2.051556  0  0  -0.224796  0  2.016961  0  -0.376004  0  -0.13502  -0.203853  0  2.079109  0
Br  Br116  1  0.92119439  0.75727599  0.45627346  1  0  -0.069667  0  1.343429  0  0  -0.059315  0  1.610299  0  0  -0.064431  0  1.605076  0  -0.066227  0  0.027462  -0.054987  0  1.613443  0
Br  Br117  1  0.80165556  0.46616631  0.04442502  1  0  -0.069586  0  1.346501  0  0  -0.058824  0  1.614323  0  0  -0.063966  0  1.609161  0  -0.066821  0  0.027839  -0.054499  0  1.617464  0
Br  Br118  1  0.07880167  0.24272306  0.54372100  1  0  -0.069687  0  1.343435  0  0  -0.059351  0  1.610271  0  0  -0.06446  0  1.605034  0  -0.06646  0  0.02745  -0.055025  0  1.613415  0
Br  Br119  1  0.19834050  0.53383274  0.95556944  1  0  -0.069572  0  1.346506  0  0  -0.058808  0  1.614347  0  0  -0.063951  0  1.609186  0  -0.066836  0  0.027836  -0.054501  0  1.617492  0
Br  Br120  1  0.20307186  0.76638391  0.71305498  1  0  -0.082373  0  1.372456  0  0  -0.076418  0  1.654762  0  0  -0.081584  0  1.649971  0  -0.079687  0  0.030192  -0.071384  0  1.658297  0
Br  Br121  1  0.55338564  0.49004307  0.78768435  1  0  -0.082736  0  1.367186  0  0  -0.077019  0  1.649008  0  0  -0.08212  0  1.644169  0  -0.08394  0  0.029471  -0.072043  0  1.652516  0
Br  Br122  1  0.79692557  0.23361608  0.28694203  1  0  -0.082376  0  1.372458  0  0  -0.076433  0  1.654764  0  0  -0.081602  0  1.649974  0  -0.079704  0  0.030199  -0.071387  0  1.658296  0
Br  Br123  1  0.44660682  0.50995408  0.21230812  1  0  -0.082745  0  1.367187  0  0  -0.077022  0  1.64903  0  0  -0.082124  0  1.644192  0  -0.083939  0  0.029475  -0.072037  0  1.652536  0
