# generated using pymatgen
data_CdH24C28N4(ClO2)2
_symmetry_space_group_name_H-M   'P 1'
_cell_length_a   10.95777076
_cell_length_b   12.06467950
_cell_length_c   13.42843623
_cell_angle_alpha   114.15448364
_cell_angle_beta   90.00068936
_cell_angle_gamma   117.00200565
_symmetry_Int_Tables_number   1
_chemical_formula_structural   CdH24C28N4(ClO2)2
_chemical_formula_sum   'Cd2 H48 C56 N8 Cl4 O8'
_cell_volume   1405.06062420
_cell_formula_units_Z   2
loop_
 _symmetry_equiv_pos_site_id
 _symmetry_equiv_pos_as_xyz
  1  'x, y, z'
loop_
 _atom_site_type_symbol
 _atom_site_label
 _atom_site_symmetry_multiplicity
 _atom_site_fract_x
 _atom_site_fract_y
 _atom_site_fract_z
 _atom_site_occupancy
 _atom_site_hle17_bader_spin_density
 _atom_site_hle17_ddec_charge
 _atom_site_hle17_ddec_spin_density
 _atom_site_hle17_ddec_sum_bond_order
 _atom_site_hle17_magmom
 _atom_site_hse06_10hf_bader_spin_density
 _atom_site_hse06_10hf_ddec_charge
 _atom_site_hse06_10hf_ddec_spin_density
 _atom_site_hse06_10hf_ddec_sum_bond_order
 _atom_site_hse06_10hf_magmom
 _atom_site_hse06_bader_spin_density
 _atom_site_hse06_ddec_charge
 _atom_site_hse06_ddec_spin_density
 _atom_site_hse06_ddec_sum_bond_order
 _atom_site_hse06_magmom
 _atom_site_pbe_bader_spin_density
 _atom_site_pbe_cm5_charge
 _atom_site_pbe_ddec_charge
 _atom_site_pbe_ddec_spin_density
 _atom_site_pbe_ddec_sum_bond_order
 _atom_site_pbe_magmom
Cd  Cd0  1  0.98727462  0.99997647  0.24998363  1  0  1.104194  0  1.680618  0  0  0.912492  0  2.126332  0  0  0.968575  0  2.07756  0  0  0.775783  0.872838  0  2.159653  0
Cd  Cd1  1  0.01272412  0.00002407  0.75001645  1  0  1.104173  0  1.68061  0  0  0.912478  0  2.126326  0  0  0.968554  0  2.077553  0  0  0.775781  0.87282  0  2.159643  0
H  H2  1  0.26275518  0.43479544  0.53757324  1  0  0.121938  0  0.939417  0  0  0.131722  0  0.999005  0  0  0.135558  0  0.996502  0  0  0.111301  0.128953  0  1.000798  0
H  H3  1  0.82807561  0.56537292  0.96253199  1  0  0.122  0  0.940148  0  0  0.131475  0  1.00006  0  0  0.135316  0  0.997561  0  0  0.111056  0.128742  0  1.001786  0
H  H4  1  0.73724433  0.56520300  0.46242532  1  0  0.121937  0  0.939442  0  0  0.131728  0  0.999014  0  0  0.135564  0  0.996511  0  0  0.111299  0.128959  0  1.000809  0
H  H5  1  0.17192338  0.43462447  0.03746544  1  0  0.121997  0  0.940135  0  0  0.131489  0  1.000029  0  0  0.13533  0  0.997533  0  0  0.111062  0.128757  0  1.001753  0
H  H6  1  0.40961715  0.61818722  0.38337651  1  0  0.100463  0  0.954801  0  0  0.111793  0  1.015792  0  0  0.1141  0  1.015722  0  0  0.100277  0.110182  0  1.015826  0
H  H7  1  0.79112980  0.38153593  0.11652672  1  0  0.100974  0  0.955931  0  0  0.112001  0  1.017111  0  0  0.114382  0  1.016947  0  0  0.100579  0.110345  0  1.017193  0
H  H8  1  0.59038250  0.38181332  0.61662431  1  0  0.100494  0  0.954781  0  0  0.111812  0  1.015783  0  0  0.114117  0  1.015715  0  0  0.100285  0.110201  0  1.015817  0
H  H9  1  0.20887128  0.61846566  0.88347224  1  0  0.100997  0  0.955909  0  0  0.112021  0  1.01709  0  0  0.114404  0  1.016924  0  0  0.100579  0.110366  0  1.017171  0
H  H10  1  0.68864150  0.01893842  0.61036178  1  0  0.089191  0  0.940849  0  0  0.104348  0  1.003866  0  0  0.105373  0  1.003511  0  0  0.112691  0.103506  0  1.004273  0
H  H11  1  0.66958239  0.98102227  0.88959511  1  0  0.088985  0  0.942022  0  0  0.104252  0  1.004624  0  0  0.105279  0  1.00427  0  0  0.112461  0.10341  0  1.005023  0
H  H12  1  0.31135580  0.98106108  0.38964015  1  0  0.089215  0  0.94081  0  0  0.104367  0  1.003836  0  0  0.105397  0  1.003471  0  0  0.11268  0.103523  0  1.004247  0
H  H13  1  0.33041687  0.01897932  0.11040386  1  0  0.088977  0  0.942068  0  0  0.104227  0  1.004685  0  0  0.105255  0  1.004331  0  0  0.112458  0.103387  0  1.005084  0
H  H14  1  0.56963585  0.84032350  0.56721347  1  0  0.064537  0  0.965343  0  0  0.075924  0  1.038549  0  0  0.076236  0  1.038636  0  0  0.099734  0.075458  0  1.038844  0
H  H15  1  0.72929063  0.15970157  0.93284263  1  0  0.065585  0  0.964474  0  0  0.076799  0  1.037643  0  0  0.077058  0  1.037764  0  0  0.099912  0.076358  0  1.03794  0
H  H16  1  0.43036314  0.15967391  0.43278844  1  0  0.064594  0  0.965299  0  0  0.075958  0  1.038531  0  0  0.076271  0  1.038617  0  0  0.099757  0.075493  0  1.038825  0
H  H17  1  0.27070953  0.84030001  0.06715559  1  0  0.065661  0  0.964441  0  0  0.076878  0  1.037592  0  0  0.077136  0  1.037714  0  0  0.099943  0.076436  0  1.037892  0
H  H18  1  0.88213571  0.14220828  0.59152706  1  0  0.158818  0  0.979491  0  0  0.174077  0  1.04419  0  0  0.177931  0  1.041296  0  0  0.102182  0.171301  0  1.04627  0
H  H19  1  0.73984813  0.85768143  0.90841117  1  0  0.159012  0  0.979782  0  0  0.174688  0  1.043716  0  0  0.178559  0  1.040816  0  0  0.102398  0.171889  0  1.045827  0
H  H20  1  0.11786277  0.85779541  0.40847640  1  0  0.158843  0  0.97947  0  0  0.174092  0  1.044168  0  0  0.177945  0  1.041273  0  0  0.102186  0.17131  0  1.046253  0
H  H21  1  0.26015243  0.14231911  0.09158667  1  0  0.159031  0  0.979763  0  0  0.174717  0  1.043695  0  0  0.178587  0  1.040792  0  0  0.102403  0.17192  0  1.045804  0
H  H22  1  0.83952818  0.18567157  0.48982208  1  0  0.124311  0  0.939882  0  0  0.144354  0  1.002902  0  0  0.1465  0  1.002217  0  0  0.09747  0.142929  0  1.003234  0
H  H23  1  0.65383726  0.81425900  0.01013176  1  0  0.124523  0  0.939455  0  0  0.144765  0  1.0023  0  0  0.146903  0  1.001619  0  0  0.097662  0.143348  0  1.002619  0
H  H24  1  0.16046820  0.81432792  0.51017687  1  0  0.124326  0  0.939908  0  0  0.144356  0  1.00294  0  0  0.146502  0  1.002256  0  0  0.097447  0.14293  0  1.003272  0
H  H25  1  0.34616382  0.18574258  0.98986646  1  0  0.124538  0  0.93953  0  0  0.144789  0  1.002374  0  0  0.146928  0  1.001693  0  0  0.097673  0.143371  0  1.002693  0
H  H26  1  0.98426340  0.15621257  0.48978401  1  0  0.156162  0  0.965265  0  0  0.176528  0  1.021541  0  0  0.179699  0  1.019431  0  0  0.103932  0.17428  0  1.02299  0
H  H27  1  0.82800573  0.84360730  0.01013840  1  0  0.156301  0  0.9644  0  0  0.176475  0  1.020911  0  0  0.17967  0  1.018766  0  0  0.103939  0.174205  0  1.022393  0
H  H28  1  0.01573312  0.84378902  0.51021644  1  0  0.15621  0  0.965295  0  0  0.176592  0  1.021537  0  0  0.179761  0  1.019431  0  0  0.103979  0.174343  0  1.022985  0
H  H29  1  0.17199443  0.15639428  0.98986056  1  0  0.156343  0  0.964405  0  0  0.176548  0  1.020886  0  0  0.179742  0  1.018741  0  0  0.103955  0.174277  0  1.022369  0
H  H30  1  0.35521963  0.41398772  0.20061923  1  0  0.09685  0  0.945017  0  0  0.111453  0  0.998734  0  0  0.113826  0  0.998444  0  0  0.100921  0.10972  0  0.999047  0
H  H31  1  0.94113694  0.58592131  0.29913805  1  0  0.097278  0  0.944453  0  0  0.111478  0  0.998528  0  0  0.113878  0  0.998216  0  0  0.100798  0.109747  0  0.998842  0
H  H32  1  0.64478093  0.58601282  0.79938159  1  0  0.096907  0  0.944943  0  0  0.11148  0  0.998694  0  0  0.113853  0  0.998403  0  0  0.100947  0.109748  0  0.999007  0
H  H33  1  0.05886296  0.41407608  0.70086013  1  0  0.097276  0  0.944432  0  0  0.111509  0  0.998475  0  0  0.113907  0  0.998164  0  0  0.100809  0.109777  0  0.99879  0
H  H34  1  0.73017722  0.66111381  0.11499846  1  0  0.103357  0  0.973056  0  0  0.113465  0  1.035513  0  0  0.115998  0  1.034843  0  0  0.099962  0.111723  0  1.035839  0
H  H35  1  0.06939815  0.33905177  0.38471163  1  0  0.103255  0  0.974524  0  0  0.113439  0  1.036727  0  0  0.11594  0  1.03611  0  0  0.099834  0.111758  0  1.036982  0
H  H36  1  0.26982257  0.33888883  0.88500462  1  0  0.103352  0  0.973007  0  0  0.113467  0  1.03547  0  0  0.115968  0  1.034836  0  0  0.099963  0.111725  0  1.035797  0
H  H37  1  0.93060332  0.66094877  0.61528621  1  0  0.103253  0  0.974496  0  0  0.113465  0  1.036676  0  0  0.115967  0  1.036058  0  0  0.099811  0.111784  0  1.03693  0
H  H38  1  0.51093599  0.43514110  0.06732694  1  0  0.079621  0  0.968036  0  0  0.09095  0  1.028951  0  0  0.09348  0  1.028321  0  0  0.09284  0.089122  0  1.029452  0
H  H39  1  0.07609895  0.56501000  0.43238495  1  0  0.07972  0  0.967388  0  0  0.091035  0  1.028354  0  0  0.09358  0  1.027712  0  0  0.092915  0.089201  0  1.028856  0
H  H40  1  0.48906379  0.56486154  0.93267390  1  0  0.079648  0  0.968018  0  0  0.090996  0  1.028913  0  0  0.093525  0  1.028283  0  0  0.09284  0.089167  0  1.029415  0
H  H41  1  0.92390070  0.43499054  0.56761438  1  0  0.079769  0  0.967257  0  0  0.091055  0  1.028269  0  0  0.093599  0  1.027627  0  0  0.092918  0.08922  0  1.028772  0
H  H42  1  0.39409704  0.84256408  0.45206035  1  0  0.066218  0  0.942099  0  0  0.084483  0  1.005659  0  0  0.084997  0  1.006379  0  0  0.088702  0.084098  0  1.00515  0
H  H43  1  0.55152114  0.15742144  0.04804557  1  0  0.066126  0  0.942322  0  0  0.084459  0  1.00573  0  0  0.08489  0  1.006586  0  0  0.088875  0.084118  0  1.005162  0
H  H44  1  0.60590143  0.15743228  0.54794118  1  0  0.066168  0  0.942092  0  0  0.084442  0  1.005664  0  0  0.084957  0  1.006381  0  0  0.088716  0.084057  0  1.005155  0
H  H45  1  0.44847903  0.84258014  0.95195340  1  0  0.066091  0  0.942244  0  0  0.08443  0  1.005669  0  0  0.08486  0  1.006526  0  0  0.088854  0.084089  0  1.005102  0
H  H46  1  0.44051986  0.96658843  0.59449411  1  0  0.07385  0  0.92695  0  0  0.094543  0  0.981241  0  0  0.095261  0  0.981783  0  0  0.094162  0.09396  0  0.980984  0
H  H47  1  0.47391383  0.03355640  0.90558894  1  0  0.073851  0  0.92721  0  0  0.094346  0  0.981677  0  0  0.095134  0  0.982126  0  0  0.094294  0.093727  0  0.981479  0
H  H48  1  0.55947717  0.03340688  0.40550628  1  0  0.073846  0  0.926979  0  0  0.094541  0  0.981265  0  0  0.095259  0  0.981809  0  0  0.094154  0.093958  0  0.981008  0
H  H49  1  0.52608543  0.96644519  0.09441077  1  0  0.073841  0  0.927187  0  0  0.09434  0  0.981654  0  0  0.095128  0  0.982102  0  0  0.0943  0.093719  0  0.981464  0
C  C50  1  0.36722153  0.46419876  0.52067880  1  0  -0.123911  0  3.727645  0  0  -0.157142  0  3.982212  0  0  -0.158242  0  4.000145  0  0  -0.085065  -0.156178  0  3.970013  0
C  C51  1  0.90310483  0.53589318  0.97934428  1  0  -0.123326  0  3.728034  0  0  -0.156153  0  3.98239  0  0  -0.157261  0  4.000338  0  0  -0.084322  -0.155199  0  3.970148  0
C  C52  1  0.63277929  0.53579865  0.47932236  1  0  -0.123936  0  3.727609  0  0  -0.157134  0  3.982199  0  0  -0.158234  0  4.000133  0  0  -0.08504  -0.156169  0  3.969999  0
C  C53  1  0.09689377  0.46410526  0.02065354  1  0  -0.123307  0  3.727982  0  0  -0.156151  0  3.982331  0  0  -0.157263  0  4.000281  0  0  -0.084322  -0.155199  0  3.970092  0
C  C54  1  0.38428355  0.36567669  0.42929821  1  0  -0.084032  0  3.72473  0  0  -0.071543  0  3.967958  0  0  -0.076826  0  3.987154  0  0  -0.013216  -0.068335  0  3.955324  0
C  C55  1  0.01878704  0.63441251  0.07063435  1  0  -0.084511  0  3.724653  0  0  -0.072468  0  3.968437  0  0  -0.077759  0  3.987593  0  0  -0.013463  -0.069253  0  3.955838  0
C  C56  1  0.61571817  0.63432071  0.57070146  1  0  -0.083871  0  3.724607  0  0  -0.07144  0  3.967857  0  0  -0.076724  0  3.987053  0  0  -0.01317  -0.068232  0  3.955223  0
C  C57  1  0.98120960  0.36558384  0.92936420  1  0  -0.084448  0  3.724497  0  0  -0.072404  0  3.96829  0  0  -0.077692  0  3.987445  0  0  -0.013435  -0.069188  0  3.955689  0
C  C58  1  0.60201756  0.75375024  0.35100468  1  0  0.101092  0  3.78249  0  0  0.090933  0  4.028498  0  0  0.09476  0  4.050539  0  0  0.087859  0.08823  0  4.013918  0
C  C59  1  0.84812978  0.24607556  0.14887187  1  0  0.101607  0  3.780096  0  0  0.091115  0  4.026211  0  0  0.094966  0  4.048225  0  0  0.088198  0.088392  0  4.011639  0
C  C60  1  0.39798117  0.24625031  0.64899689  1  0  0.101053  0  3.78265  0  0  0.090911  0  4.02859  0  0  0.094736  0  4.050629  0  0  0.087896  0.088209  0  4.01401  0
C  C61  1  0.15187260  0.75392497  0.85112522  1  0  0.101598  0  3.780105  0  0  0.091134  0  4.026181  0  0  0.095003  0  4.048176  0  0  0.088187  0.088398  0  4.011625  0
C  C62  1  0.47985791  0.59644257  0.59028443  1  0  0.119706  0  3.779883  0  0  0.120881  0  4.053386  0  0  0.125013  0  4.073205  0  0  0.018495  0.117955  0  4.040253  0
C  C63  1  0.88328252  0.40353718  0.90984850  1  0  0.119328  0  3.781651  0  0  0.120715  0  4.054933  0  0  0.124845  0  4.074731  0  0  0.018107  0.117772  0  4.041835  0
C  C64  1  0.52014016  0.40355483  0.40971449  1  0  0.119836  0  3.779772  0  0  0.120944  0  4.053345  0  0  0.125075  0  4.073165  0  0  0.018487  0.118016  0  4.040212  0
C  C65  1  0.11671517  0.59646127  0.09015007  1  0  0.119279  0  3.781681  0  0  0.120699  0  4.05491  0  0  0.124829  0  4.07471  0  0  0.018103  0.117755  0  4.041815  0
C  C66  1  0.25394777  0.22874057  0.35744888  1  0  0.63111  0  3.948693  0  0  0.581806  0  4.243149  0  0  0.615824  0  4.236374  0  0  0.19085  0.558862  0  4.246846  0
C  C67  1  0.02536986  0.77131821  0.14251361  1  0  0.630747  0  3.950641  0  0  0.581682  0  4.244722  0  0  0.615716  0  4.23793  0  0  0.190442  0.558724  0  4.248426  0
C  C68  1  0.74605136  0.77125893  0.64255156  1  0  0.631023  0  3.948772  0  0  0.581742  0  4.243212  0  0  0.61576  0  4.236436  0  0  0.190817  0.558796  0  4.246909  0
C  C69  1  0.97462965  0.22868023  0.85748496  1  0  0.630703  0  3.950785  0  0  0.581646  0  4.244865  0  0  0.615679  0  4.238072  0  0  0.190419  0.558688  0  4.248567  0
C  C70  1  0.78470713  0.97150564  0.42493232  1  0  0.429256  0  3.675233  0  0  0.402425  0  3.948133  0  0  0.422944  0  3.959483  0  0  0.236564  0.388939  0  3.939921  0
C  C71  1  0.81314758  0.02832809  0.07497991  1  0  0.429954  0  3.675218  0  0  0.403299  0  3.94733  0  0  0.42377  0  3.958777  0  0  0.237676  0.389846  0  3.939041  0
C  C72  1  0.21529017  0.02849386  0.57506886  1  0  0.429353  0  3.675078  0  0  0.402593  0  3.947795  0  0  0.423112  0  3.959139  0  0  0.236639  0.389106  0  3.939584  0
C  C73  1  0.18685206  0.97167244  0.92501718  1  0  0.430176  0  3.674914  0  0  0.403575  0  3.947004  0  0  0.424046  0  3.958447  0  0  0.237777  0.390121  0  3.938715  0
C  C74  1  0.69289847  0.76654034  0.27643262  1  0  0.160014  0  3.851909  0  0  0.15552  0  4.098637  0  0  0.160074  0  4.121885  0  0  0.081204  0.15229  0  4.083041  0
C  C75  1  0.92641293  0.23341706  0.22340434  1  0  0.160688  0  3.850028  0  0  0.15602  0  4.097395  0  0  0.160568  0  4.120613  0  0  0.081181  0.152802  0  4.081813  0
C  C76  1  0.30710078  0.23346125  0.72356784  1  0  0.160045  0  3.851798  0  0  0.155464  0  4.098628  0  0  0.160026  0  4.12186  0  0  0.081163  0.152233  0  4.083032  0
C  C77  1  0.07358958  0.76658557  0.77659426  1  0  0.160708  0  3.850144  0  0  0.156102  0  4.097421  0  0  0.160643  0  4.120639  0  0  0.08119  0.152889  0  4.08184  0
C  C78  1  0.47932074  0.62815755  0.32581483  1  0  -0.149801  0  3.787729  0  0  -0.172352  0  4.051307  0  0  -0.175466  0  4.073037  0  0  -0.101574  -0.170301  0  4.036697  0
C  C79  1  0.85099587  0.37168873  0.17407530  1  0  -0.150752  0  3.787543  0  0  -0.172927  0  4.050914  0  0  -0.176104  0  4.072612  0  0  -0.102188  -0.170828  0  4.036323  0
C  C80  1  0.52067878  0.37184090  0.67418597  1  0  -0.149807  0  3.787746  0  0  -0.172366  0  4.05132  0  0  -0.175478  0  4.07305  0  0  -0.101553  -0.170313  0  4.03671  0
C  C81  1  0.14900560  0.62831180  0.82592254  1  0  -0.15077  0  3.787463  0  0  -0.172947  0  4.050828  0  0  -0.176127  0  4.072512  0  0  -0.102152  -0.170846  0  4.036244  0
C  C82  1  0.60406498  0.92314848  0.54138561  1  0  0.012033  0  3.619556  0  0  -0.047594  0  3.875908  0  0  -0.043036  0  3.887206  0  0  -0.054216  -0.050457  0  3.868283  0
C  C83  1  0.68083131  0.07680728  0.95859069  1  0  0.009467  0  3.621397  0  0  -0.050423  0  3.878083  0  0  -0.045816  0  3.889405  0  0  -0.054793  -0.053298  0  3.870405  0
C  C84  1  0.39593363  0.07684997  0.45861668  1  0  0.011848  0  3.619697  0  0  -0.047804  0  3.876042  0  0  -0.043251  0  3.887344  0  0  -0.054256  -0.050666  0  3.868417  0
C  C85  1  0.31916938  0.92319535  0.04140941  1  0  0.009386  0  3.621359  0  0  -0.050454  0  3.878031  0  0  -0.045846  0  3.889352  0  0  -0.054798  -0.05333  0  3.870358  0
C  C86  1  0.87750682  0.12174641  0.50377573  1  0  -0.42547  0  3.683774  0  0  -0.504957  0  3.916884  0  0  -0.510708  0  3.920441  0  0  -0.24069  -0.500841  0  3.914231  0
C  C87  1  0.75572517  0.87810581  0.99615181  1  0  -0.426089  0  3.683746  0  0  -0.506022  0  3.916868  0  0  -0.511728  0  3.920251  0  0  -0.241176  -0.501918  0  3.914294  0
C  C88  1  0.12249062  0.87825518  0.49622547  1  0  -0.425564  0  3.683864  0  0  -0.505069  0  3.916928  0  0  -0.510821  0  3.920486  0  0  -0.240698  -0.500947  0  3.91428  0
C  C89  1  0.24427408  0.12189577  0.00384566  1  0  -0.426199  0  3.683707  0  0  -0.506186  0  3.916814  0  0  -0.51189  0  3.920191  0  0  -0.241191  -0.502083  0  3.914241  0
C  C90  1  0.44941683  0.51424359  0.22283204  1  0  -0.076888  0  3.793269  0  0  -0.096981  0  4.055294  0  0  -0.099066  0  4.078  0  0  -0.102964  -0.095586  0  4.039924  0
C  C91  1  0.93516858  0.48571132  0.27697003  1  0  -0.07808  0  3.794628  0  0  -0.097813  0  4.05633  0  0  -0.099933  0  4.079105  0  0  -0.103237  -0.096418  0  4.040947  0
C  C92  1  0.55058296  0.48575905  0.77717029  1  0  -0.076898  0  3.793229  0  0  -0.096963  0  4.055254  0  0  -0.099046  0  4.077961  0  0  -0.103  -0.095569  0  4.039885  0
C  C93  1  0.06483198  0.51428921  0.72302781  1  0  -0.078091  0  3.794573  0  0  -0.09785  0  4.056278  0  0  -0.099969  0  4.079055  0  0  -0.103255  -0.096453  0  4.040894  0
C  C94  1  0.66118049  0.65164831  0.17307999  1  0  -0.154065  0  3.761579  0  0  -0.169814  0  4.006365  0  0  -0.173205  0  4.027767  0  0  -0.101692  -0.167466  0  3.99178  0
C  C95  1  0.00980758  0.34843693  0.32663951  1  0  -0.154205  0  3.761709  0  0  -0.169951  0  4.006501  0  0  -0.173325  0  4.027912  0  0  -0.101134  -0.167654  0  3.991895  0
C  C96  1  0.33881838  0.34835433  0.82692234  1  0  -0.153992  0  3.76137  0  0  -0.169732  0  4.006194  0  0  -0.173102  0  4.027615  0  0  -0.101683  -0.167384  0  3.991608  0
C  C97  1  0.99019441  0.65156464  0.67335797  1  0  -0.154215  0  3.761644  0  0  -0.170019  0  4.006427  0  0  -0.173389  0  4.027832  0  0  -0.101064  -0.16772  0  3.991817  0
C  C98  1  0.53860809  0.52603616  0.14770653  1  0  -0.087172  0  3.817492  0  0  -0.103344  0  4.074355  0  0  -0.105931  0  4.097642  0  0  -0.105751  -0.101469  0  4.058568  0
C  C99  1  0.01269237  0.47400904  0.35207068  1  0  -0.086636  0  3.81683  0  0  -0.102781  0  4.073534  0  0  -0.10537  0  4.096803  0  0  -0.105904  -0.100907  0  4.057772  0
C  C100  1  0.46139078  0.47396647  0.85229431  1  0  -0.087311  0  3.817525  0  0  -0.103504  0  4.074402  0  0  -0.106091  0  4.09768  0  0  -0.105779  -0.101628  0  4.058616  0
C  C101  1  0.98730675  0.52599045  0.64792827  1  0  -0.0867  0  3.816661  0  0  -0.102822  0  4.073402  0  0  -0.105411  0  4.096672  0  0  -0.105974  -0.100948  0  4.057641  0
C  C102  1  0.48033198  0.94230486  0.51747849  1  0  -0.130324  0  3.686472  0  0  -0.173799  0  3.954056  0  0  -0.175164  0  3.967848  0  0  -0.165554  -0.172572  0  3.944213  0
C  C103  1  0.53798785  0.05770863  0.98255629  1  0  -0.129331  0  3.687715  0  0  -0.172611  0  3.954697  0  0  -0.173956  0  3.968512  0  0  -0.165711  -0.171417  0  3.944864  0
C  C104  1  0.51966466  0.05769150  0.48252229  1  0  -0.130131  0  3.686453  0  0  -0.173616  0  3.954036  0  0  -0.174982  0  3.967835  0  0  -0.16553  -0.172391  0  3.944193  0
C  C105  1  0.46201232  0.94229296  0.01744342  1  0  -0.129231  0  3.687559  0  0  -0.172529  0  3.95455  0  0  -0.173874  0  3.968366  0  0  -0.165701  -0.171335  0  3.944715  0
N  N106  1  0.66338316  0.88505848  0.44389970  1  0  -0.165403  0  3.460573  0  0  -0.082466  0  3.682954  0  0  -0.099977  0  3.705705  0  0  -0.239558  -0.070854  0  3.667429  0
N  N107  1  0.77815671  0.11474199  0.05603233  1  0  -0.165436  0  3.461108  0  0  -0.081845  0  3.682727  0  0  -0.099356  0  3.705502  0  0  -0.239952  -0.070235  0  3.667173  0
N  N108  1  0.33661427  0.11494311  0.55610151  1  0  -0.165441  0  3.460723  0  0  -0.082408  0  3.682904  0  0  -0.099917  0  3.705653  0  0  -0.239619  -0.070798  0  3.66738  0
N  N109  1  0.22184202  0.88525854  0.94396551  1  0  -0.165563  0  3.460958  0  0  -0.082075  0  3.682678  0  0  -0.099596  0  3.705448  0  0  -0.240059  -0.070459  0  3.667129  0
N  N110  1  0.80536566  0.90312630  0.32526788  1  0  -0.508072  0  3.147066  0  0  -0.440246  0  3.423965  0  0  -0.46502  0  3.437024  0  0  -0.360604  -0.42335  0  3.414672  0
N  N111  1  0.90231162  0.09681522  0.17460766  1  0  -0.508155  0  3.146289  0  0  -0.440679  0  3.42356  0  0  -0.465437  0  3.436631  0  0  -0.360904  -0.423792  0  3.414247  0
N  N112  1  0.19463399  0.09687425  0.67473443  1  0  -0.508096  0  3.146981  0  0  -0.440282  0  3.423865  0  0  -0.465055  0  3.436919  0  0  -0.360595  -0.423384  0  3.414569  0
N  N113  1  0.09768893  0.90318531  0.82539092  1  0  -0.508189  0  3.146334  0  0  -0.440732  0  3.42356  0  0  -0.46549  0  3.436631  0  0  -0.360917  -0.423844  0  3.414243  0
Cl  Cl114  1  0.44271727  0.71042789  0.69682356  1  0  -0.074543  0  1.36301  0  0  -0.057776  0  1.589874  0  0  -0.060757  0  1.585695  0  0  0.017191  -0.05562  0  1.59291  0
Cl  Cl115  1  0.73214946  0.28960478  0.80336500  1  0  -0.074632  0  1.363609  0  0  -0.057779  0  1.590247  0  0  -0.06077  0  1.586065  0  0  0.017194  -0.055622  0  1.593295  0
Cl  Cl116  1  0.55727884  0.28956742  0.30317385  1  0  -0.074569  0  1.362947  0  0  -0.057785  0  1.589836  0  0  -0.060765  0  1.585657  0  0  0.017213  -0.055628  0  1.592872  0
Cl  Cl117  1  0.26784953  0.71039261  0.19663318  1  0  -0.074652  0  1.363601  0  0  -0.057819  0  1.590231  0  0  -0.06081  0  1.586047  0  0  0.017166  -0.055659  0  1.59328  0
O  O118  1  0.15566966  0.18674148  0.40748540  1  0  -0.638727  0  1.980025  0  0  -0.572855  0  2.221675  0  0  -0.601846  0  2.211679  0  0  -0.333828  -0.55262  0  2.227697  0
O  O119  1  0.96918348  0.81336920  0.09244533  1  0  -0.638021  0  1.981016  0  0  -0.57216  0  2.222394  0  0  -0.601232  0  2.212549  0  0  -0.333224  -0.551907  0  2.228385  0
O  O120  1  0.84433116  0.81325592  0.59251576  1  0  -0.638699  0  1.980035  0  0  -0.572867  0  2.221711  0  0  -0.601853  0  2.211708  0  0  -0.333845  -0.552631  0  2.227732  0
O  O121  1  0.03081616  0.18663133  0.90755326  1  0  -0.637972  0  1.981132  0  0  -0.572123  0  2.222518  0  0  -0.601187  0  2.212665  0  0  -0.333209  -0.551869  0  2.228508  0
O  O122  1  0.24237447  0.16456170  0.25357164  1  0  -0.622411  0  1.977638  0  0  -0.57073  0  2.215319  0  0  -0.596797  0  2.206602  0  0  -0.319464  -0.552404  0  2.220499  0
O  O123  1  0.07778629  0.83540942  0.24642377  1  0  -0.622273  0  1.977507  0  0  -0.57065  0  2.215299  0  0  -0.596636  0  2.206375  0  0  -0.319515  -0.552347  0  2.220546  0
O  O124  1  0.75762414  0.83544406  0.74642737  1  0  -0.622383  0  1.977722  0  0  -0.570684  0  2.215356  0  0  -0.596752  0  2.206639  0  0  -0.319421  -0.552359  0  2.220538  0
O  O125  1  0.92221244  0.16459112  0.75357556  1  0  -0.622316  0  1.977571  0  0  -0.570703  0  2.215364  0  0  -0.596688  0  2.206439  0  0  -0.319534  -0.552397  0  2.220597  0
