# generated using pymatgen
data_ZnH14C18(NO2)2
_symmetry_space_group_name_H-M   'P 1'
_cell_length_a   5.77621619
_cell_length_b   9.40998978
_cell_length_c   17.61126083
_cell_angle_alpha   82.02708478
_cell_angle_beta   80.54463380
_cell_angle_gamma   72.01448164
_symmetry_Int_Tables_number   1
_chemical_formula_structural   ZnH14C18(NO2)2
_chemical_formula_sum   'Zn2 H28 C36 N4 O8'
_cell_volume   894.14153646
_cell_formula_units_Z   2
loop_
 _symmetry_equiv_pos_site_id
 _symmetry_equiv_pos_as_xyz
  1  'x, y, z'
loop_
 _atom_site_type_symbol
 _atom_site_label
 _atom_site_symmetry_multiplicity
 _atom_site_fract_x
 _atom_site_fract_y
 _atom_site_fract_z
 _atom_site_occupancy
 _atom_site_hle17_bader_spin_density
 _atom_site_hle17_ddec_charge
 _atom_site_hle17_ddec_spin_density
 _atom_site_hle17_ddec_sum_bond_order
 _atom_site_hle17_magmom
 _atom_site_hse06_10hf_bader_spin_density
 _atom_site_hse06_10hf_ddec_charge
 _atom_site_hse06_10hf_ddec_spin_density
 _atom_site_hse06_10hf_ddec_sum_bond_order
 _atom_site_hse06_10hf_magmom
 _atom_site_hse06_bader_spin_density
 _atom_site_hse06_ddec_charge
 _atom_site_hse06_ddec_spin_density
 _atom_site_hse06_ddec_sum_bond_order
 _atom_site_hse06_magmom
 _atom_site_pbe_bader_spin_density
 _atom_site_pbe_cm5_charge
 _atom_site_pbe_ddec_charge
 _atom_site_pbe_ddec_spin_density
 _atom_site_pbe_ddec_sum_bond_order
 _atom_site_pbe_magmom
Zn  Zn0  1  0.51246739  0.24940720  0.74983124  1  0  0.984074  0  1.860469  0  0  0.783885  0  2.344066  0  0  0.832639  0  2.289524  0  0  0.687566  0.750018  0  2.3816  0
Zn  Zn1  1  0.48754330  0.75059573  0.25016108  1  0  0.984081  0  1.86042  0  0  0.783886  0  2.344048  0  0  0.832632  0  2.289529  0  0  0.687583  0.750041  0  2.381539  0
H  H2  1  0.97016528  0.94400212  0.69477458  1  0  0.118038  0  0.925194  0  0  0.13071  0  0.977036  0  0  0.133998  0  0.976305  0  0  0.117372  0.128449  0  0.977362  0
H  H3  1  0.60791768  0.55404146  0.80513436  1  0  0.116696  0  0.926076  0  0  0.130092  0  0.977185  0  0  0.133322  0  0.976577  0  0  0.117008  0.127728  0  0.977913  0
H  H4  1  0.02981429  0.05600015  0.30523887  1  0  0.117922  0  0.925393  0  0  0.130707  0  0.9771  0  0  0.133995  0  0.976368  0  0  0.117331  0.128444  0  0.97743  0
H  H5  1  0.39209068  0.44593151  0.19486251  1  0  0.116689  0  0.926077  0  0  0.130065  0  0.977236  0  0  0.133295  0  0.976631  0  0  0.117009  0.127699  0  0.977968  0
H  H6  1  0.55388525  0.22425182  0.58311562  1  0  0.077201  0  0.962635  0  0  0.085959  0  1.02736  0  0  0.087537  0  1.026906  0  0  0.116492  0.084854  0  1.027536  0
H  H7  1  0.36266564  0.27586641  0.91677084  1  0  0.076256  0  0.963062  0  0  0.085342  0  1.02741  0  0  0.086912  0  1.026962  0  0  0.116809  0.084125  0  1.027803  0
H  H8  1  0.44607689  0.77575044  0.41688002  1  0  0.077091  0  0.962712  0  0  0.085849  0  1.027437  0  0  0.087423  0  1.026985  0  0  0.116454  0.084755  0  1.027598  0
H  H9  1  0.63735091  0.72412269  0.08321958  1  0  0.076276  0  0.962887  0  0  0.085318  0  1.0273  0  0  0.086882  0  1.026858  0  0  0.116829  0.084114  0  1.027653  0
H  H10  1  0.34680339  0.13883357  0.49371904  1  0  0.103517  0  0.962124  0  0  0.115215  0  1.019626  0  0  0.117705  0  1.020088  0  0  0.108884  0.113398  0  1.019537  0
H  H11  1  0.98049121  0.36162179  0.00619829  1  0  0.103822  0  0.961231  0  0  0.115123  0  1.019584  0  0  0.117573  0  1.020112  0  0  0.108723  0.113564  0  1.018981  0
H  H12  1  0.65313924  0.86116978  0.50628507  1  0  0.103752  0  0.962112  0  0  0.115389  0  1.019624  0  0  0.117854  0  1.020116  0  0  0.109023  0.113572  0  1.019533  0
H  H13  1  0.01952223  0.63834274  0.99379454  1  0  0.103803  0  0.961353  0  0  0.115082  0  1.019732  0  0  0.117533  0  1.020255  0  0  0.108694  0.113521  0  1.019132  0
H  H14  1  0.19141940  0.04236545  0.77602845  1  0  0.104635  0  0.944506  0  0  0.111205  0  1.007338  0  0  0.114409  0  1.003968  0  0  0.122885  0.108784  0  1.009879  0
H  H15  1  0.00940236  0.45576457  0.72383233  1  0  0.104924  0  0.945235  0  0  0.111685  0  1.00782  0  0  0.114813  0  1.004619  0  0  0.122933  0.109308  0  1.010307  0
H  H16  1  0.80858183  0.95763821  0.22397832  1  0  0.104719  0  0.944444  0  0  0.11126  0  1.007309  0  0  0.114463  0  1.003941  0  0  0.122936  0.108839  0  1.009853  0
H  H17  1  0.99060974  0.54423523  0.27616204  1  0  0.104889  0  0.945276  0  0  0.111701  0  1.007817  0  0  0.114774  0  1.004681  0  0  0.122932  0.109323  0  1.010308  0
H  H18  1  0.70612061  0.89058519  0.97785691  1  0  0.103689  0  0.970872  0  0  0.113875  0  1.033117  0  0  0.116818  0  1.033133  0  0  0.096773  0.11179  0  1.033238  0
H  H19  1  0.57429309  0.61138845  0.52279550  1  0  0.103161  0  0.970002  0  0  0.113572  0  1.032041  0  0  0.116443  0  1.03215  0  0  0.097104  0.11145  0  1.03212  0
H  H20  1  0.29385571  0.10944328  0.02215788  1  0  0.103722  0  0.971018  0  0  0.113922  0  1.033225  0  0  0.116863  0  1.033246  0  0  0.096831  0.111839  0  1.033341  0
H  H21  1  0.42575183  0.38864079  0.47720806  1  0  0.10318  0  0.969988  0  0  0.113636  0  1.031984  0  0  0.116511  0  1.032091  0  0  0.097075  0.111507  0  1.032072  0
H  H22  1  0.90498588  0.90266120  0.56862356  1  0  0.100688  0  0.936483  0  0  0.114707  0  0.990425  0  0  0.117609  0  0.989194  0  0  0.110632  0.112558  0  0.991443  0
H  H23  1  0.37517427  0.59620154  0.93122055  1  0  0.100297  0  0.937084  0  0  0.114855  0  0.990542  0  0  0.117694  0  0.989393  0  0  0.110265  0.112672  0  0.991695  0
H  H24  1  0.09496780  0.09734315  0.43138831  1  0  0.100711  0  0.936355  0  0  0.114679  0  0.99034  0  0  0.117579  0  0.989113  0  0  0.11057  0.112531  0  0.99136  0
H  H25  1  0.62484038  0.40376137  0.06877725  1  0  0.100259  0  0.93709  0  0  0.114783  0  0.990591  0  0  0.117635  0  0.989432  0  0  0.110194  0.112599  0  0.991745  0
H  H26  1  0.01624439  0.10856813  0.92493922  1  0  0.090183  0  0.971435  0  0  0.10112  0  1.033799  0  0  0.10328  0  1.033424  0  0  0.098922  0.099527  0  1.034078  0
H  H27  1  0.04935227  0.38916792  0.57433613  1  0  0.088322  0  0.974442  0  0  0.09908  0  1.037141  0  0  0.101178  0  1.036857  0  0  0.098431  0.097511  0  1.037409  0
H  H28  1  0.98378053  0.89142800  0.07505307  1  0  0.090106  0  0.971432  0  0  0.101138  0  1.033704  0  0  0.103293  0  1.033345  0  0  0.098925  0.099543  0  1.033987  0
H  H29  1  0.95069746  0.61086898  0.42566547  1  0  0.088246  0  0.974537  0  0  0.099162  0  1.037049  0  0  0.10126  0  1.036765  0  0  0.098476  0.097589  0  1.037323  0
C  C30  1  0.09897212  0.00515497  0.66720491  1  0  -0.14372  0  3.654205  0  0  -0.16121  0  3.9004  0  0  -0.169305  0  3.919422  0  0  -0.070081  -0.155585  0  3.88657  0
C  C31  1  0.77085766  0.49337095  0.83267087  1  0  -0.142758  0  3.653699  0  0  -0.160813  0  3.899396  0  0  -0.168984  0  3.918706  0  0  -0.070952  -0.155616  0  3.886898  0
C  C32  1  0.90100962  0.99484999  0.33280310  1  0  -0.14366  0  3.65414  0  0  -0.161226  0  3.900355  0  0  -0.169316  0  3.919385  0  0  -0.070076  -0.155603  0  3.886531  0
C  C33  1  0.22915068  0.50661535  0.16732405  1  0  -0.142394  0  3.653403  0  0  -0.160529  0  3.899109  0  0  -0.168695  0  3.918413  0  0  -0.070718  -0.155334  0  3.886617  0
C  C34  1  0.42224214  0.16204170  0.60510213  1  0  0.120793  0  3.732816  0  0  0.087498  0  3.986301  0  0  0.094622  0  4.005509  0  0  0.0447  0.082902  0  3.97298  0
C  C35  1  0.19038525  0.33774397  0.89475929  1  0  0.123681  0  3.731446  0  0  0.090426  0  3.985025  0  0  0.097533  0  4.004328  0  0  0.044632  0.085719  0  3.971927  0
C  C36  1  0.57772005  0.83796140  0.39490008  1  0  0.120898  0  3.732875  0  0  0.087575  0  3.986373  0  0  0.094702  0  4.005572  0  0  0.044612  0.082973  0  3.973067  0
C  C37  1  0.80963757  0.66224459  0.10523571  1  0  0.123851  0  3.731228  0  0  0.090636  0  3.98483  0  0  0.097742  0  4.004131  0  0  0.044776  0.085936  0  3.971742  0
C  C38  1  0.66186341  0.03463288  0.87012874  1  0  0.648219  0  3.978852  0  0  0.608168  0  4.264187  0  0  0.642517  0  4.256389  0  0  0.180937  0.584999  0  4.268477  0
C  C39  1  0.56633902  0.46522101  0.62981608  1  0  0.647431  0  3.97526  0  0  0.607003  0  4.261342  0  0  0.641363  0  4.253661  0  0  0.179449  0.583889  0  4.265363  0
C  C40  1  0.33812839  0.96536368  0.12987549  1  0  0.648267  0  3.978758  0  0  0.608194  0  4.264106  0  0  0.642543  0  4.256307  0  0  0.18083  0.585027  0  4.268402  0
C  C41  1  0.43368984  0.53478924  0.37018045  1  0  0.647682  0  3.975245  0  0  0.607146  0  4.261482  0  0  0.641513  0  4.253797  0  0  0.179434  0.58403  0  4.265511  0
C  C42  1  0.13740551  0.03281134  0.58632666  1  0  0.142414  0  3.789262  0  0  0.155168  0  4.023599  0  0  0.161532  0  4.044983  0  0  0.012797  0.151235  0  4.008566  0
C  C43  1  0.75653219  0.46656454  0.91358513  1  0  0.142169  0  3.788343  0  0  0.155555  0  4.022332  0  0  0.161908  0  4.043805  0  0  0.013646  0.151299  0  4.007757  0
C  C44  1  0.86254657  0.96719172  0.41368400  1  0  0.14263  0  3.789022  0  0  0.155364  0  4.02335  0  0  0.161707  0  4.044769  0  0  0.012913  0.151433  0  4.008318  0
C  C45  1  0.24348866  0.53341030  0.08640873  1  0  0.141757  0  3.78891  0  0  0.155392  0  4.022611  0  0  0.161729  0  4.044108  0  0  0.013437  0.15114  0  4.008033  0
C  C46  1  0.30628576  0.11310130  0.55568752  1  0  -0.165517  0  3.719334  0  0  -0.181612  0  3.966151  0  0  -0.190236  0  3.98791  0  0  -0.079397  -0.176296  0  3.951763  0
C  C47  1  0.97577154  0.38691220  0.94419493  1  0  -0.1668  0  3.718875  0  0  -0.183404  0  3.966593  0  0  -0.192041  0  3.988525  0  0  -0.079671  -0.177695  0  3.951417  0
C  C48  1  0.69366964  0.88689966  0.44431563  1  0  -0.165982  0  3.719857  0  0  -0.181998  0  3.966723  0  0  -0.190597  0  3.988493  0  0  -0.079537  -0.176679  0  3.952335  0
C  C49  1  0.02424218  0.61306964  0.05580055  1  0  -0.166759  0  3.719054  0  0  -0.183416  0  3.966673  0  0  -0.192044  0  3.988607  0  0  -0.07961  -0.17771  0  3.951498  0
C  C50  1  0.21984605  0.05979589  0.71323259  1  0  0.159808  0  3.655102  0  0  0.125195  0  3.904869  0  0  0.134413  0  3.920369  0  0  0.058238  0.119211  0  3.894304  0
C  C51  1  0.99274353  0.43870168  0.78662596  1  0  0.159297  0  3.657093  0  0  0.12469  0  3.906653  0  0  0.133898  0  3.922272  0  0  0.058957  0.118489  0  3.896577  0
C  C52  1  0.78014094  0.94020865  0.28677212  1  0  0.1598  0  3.654884  0  0  0.125181  0  3.90474  0  0  0.1344  0  3.92024  0  0  0.058238  0.119197  0  3.894182  0
C  C53  1  0.00726080  0.56129695  0.21336804  1  0  0.159202  0  3.656828  0  0  0.124529  0  3.906497  0  0  0.133775  0  3.922129  0  0  0.058935  0.118328  0  3.896431  0
C  C54  1  0.94989110  0.02506010  0.96399200  1  0  -0.001619  0  3.748526  0  0  -0.021574  0  3.999813  0  0  -0.018181  0  4.017639  0  0  -0.080401  -0.023554  0  3.987243  0
C  C55  1  0.93872382  0.47443027  0.53583434  1  0  -0.001364  0  3.750102  0  0  -0.02107  0  4.001441  0  0  -0.017687  0  4.019341  0  0  -0.080585  -0.023307  0  3.989586  0
C  C56  1  0.05011662  0.97495144  0.03600567  1  0  -0.001501  0  3.748548  0  0  -0.021527  0  3.999782  0  0  -0.018139  0  4.017605  0  0  -0.080354  -0.023509  0  3.987218  0
C  C57  1  0.06130907  0.52560699  0.46416991  1  0  -0.001132  0  3.749883  0  0  -0.020883  0  4.001122  0  0  -0.017503  0  4.019026  0  0  -0.080551  -0.023118  0  3.989268  0
C  C58  1  0.77860973  0.97470274  0.94153244  1  0  -0.230321  0  3.660316  0  0  -0.242097  0  3.909076  0  0  -0.253533  0  3.926676  0  0  -0.098993  -0.23461  0  3.897069  0
C  C59  1  0.69456313  0.52566248  0.55857108  1  0  -0.228193  0  3.657785  0  0  -0.240116  0  3.906518  0  0  -0.251489  0  3.924292  0  0  -0.099029  -0.232617  0  3.894565  0
C  C60  1  0.22138414  0.02531091  0.05847275  1  0  -0.230548  0  3.660759  0  0  -0.242318  0  3.909523  0  0  -0.253752  0  3.927122  0  0  -0.099099  -0.234833  0  3.897518  0
C  C61  1  0.30547544  0.47436626  0.44142855  1  0  -0.228424  0  3.657797  0  0  -0.240379  0  3.906636  0  0  -0.251766  0  3.924413  0  0  -0.099007  -0.23287  0  3.894679  0
C  C62  1  0.00421137  0.98009259  0.53829422  1  0  -0.092905  0  3.700299  0  0  -0.113623  0  3.952027  0  0  -0.116321  0  3.971402  0  0  -0.072152  -0.111712  0  3.938673  0
C  C63  1  0.52229263  0.51942656  0.96164680  1  0  -0.092381  0  3.700729  0  0  -0.113587  0  3.952626  0  0  -0.116278  0  3.972123  0  0  -0.071932  -0.111773  0  3.939643  0
C  C64  1  0.99574280  0.01990832  0.46171728  1  0  -0.092742  0  3.700023  0  0  -0.113437  0  3.951764  0  0  -0.116131  0  3.971149  0  0  -0.07193  -0.111531  0  3.938415  0
C  C65  1  0.47771348  0.48054055  0.03834848  1  0  -0.092405  0  3.700949  0  0  -0.113645  0  3.952751  0  0  -0.116345  0  3.972252  0  0  -0.07187  -0.111836  0  3.939768  0
N  N66  1  0.37899852  0.13772669  0.68271745  1  0  -0.334552  0  3.296727  0  0  -0.247356  0  3.57524  0  0  -0.267395  0  3.589021  0  0  -0.32857  -0.233769  0  3.565634  0
N  N67  1  0.20003775  0.36137002  0.81714220  1  0  -0.334593  0  3.295063  0  0  -0.247406  0  3.573452  0  0  -0.267495  0  3.587284  0  0  -0.32828  -0.233925  0  3.5642  0
N  N68  1  0.62098152  0.86227742  0.31728389  1  0  -0.334584  0  3.296612  0  0  -0.247378  0  3.575152  0  0  -0.26742  0  3.588936  0  0  -0.328547  -0.233796  0  3.565558  0
N  N69  1  0.79998511  0.63863058  0.18284973  1  0  -0.334674  0  3.295125  0  0  -0.247483  0  3.573535  0  0  -0.267566  0  3.587349  0  0  -0.328501  -0.234011  0  3.564292  0
O  O70  1  0.73055587  0.14413886  0.82776906  1  0  -0.669704  0  2.036455  0  0  -0.592474  0  2.310185  0  0  -0.622612  0  2.296815  0  0  -0.345318  -0.571192  0  2.31865  0
O  O71  1  0.70241751  0.35423302  0.67155326  1  0  -0.670103  0  2.036192  0  0  -0.591888  0  2.309397  0  0  -0.622147  0  2.29613  0  0  -0.344318  -0.570966  0  2.317906  0
O  O72  1  0.26943983  0.85584960  0.17222503  1  0  -0.669677  0  2.036375  0  0  -0.592418  0  2.310068  0  0  -0.622556  0  2.296706  0  0  -0.345317  -0.571133  0  2.318514  0
O  O73  1  0.29760097  0.64576748  0.32843782  1  0  -0.670128  0  2.036177  0  0  -0.59191  0  2.309457  0  0  -0.622147  0  2.296141  0  0  -0.344282  -0.570995  0  2.317976  0
O  O74  1  0.49856337  0.98411257  0.85559305  1  0  -0.622617  0  1.879727  0  0  -0.581061  0  2.091454  0  0  -0.603106  0  2.082854  0  0  -0.337382  -0.565599  0  2.096976  0
O  O75  1  0.33810883  0.51707978  0.64487044  1  0  -0.622181  0  1.876468  0  0  -0.580869  0  2.088512  0  0  -0.60293  0  2.079936  0  0  -0.337206  -0.565305  0  2.092809  0
O  O76  1  0.50142554  0.01587800  0.14441737  1  0  -0.622605  0  1.87965  0  0  -0.581052  0  2.091405  0  0  -0.603092  0  2.082799  0  0  -0.337283  -0.565586  0  2.096916  0
O  O77  1  0.66192357  0.48293131  0.35512383  1  0  -0.622303  0  1.876208  0  0  -0.580965  0  2.088333  0  0  -0.603012  0  2.079723  0  0  -0.337245  -0.565396  0  2.092621  0
