# generated using pymatgen
data_CdH28C26(NO)4
_symmetry_space_group_name_H-M   'P 1'
_cell_length_a   9.34176194
_cell_length_b   11.13138938
_cell_length_c   12.57700000
_cell_angle_alpha   87.43076067
_cell_angle_beta   82.51068108
_cell_angle_gamma   72.43833429
_symmetry_Int_Tables_number   1
_chemical_formula_structural   CdH28C26(NO)4
_chemical_formula_sum   'Cd2 H56 C52 N8 O8'
_cell_volume   1236.22906377
_cell_formula_units_Z   2
loop_
 _symmetry_equiv_pos_site_id
 _symmetry_equiv_pos_as_xyz
  1  'x, y, z'
loop_
 _atom_site_type_symbol
 _atom_site_label
 _atom_site_symmetry_multiplicity
 _atom_site_fract_x
 _atom_site_fract_y
 _atom_site_fract_z
 _atom_site_occupancy
 _atom_site_hle17_bader_spin_density
 _atom_site_hle17_ddec_charge
 _atom_site_hle17_ddec_spin_density
 _atom_site_hle17_ddec_sum_bond_order
 _atom_site_hle17_magmom
 _atom_site_hse06_10hf_bader_spin_density
 _atom_site_hse06_10hf_ddec_charge
 _atom_site_hse06_10hf_ddec_spin_density
 _atom_site_hse06_10hf_ddec_sum_bond_order
 _atom_site_hse06_10hf_magmom
 _atom_site_hse06_bader_spin_density
 _atom_site_hse06_ddec_charge
 _atom_site_hse06_ddec_spin_density
 _atom_site_hse06_ddec_sum_bond_order
 _atom_site_hse06_magmom
 _atom_site_pbe_bader_charge
 _atom_site_pbe_bader_spin_density
 _atom_site_pbe_cm5_charge
 _atom_site_pbe_ddec_charge
 _atom_site_pbe_ddec_spin_density
 _atom_site_pbe_ddec_sum_bond_order
 _atom_site_pbe_magmom
Cd  Cd0  1  0.94993382  0.65193507  0.91574453  1  0  1.10434  0  1.699037  0  0  0.907554  0  2.148556  0  0  0.96861  0  2.095982  0  1.271178  0  0.766372  0.864224  0  2.184266  0
Cd  Cd1  1  0.05006700  0.34806337  0.08425458  1  0  1.104355  0  1.699027  0  0  0.907585  0  2.148506  0  0  0.968639  0  2.095937  0  1.271144  0  0.766394  0.864258  0  2.184214  0
H  H2  1  0.59054003  0.75346436  0.94037226  1  0  0.082313  0  0.961432  0  0  0.090531  0  1.026242  0  0  0.092862  0  1.024154  0  0.118164  0  0.116214  0.088743  0  1.027856  0
H  H3  1  0.40946194  0.24653692  0.05962901  1  0  0.082363  0  0.961441  0  0  0.090588  0  1.026227  0  0  0.092918  0  1.024139  0  0.118126  0  0.116236  0.088803  0  1.027844  0
H  H4  1  0.36972178  0.88045534  0.06476885  1  0  0.112888  0  0.942631  0  0  0.125428  0  0.99782  0  0  0.128324  0  0.997518  0  0.083254  0  0.110632  0.123298  0  0.998342  0
H  H5  1  0.63028086  0.11954405  0.93523243  1  0  0.112865  0  0.942634  0  0  0.12541  0  0.997823  0  0  0.128304  0  0.997523  0  0.083214  0  0.11062  0.123285  0  0.99834  0
H  H6  1  0.68316256  0.88488035  0.28581925  1  0  0.110223  0  0.967871  0  0  0.116815  0  1.035782  0  0  0.120067  0  1.034958  0  0.096783  0  0.108304  0.114434  0  1.036701  0
H  H7  1  0.31683617  0.11512092  0.71418154  1  0  0.110158  0  0.967904  0  0  0.116762  0  1.035808  0  0  0.120014  0  1.034983  0  0.096812  0  0.108281  0.11438  0  1.03673  0
H  H8  1  0.89128963  0.75795156  0.15294941  1  0  0.074312  0  0.970482  0  0  0.083129  0  1.034868  0  0  0.084579  0  1.034848  0  0.125547  0  0.111775  0.082457  0  1.034464  0
H  H9  1  0.10870978  0.24204783  0.84705377  1  0  0.074325  0  0.970441  0  0  0.083145  0  1.034824  0  0  0.084594  0  1.034806  0  0.125571  0  0.111802  0.082474  0  1.034419  0
H  H10  1  0.27988937  0.00995344  0.22450545  1  0  0.080362  0  0.96459  0  0  0.092094  0  1.033073  0  0  0.093795  0  1.032625  0  0.07332  0  0.09809  0.091018  0  1.033178  0
H  H11  1  0.72011185  0.99004689  0.77549513  1  0  0.080362  0  0.964584  0  0  0.092098  0  1.033061  0  0  0.093798  0  1.03262  0  0.073277  0  0.098079  0.091023  0  1.033167  0
H  H12  1  0.34537181  0.89143400  0.31982656  1  0  0.07091  0  0.935935  0  0  0.086566  0  1.003753  0  0  0.086044  0  1.005611  0  0.046728  0  0.103302  0.08689  0  1.002794  0
H  H13  1  0.65462874  0.10856821  0.68017401  1  0  0.070909  0  0.935931  0  0  0.086572  0  1.003742  0  0  0.08605  0  1.005599  0  0.046701  0  0.103303  0.086897  0  1.002782  0
H  H14  1  0.33330117  0.21196323  0.23775546  1  0  0.070952  0  0.934217  0  0  0.086614  0  1.001449  0  0  0.087775  0  1.000189  0  0.083974  0  0.098948  0.085559  0  1.002742  0
H  H15  1  0.66669756  0.78803804  0.76224533  1  0  0.070951  0  0.934212  0  0  0.086587  0  1.001481  0  0  0.087749  0  1.000213  0  0.084003  0  0.098943  0.085533  0  1.002769  0
H  H16  1  0.52805125  0.12592808  0.20351430  1  0  0.058389  0  0.932159  0  0  0.079327  0  0.989346  0  0  0.07906  0  0.990379  0  0.025206  0  0.100553  0.079194  0  0.989264  0
H  H17  1  0.47194640  0.87407319  0.79648500  1  0  0.058364  0  0.932169  0  0  0.079315  0  0.989343  0  0  0.079049  0  0.990373  0  0.025189  0  0.100547  0.079182  0  0.989259  0
H  H18  1  0.59817681  0.19435743  0.36477046  1  0  0.026462  0  0.940695  0  0  0.039332  0  1.016338  0  0  0.040787  0  1.014136  0  0.010313  0  0.082395  0.038385  0  1.017829  0
H  H19  1  0.40182299  0.80564385  0.63522784  1  0  0.02646  0  0.940715  0  0  0.039321  0  1.01635  0  0  0.04078  0  1.014144  0  0.010309  0  0.082403  0.038377  0  1.01784  0
H  H20  1  0.49455709  0.32819041  0.29293050  1  0  0.064893  0  0.927835  0  0  0.082939  0  0.988371  0  0  0.08353  0  0.988324  0  0.05045  0  0.101155  0.082415  0  0.988615  0
H  H21  1  0.50544163  0.67181087  0.70706869  1  0  0.064903  0  0.927846  0  0  0.08294  0  0.988385  0  0  0.08353  0  0.988339  0  0.050461  0  0.101145  0.082417  0  0.988628  0
H  H22  1  0.25501943  0.21279434  0.56038745  1  0  0.054033  0  0.948803  0  0  0.072982  0  1.010793  0  0  0.072557  0  1.012707  0  0.028325  0  0.09686  0.073152  0  1.009771  0
H  H23  1  0.74498112  0.78720788  0.43961074  1  0  0.053985  0  0.948757  0  0  0.072942  0  1.010747  0  0  0.072516  0  1.01266  0  0.02816  0  0.096824  0.073111  0  1.009726  0
H  H24  1  0.44838608  0.12179330  0.53113256  1  0  0.048321  0  0.949712  0  0  0.058474  0  1.029245  0  0  0.060087  0  1.02764  0  0.037733  0  0.089875  0.057314  0  1.030451  0
H  H25  1  0.55161264  0.87820798  0.46886822  1  0  0.048288  0  0.949723  0  0  0.058435  0  1.029257  0  0  0.060045  0  1.027656  0  0.037693  0  0.089878  0.057275  0  1.030465  0
H  H26  1  0.28763918  0.01052259  0.47059989  1  0  0.050563  0  0.936407  0  0  0.065647  0  1.007157  0  0  0.066305  0  1.006005  0  0.028857  0  0.096567  0.065044  0  1.008207  0
H  H27  1  0.71235887  0.98948057  0.52940010  1  0  0.050584  0  0.9364  0  0  0.065679  0  1.007152  0  0  0.06634  0  1.005999  0  0.028819  0  0.096588  0.065075  0  1.008203  0
H  H28  1  0.19015912  0.14331528  0.39538816  1  0  0.057943  0  0.920383  0  0  0.073673  0  0.985936  0  0  0.07531  0  0.984398  0  0.067262  0  0.093385  0.072493  0  0.987043  0
H  H29  1  0.80984001  0.85668788  0.60461171  1  0  0.057947  0  0.920401  0  0  0.073679  0  0.985963  0  0  0.075328  0  0.984414  0  0.067284  0  0.093384  0.072499  0  0.987068  0
H  H30  1  0.45918369  0.43585779  0.44966956  1  0  0.067676  0  0.942674  0  0  0.086987  0  1.004951  0  0  0.086617  0  1.006304  0  0.077353  0  0.106662  0.08734  0  1.003893  0
H  H31  1  0.54081969  0.56414255  0.55032923  1  0  0.067728  0  0.942664  0  0  0.087021  0  1.004944  0  0  0.086653  0  1.00629  0  0.077415  0  0.106687  0.087375  0  1.003886  0
H  H32  1  0.53782637  0.30541706  0.53183470  1  0  0.046731  0  0.92349  0  0  0.059937  0  0.995853  0  0  0.061723  0  0.99393  0  0.037283  0  0.090644  0.058492  0  0.997595  0
H  H33  1  0.46217877  0.69458139  0.46816399  1  0  0.046758  0  0.923476  0  0  0.05994  0  0.995837  0  0  0.061725  0  0.993915  0  0.037334  0  0.090649  0.058495  0  0.99758  0
H  H34  1  0.29911998  0.51089732  0.85507252  1  0  0.080363  0  0.928645  0  0  0.090894  0  0.988777  0  0  0.0931  0  0.986931  0  0.112878  0  0.117438  0.089173  0  0.990315  0
H  H35  1  0.70088010  0.48910019  0.14492829  1  0  0.080364  0  0.928623  0  0  0.090892  0  0.988762  0  0  0.093097  0  0.986916  0  0.112892  0  0.117408  0.08917  0  0.990302  0
H  H36  1  0.48808152  0.39750927  0.70452197  1  0  0.101003  0  0.972602  0  0  0.109816  0  1.039449  0  0  0.112263  0  1.039723  0  0.070827  0  0.103377  0.107875  0  1.039819  0
H  H37  1  0.51192186  0.60249106  0.29547841  1  0  0.10102  0  0.972594  0  0  0.109831  0  1.039444  0  0  0.112279  0  1.039717  0  0.070868  0  0.103371  0.107891  0  1.039813  0
H  H38  1  0.12232810  0.46472589  0.51241002  1  0  0.108794  0  0.959589  0  0  0.11673  0  1.024364  0  0  0.119857  0  1.023622  0  0.086861  0  0.10849  0.114492  0  1.025056  0
H  H39  1  0.87767744  0.53527445  0.48758776  1  0  0.108831  0  0.959553  0  0  0.116725  0  1.02438  0  0  0.119852  0  1.023637  0  0.086584  0  0.108482  0.114487  0  1.025073  0
H  H40  1  0.94547057  0.57336760  0.67283035  1  0  0.089152  0  0.935367  0  0  0.09396  0  1.005957  0  0  0.097276  0  1.002429  0  0.09936  0  0.118027  0.091372  0  1.008728  0
H  H41  1  0.05453167  0.42662991  0.32716707  1  0  0.089134  0  0.935429  0  0  0.093938  0  1.006021  0  0  0.097254  0  1.002492  0  0.099323  0  0.118034  0.091322  0  1.00882  0
H  H42  1  0.73329382  0.40583161  0.66837761  1  0  0.094946  0  0.955223  0  0  0.106538  0  1.01731  0  0  0.109967  0  1.01539  0  0.096179  0  0.097274  0.104093  0  1.018768  0
H  H43  1  0.26670160  0.59416684  0.33162282  1  0  0.094996  0  0.955121  0  0  0.106557  0  1.017254  0  0  0.109967  0  1.015355  0  0.096179  0  0.09727  0.104109  0  1.018716  0
H  H44  1  0.88396817  0.25685315  0.52421874  1  0  0.082502  0  0.954505  0  0  0.09402  0  1.013025  0  0  0.097172  0  1.011377  0  0.051996  0  0.095037  0.091781  0  1.014409  0
H  H45  1  0.11602509  0.74314530  0.47578348  1  0  0.082501  0  0.954544  0  0  0.094021  0  1.013066  0  0  0.097173  0  1.011418  0  0.052045  0  0.095031  0.091778  0  1.01445  0
H  H46  1  0.05216120  0.04735684  0.57173629  1  0  0.08488  0  0.968075  0  0  0.09801  0  1.029333  0  0  0.100459  0  1.028754  0  0.030995  0  0.096737  0.096314  0  1.029703  0
H  H47  1  0.94783462  0.95264350  0.42826482  1  0  0.084805  0  0.968085  0  0  0.097937  0  1.029364  0  0  0.100384  0  1.028785  0  0.03097  0  0.096717  0.096239  0  1.029732  0
H  H48  1  0.90988518  0.13175522  0.90720870  1  0  0.111491  0  0.951012  0  0  0.122578  0  1.011722  0  0  0.126243  0  1.009533  0  0.093432  0  0.102134  0.119808  0  1.013529  0
H  H49  1  0.09011564  0.86824322  0.09279200  1  0  0.11153  0  0.950994  0  0  0.122618  0  1.011701  0  0  0.126283  0  1.009514  0  0.093434  0  0.102149  0.119849  0  1.013507  0
H  H50  1  0.72253608  0.31525932  0.96318025  1  0  0.124299  0  0.938377  0  0  0.137027  0  0.999162  0  0  0.140468  0  0.996364  0  0.11585  0  0.101966  0.134402  0  1.001469  0
H  H51  1  0.27746083  0.68474102  0.03681996  1  0  0.124318  0  0.938359  0  0  0.137051  0  0.999131  0  0  0.140492  0  0.996333  0  0.115852  0  0.101975  0.134422  0  1.001437  0
H  H52  1  0.60102153  0.40707638  0.87067673  1  0  0.101537  0  0.93553  0  0  0.117139  0  0.994668  0  0  0.119229  0  0.993786  0  0.023997  0  0.095821  0.115368  0  0.995796  0
H  H53  1  0.39897538  0.59292395  0.12932428  1  0  0.101541  0  0.935522  0  0  0.117147  0  0.994648  0  0  0.119238  0  0.993766  0  0.024029  0  0.095825  0.115374  0  0.995774  0
H  H54  1  0.18134752  0.97325051  0.82462213  1  0  0.101997  0  0.944332  0  0  0.116293  0  1.005468  0  0  0.118488  0  1.004749  0  0.064182  0  0.096556  0.11437  0  1.006838  0
H  H55  1  0.81865121  0.02675077  0.17537866  1  0  0.10198  0  0.944393  0  0  0.11627  0  1.005523  0  0  0.118464  0  1.004805  0  0.064181  0  0.096549  0.114347  0  1.006894  0
H  H56  1  0.17587538  0.90779693  0.70053954  1  0  0.101976  0  0.934625  0  0  0.118232  0  0.993833  0  0  0.121168  0  0.991162  0  0.027218  0  0.099645  0.116207  0  0.995668  0
H  H57  1  0.82412260  0.09220340  0.29946057  1  0  0.101979  0  0.934619  0  0  0.118227  0  0.993828  0  0  0.121162  0  0.991156  0  0.02721  0  0.099644  0.116201  0  0.995664  0
C  C58  1  0.60551097  0.78548066  0.01765266  1  0  0.126017  0  3.723379  0  0  0.095523  0  3.973435  0  0  0.103056  0  3.992802  0  0.499532  0  0.043067  0.090692  0  3.960393  0
C  C59  1  0.39449059  0.21451873  0.98234952  1  0  0.125936  0  3.723384  0  0  0.095436  0  3.973434  0  0  0.102971  0  3.992799  0  0.499348  0  0.043037  0.090599  0  3.9604  0
C  C60  1  0.48388785  0.85505677  0.08746686  1  0  -0.171046  0  3.714698  0  0  -0.187905  0  3.960276  0  0  -0.196813  0  3.98322  0  -0.076916  0  -0.084534  -0.182106  0  3.944517  0
C  C61  1  0.51611371  0.14494262  0.91253373  1  0  -0.170987  0  3.714725  0  0  -0.187848  0  3.960307  0  0  -0.196752  0  3.983251  0  -0.076734  0  -0.084518  -0.182055  0  3.944546  0
C  C62  1  0.50898599  0.89206440  0.18667206  1  0  0.14027  0  3.718328  0  0  0.154461  0  3.956045  0  0  0.159876  0  3.977705  0  -0.045415  0  0.015691  0.151216  0  3.940717  0
C  C63  1  0.49101598  0.10793688  0.81332921  1  0  0.140273  0  3.718262  0  0  0.15444  0  3.956018  0  0  0.159854  0  3.977673  0  -0.045498  0  0.015689  0.151201  0  3.940685  0
C  C64  1  0.65847950  0.85706762  0.21008200  1  0  -0.172479  0  3.718101  0  0  -0.192292  0  3.968988  0  0  -0.20052  0  3.990028  0  0.052298  0  -0.086501  -0.186614  0  3.954861  0
C  C65  1  0.34152098  0.14293177  0.78991869  1  0  -0.172433  0  3.718028  0  0  -0.192235  0  3.968905  0  0  -0.200461  0  3.989943  0  0.052303  0  -0.086487  -0.186558  0  3.954776  0
C  C66  1  0.77412147  0.78743968  0.13623255  1  0  0.130312  0  3.727074  0  0  0.100511  0  3.977163  0  0  0.108122  0  3.996427  0  0.397343  0  0.042104  0.095599  0  3.963649  0
C  C67  1  0.22587968  0.21255782  0.86377054  1  0  0.130307  0  3.727041  0  0  0.100483  0  3.977154  0  0  0.108096  0  3.996417  0  0.397364  0  0.042078  0.095572  0  3.963638  0
C  C68  1  0.37917545  0.96207774  0.26612059  1  0  -0.070999  0  3.710553  0  0  -0.125535  0  3.954764  0  0  -0.12388  0  3.96656  0  0.308821  0  -0.067633  -0.12659  0  3.946077  0
C  C69  1  0.62082544  0.03792354  0.73387919  1  0  -0.071038  0  3.710555  0  0  -0.125544  0  3.954736  0  0  -0.123901  0  3.966567  0  0.308838  0  -0.067647  -0.126592  0  3.946029  0
C  C70  1  0.43838793  0.15856441  0.27086428  1  0  -0.025023  0  3.667437  0  0  -0.081422  0  3.927359  0  0  -0.078316  0  3.939071  0  0.269697  0  -0.072106  -0.083298  0  3.919383  0
C  C71  1  0.56160972  0.84143686  0.72913582  1  0  -0.024987  0  3.667384  0  0  -0.081376  0  3.927302  0  0  -0.078266  0  3.939012  0  0.269718  0  -0.0721  -0.083251  0  3.919335  0
C  C72  1  0.48491272  0.24491429  0.34023722  1  0  -0.00324  0  3.689756  0  0  -0.061833  0  3.958284  0  0  -0.058324  0  3.969739  0  0.284979  0  -0.067887  -0.06414  0  3.950133  0
C  C73  1  0.51508668  0.75508510  0.65976199  1  0  -0.0033  0  3.689781  0  0  -0.061863  0  3.958262  0  0  -0.058355  0  3.969715  0  0.284986  0  -0.067916  -0.064178  0  3.950118  0
C  C74  1  0.34662484  0.17809062  0.49470058  1  0  -0.023357  0  3.682794  0  0  -0.080171  0  3.945845  0  0  -0.07733  0  3.957656  0  0.277536  0  -0.074376  -0.081994  0  3.937505  0
C  C75  1  0.65337246  0.82191160  0.50529872  1  0  -0.023266  0  3.682816  0  0  -0.080039  0  3.945812  0  0  -0.077201  0  3.957636  0  0.277799  0  -0.074345  -0.081863  0  3.937469  0
C  C76  1  0.30076955  0.09302885  0.42330665  1  0  -0.017044  0  3.691706  0  0  -0.075546  0  3.959959  0  0  -0.07192  0  3.970802  0  0.255626  0  -0.070007  -0.077921  0  3.952431  0
C  C77  1  0.69922992  0.90697336  0.57669323  1  0  -0.017044  0  3.691756  0  0  -0.07558  0  3.960062  0  0  -0.071959  0  3.970903  0  0.255644  0  -0.070017  -0.077955  0  3.952538  0
C  C78  1  0.43036601  0.36182745  0.50159838  1  0  -0.051593  0  3.73306  0  0  -0.111243  0  3.989405  0  0  -0.108056  0  4.000106  0  0.273103  0  -0.060919  -0.113241  0  3.981513  0
C  C79  1  0.56963879  0.63817194  0.49840030  1  0  -0.051726  0  3.733055  0  0  -0.111315  0  3.989375  0  0  -0.108126  0  4.000072  0  0.272928  0  -0.060938  -0.113313  0  3.981482  0
C  C80  1  0.26484277  0.49905740  0.77745341  1  0  0.139341  0  3.722753  0  0  0.107471  0  3.976849  0  0  0.115353  0  3.995475  0  0.471721  0  0.048498  0.102471  0  3.963929  0
C  C81  1  0.73515987  0.50094199  0.22254628  1  0  0.139312  0  3.722783  0  0  0.107443  0  3.976876  0  0  0.115326  0  3.995503  0  0.471719  0  0.048501  0.102442  0  3.963958  0
C  C82  1  0.36910014  0.43720338  0.69331796  1  0  -0.18336  0  3.731568  0  0  -0.200658  0  3.980305  0  0  -0.209221  0  4.002812  0  -0.003403  0  -0.089535  -0.195148  0  3.965266  0
C  C83  1  0.63090216  0.56279695  0.30668173  1  0  -0.183429  0  3.731475  0  0  -0.200711  0  3.980227  0  0  -0.209276  0  4.002733  0  -0.00337  0  -0.089526  -0.195201  0  3.96519  0
C  C84  1  0.31946996  0.42430998  0.59538953  1  0  0.134459  0  3.722642  0  0  0.14944  0  3.957555  0  0  0.154169  0  3.979693  0  -0.062776  0  0.012505  0.146465  0  3.942301  0
C  C85  1  0.68053592  0.57568941  0.40460905  1  0  0.134593  0  3.722521  0  0  0.149517  0  3.957503  0  0  0.154248  0  3.979637  0  -0.062772  0  0.01252  0.146543  0  3.942249  0
C  C86  1  0.16468557  0.47433822  0.58729659  1  0  -0.169693  0  3.707872  0  0  -0.185131  0  3.950497  0  0  -0.193516  0  3.972377  0  -0.029119  0  -0.084446  -0.179728  0  3.936064  0
C  C87  1  0.83531855  0.52566305  0.41270050  1  0  -0.169753  0  3.707932  0  0  -0.185154  0  3.950594  0  0  -0.19354  0  3.972474  0  -0.029045  0  -0.084431  -0.179748  0  3.936153  0
C  C88  1  0.06716020  0.53389776  0.67543203  1  0  0.132011  0  3.704605  0  0  0.102779  0  3.953669  0  0  0.11001  0  3.972539  0  0.490927  0  0.049454  0.09812  0  3.941098  0
C  C89  1  0.93284311  0.46609975  0.32456608  1  0  0.132042  0  3.704664  0  0  0.102819  0  3.953708  0  0  0.110048  0  3.97258  0  0.490898  0  0.049461  0.098184  0  3.941145  0
C  C90  1  0.80756871  0.27601845  0.79733015  1  0  0.127445  0  3.74737  0  0  0.148661  0  3.986749  0  0  0.149849  0  4.011396  0  -0.024267  0  -0.008824  0.147377  0  3.969687  0
C  C91  1  0.19242887  0.72398000  0.20267086  1  0  0.127399  0  3.747457  0  0  0.14866  0  3.986768  0  0  0.149852  0  4.011409  0  -0.024193  0  -0.008838  0.147371  0  3.969704  0
C  C92  1  0.80220757  0.31163714  0.68893424  1  0  -0.151356  0  3.760814  0  0  -0.174335  0  4.013884  0  0  -0.177778  0  4.034984  0  -0.130498  0  -0.104841  -0.171848  0  4.000473  0
C  C93  1  0.19778610  0.68836319  0.31106707  1  0  -0.151304  0  3.760789  0  0  -0.17427  0  4.013849  0  0  -0.177698  0  4.034952  0  -0.130552  0  -0.104797  -0.171784  0  4.000437  0
C  C94  1  0.88854262  0.22892451  0.60834261  1  0  -0.07345  0  3.828498  0  0  -0.085023  0  4.081996  0  0  -0.085519  0  4.102495  0  -0.071467  0  -0.100845  -0.085215  0  4.069253  0
C  C95  1  0.11145354  0.77107488  0.39165850  1  0  -0.073592  0  3.828704  0  0  -0.085166  0  4.082199  0  0  -0.085663  0  4.102691  0  -0.071563  0  -0.100868  -0.085352  0  4.069452  0
C  C96  1  0.98345408  0.11104173  0.63504259  1  0  -0.136709  0  3.746699  0  0  -0.158451  0  3.992079  0  0  -0.162005  0  4.014103  0  -0.027536  0  -0.097936  -0.155709  0  3.977341  0
C  C97  1  0.01654317  0.88895766  0.36495921  1  0  -0.136497  0  3.746681  0  0  -0.158236  0  3.99208  0  0  -0.161787  0  4.014105  0  -0.02752  0  -0.097898  -0.155489  0  3.977326  0
C  C98  1  0.99330868  0.07486049  0.74250182  1  0  0.134663  0  3.754233  0  0  0.15536  0  3.990105  0  0  0.157228  0  4.013926  0  -0.01809  0  -0.007194  0.153493  0  3.973692  0
C  C99  1  0.00668890  0.92513795  0.25749840  1  0  0.134631  0  3.754288  0  0  0.155278  0  3.99023  0  0  0.157142  0  4.014058  0  -0.018222  0  -0.007234  0.153412  0  3.973816  0
C  C100  1  0.90291974  0.15766264  0.82263399  1  0  -0.186512  0  3.680846  0  0  -0.21086  0  3.924603  0  0  -0.214921  0  3.944183  0  -0.055227  0  -0.09274  -0.207187  0  3.910034  0
C  C101  1  0.09707750  0.84233675  0.17736702  1  0  -0.186557  0  3.680949  0  0  -0.210912  0  3.924716  0  0  -0.214973  0  3.944296  0  -0.05521  0  -0.092739  -0.207241  0  3.910151  0
C  C102  1  0.71902036  0.36578697  0.88619674  1  0  -0.312712  0  3.690844  0  0  -0.356743  0  3.932712  0  0  -0.362477  0  3.939055  0  -0.04707  0  -0.164079  -0.352529  0  3.9283  0
C  C103  1  0.28097654  0.63421336  0.11380347  1  0  -0.312739  0  3.690897  0  0  -0.356779  0  3.932741  0  0  -0.362515  0  3.939085  0  -0.047078  0  -0.164086  -0.352548  0  3.928306  0
C  C104  1  0.78783149  0.47335070  0.89191924  1  0  0.700434  0  3.855053  0  0  0.656381  0  4.148778  0  0  0.689873  0  4.142932  0  1.563621  0  0.200422  0.633688  0  4.151732  0
C  C105  1  0.21216683  0.52664869  0.10808008  1  0  0.700432  0  3.855014  0  0  0.656378  0  4.148751  0  0  0.68987  0  4.142903  0  1.563649  0  0.200429  0.63368  0  4.151706  0
C  C106  1  0.10487506  0.95358862  0.77312060  1  0  -0.296085  0  3.699017  0  0  -0.33802  0  3.935645  0  0  -0.343657  0  3.942631  0  -0.021631  0  -0.161301  -0.33398  0  3.931107  0
C  C107  1  0.89512509  0.04641172  0.22687930  1  0  -0.296112  0  3.699165  0  0  -0.337994  0  3.935747  0  0  -0.343627  0  3.942729  0  -0.02142  0  -0.161293  -0.333953  0  3.931209  0
C  C108  1  0.03837317  0.85498987  0.83029345  1  0  0.679223  0  3.890308  0  0  0.639311  0  4.180498  0  0  0.672076  0  4.176029  0  1.556953  0  0.185551  0.617077  0  4.182554  0
C  C109  1  0.96162840  0.14500952  0.16970634  1  0  0.679203  0  3.890356  0  0  0.639274  0  4.180558  0  0  0.67204  0  4.176093  0  1.556775  0  0.185524  0.61704  0  4.182616  0
N  N110  1  0.74895415  0.75256352  0.04103550  1  0  -0.342011  0  3.273736  0  0  -0.263668  0  3.539761  0  0  -0.285044  0  3.558699  0  -1.236102  0  -0.335323  -0.249413  0  3.526775  0
N  N111  1  0.25104633  0.24743587  0.95896519  1  0  -0.341982  0  3.273722  0  0  -0.263625  0  3.539743  0  0  -0.285002  0  3.558681  0  -1.236035  0  -0.335299  -0.249372  0  3.526759  0
N  N112  1  0.11644489  0.54600246  0.76917219  1  0  -0.323705  0  3.254046  0  0  -0.247543  0  3.513033  0  0  -0.268194  0  3.533122  0  -1.208071  0  -0.326396  -0.233401  0  3.498754  0
N  N113  1  0.88355768  0.45399411  0.23082682  1  0  -0.323671  0  3.254118  0  0  -0.247504  0  3.513097  0  0  -0.268154  0  3.533189  0  -1.208146  0  -0.326392  -0.233359  0  3.498807  0
N  N114  1  0.41825398  0.04885697  0.33282640  1  0  -0.231666  0  3.217829  0  0  -0.15657  0  3.479966  0  0  -0.170304  0  3.498125  0  -1.030499  0  -0.346716  -0.146895  0  3.467246  0
N  N115  1  0.58174475  0.95114431  0.66717439  1  0  -0.231656  0  3.217824  0  0  -0.156604  0  3.480029  0  0  -0.170342  0  3.498193  0  -1.030499  0  -0.346704  -0.146932  0  3.467311  0
N  N116  1  0.37428290  0.28678698  0.43500633  1  0  -0.22827  0  3.207161  0  0  -0.153765  0  3.471786  0  0  -0.167956  0  3.490256  0  -1.024215  0  -0.343677  -0.143311  0  3.458071  0
N  N117  1  0.62572048  0.71321335  0.56499246  1  0  -0.228278  0  3.207238  0  0  -0.153769  0  3.471809  0  0  -0.167963  0  3.490281  0  -1.024144  0  -0.343672  -0.143313  0  3.458097  0
O  O118  1  0.74503848  0.57063306  0.83520884  1  0  -0.636834  0  1.907316  0  0  -0.584238  0  2.140484  0  0  -0.60974  0  2.131336  0  -1.186354  0  -0.325366  -0.566284  0  2.146154  0
O  O119  1  0.25495877  0.42936633  0.16479058  1  0  -0.636846  0  1.907277  0  0  -0.584251  0  2.140444  0  0  -0.609752  0  2.131294  0  -1.186336  0  -0.325389  -0.566298  0  2.146117  0
O  O120  1  0.89163317  0.45886294  0.95371047  1  0  -0.690393  0  2.068723  0  0  -0.611445  0  2.340907  0  0  -0.644899  0  2.329968  0  -1.178157  0  -0.344533  -0.587817  0  2.347402  0
O  O121  1  0.10836731  0.54113645  0.04628784  1  0  -0.690367  0  2.068747  0  0  -0.611428  0  2.340945  0  0  -0.644885  0  2.330009  0  -1.178226  0  -0.344524  -0.587801  0  2.347442  0
O  O122  1  0.10270279  0.79454269  0.90837751  1  0  -0.660885  0  1.920982  0  0  -0.604055  0  2.154517  0  0  -0.632174  0  2.144982  0  -1.183859  0  -0.347439  -0.584374  0  2.160754  0
O  O123  1  0.89729735  0.20545764  0.09162238  1  0  -0.660876  0  1.920967  0  0  -0.604048  0  2.154514  0  0  -0.632169  0  2.144981  0  -1.183448  0  -0.347428  -0.584368  0  2.160751  0
O  O124  1  0.92684975  0.83305987  0.79530638  1  0  -0.65001  0  1.947786  0  0  -0.592726  0  2.186566  0  0  -0.62078  0  2.178268  0  -1.176845  0  -0.336382  -0.573182  0  2.191723  0
O  O125  1  0.07314966  0.16693952  0.20469362  1  0  -0.64998  0  1.947795  0  0  -0.592695  0  2.186577  0  0  -0.620747  0  2.178284  0  -1.177178  0  -0.336365  -0.57315  0  2.191736  0
