# generated using pymatgen
data_MnH22C24(N7O3)2
_symmetry_space_group_name_H-M   'P 1'
_cell_length_a   7.39649480
_cell_length_b   9.34480648
_cell_length_c   11.70968119
_cell_angle_alpha   74.26195844
_cell_angle_beta   68.54048134
_cell_angle_gamma   76.57180522
_symmetry_Int_Tables_number   1
_chemical_formula_structural   MnH22C24(N7O3)2
_chemical_formula_sum   'Mn1 H22 C24 N14 O6'
_cell_volume   716.97835718
_cell_formula_units_Z   1
loop_
 _symmetry_equiv_pos_site_id
 _symmetry_equiv_pos_as_xyz
  1  'x, y, z'
loop_
 _atom_site_type_symbol
 _atom_site_label
 _atom_site_symmetry_multiplicity
 _atom_site_fract_x
 _atom_site_fract_y
 _atom_site_fract_z
 _atom_site_occupancy
 _atom_site_hle17_ddec_charge
 _atom_site_hle17_ddec_spin_density
 _atom_site_hle17_ddec_sum_bond_order
 _atom_site_hle17_magmom
 _atom_site_hse06_10hf_ddec_charge
 _atom_site_hse06_10hf_ddec_spin_density
 _atom_site_hse06_10hf_ddec_sum_bond_order
 _atom_site_hse06_10hf_magmom
 _atom_site_hse06_ddec_charge
 _atom_site_hse06_ddec_spin_density
 _atom_site_hse06_ddec_sum_bond_order
 _atom_site_hse06_magmom
 _atom_site_pbe_cm5_charge
 _atom_site_pbe_ddec_charge
 _atom_site_pbe_ddec_spin_density
 _atom_site_pbe_ddec_sum_bond_order
 _atom_site_pbe_magmom
Mn  Mn0  1  0.49999910  0.49999733  0.00000009  1  1.16635  -4.814099  1.709877  -4.695  1.00232  -4.746975  2.191908  -4.561  1.058389  -4.782921  2.126614  -4.616  0.584505  0.958267  -4.711054  2.240838  -4.509
H  H1  1  0.15715708  0.61488239  0.15790035  1  0.406573  0.000141  0.870655  -0.001  0.375085  -0.000511  0.955372  -0.001  0.384459  -0.000262  0.944094  -0.001  0.30184  0.368392  -0.000748  0.963303  -0.002
H  H2  1  0.84284381  0.38511705  0.84209879  1  0.406573  0.000142  0.870649  -0.001  0.375081  -0.000511  0.955376  -0.001  0.384455  -0.000261  0.944096  -0.001  0.301842  0.368388  -0.000748  0.963306  -0.002
H  H3  1  0.08285144  0.62588608  0.04613465  1  0.426482  -8.6e-05  0.878676  -0.001  0.393803  -0.000612  0.945254  -0.002  0.405695  -0.000404  0.928174  -0.002  0.288692  0.385359  -0.000804  0.957314  -0.002
H  H4  1  0.91714432  0.37410687  0.95386744  1  0.426407  -8.6e-05  0.878784  -0.001  0.393825  -0.000612  0.945222  -0.002  0.405717  -0.000404  0.928141  -0.002  0.288703  0.385378  -0.000804  0.957285  -0.002
H  H5  1  0.93304504  0.20376543  0.15396635  1  0.124201  -0.000143  0.921281  0.0  0.136892  -0.000348  0.982044  0.0  0.138674  -0.000238  0.981045  0.0  0.127728  0.135468  -0.000439  0.983031  0.0
H  H6  1  0.06694914  0.79622755  0.84603688  1  0.124181  -0.00014  0.92113  0.0  0.136852  -0.000347  0.981913  0.0  0.138633  -0.000238  0.980915  0.0  0.127695  0.135428  -0.000439  0.982902  0.0
H  H7  1  0.12652487  0.06652333  0.08519210  1  0.127847  0.000131  0.896124  0.0  0.144359  -1.5e-05  0.948004  0.0  0.146638  2e-05  0.946308  0.0  0.132918  0.142667  -0.000131  0.94933  0.0
H  H8  1  0.87347355  0.93347056  0.91481021  1  0.127835  0.000137  0.896104  0.0  0.144359  -1.5e-05  0.947953  0.0  0.14664  2e-05  0.946255  0.0  0.13294  0.142665  -0.000131  0.949277  0.0
H  H9  1  0.98502019  0.35977295  0.49584851  1  0.099415  1.2e-05  0.924924  0.0  0.104191  8e-06  0.991617  0.0  0.107881  9e-06  0.988813  0.0  0.119291  0.101515  3e-06  0.993698  0.0
H  H10  1  0.01498465  0.64023197  0.50414723  1  0.099433  1.1e-05  0.924963  0.0  0.104198  8e-06  0.991676  0.0  0.107877  8e-06  0.988886  0.0  0.11927  0.101523  3e-06  0.993753  0.0
H  H11  1  0.16413355  0.26301150  0.80990531  1  0.089397  1e-05  0.986936  0.0  0.095148  -9.8e-05  1.049192  0.0  0.098421  -3.5e-05  1.047644  0.0  0.11382  0.092641  -0.000171  1.050632  0.0
H  H12  1  0.83587165  0.73700233  0.19008874  1  0.089476  8e-06  0.986935  0.0  0.095228  -9.8e-05  1.049166  0.0  0.098501  -3.5e-05  1.047621  0.0  0.113838  0.092724  -0.000171  1.050608  0.0
H  H13  1  0.33084474  0.00872346  0.76464695  1  0.081935  1.9e-05  0.931113  0.0  0.089402  4e-06  0.992155  0.0  0.092509  1.5e-05  0.990171  0.0  0.115651  0.087063  -1.1e-05  0.9939  0.0
H  H14  1  0.66914319  0.99128195  0.23535769  1  0.081844  1.9e-05  0.931153  0.0  0.089353  4e-06  0.992174  0.0  0.092461  1.6e-05  0.990191  0.0  0.11563  0.087011  -1.1e-05  0.993923  0.0
H  H15  1  0.57045419  0.25133510  0.24979013  1  0.073464  -7.2e-05  0.933248  0.0  0.08302  -0.000459  0.996549  0.0  0.085278  -0.00031  0.994496  0.0  0.114776  0.081222  -0.000611  0.998346  -0.001
H  H16  1  0.42954542  0.74865866  0.75021371  1  0.073496  -7.6e-05  0.933278  0.0  0.083061  -0.000459  0.996544  0.0  0.085323  -0.000309  0.994492  0.0  0.114797  0.081265  -0.000611  0.99834  -0.001
H  H17  1  0.59124930  0.25108390  0.45430699  1  0.113234  -0.000194  0.976633  0.0  0.113417  -0.000276  1.055685  0.0  0.117577  -0.000212  1.05287  0.0  0.104473  0.110401  -0.000342  1.057974  0.0
H  H18  1  0.40875571  0.74891527  0.54569319  1  0.113295  -0.000195  0.976593  0.0  0.113439  -0.000276  1.05571  0.0  0.1176  -0.000212  1.052894  0.0  0.10448  0.110431  -0.000342  1.057991  0.0
H  H19  1  0.40426134  0.73386465  0.37994720  1  0.100366  -0.000151  1.021652  0.0  0.103873  -0.000211  1.095224  0.0  0.107367  -0.000159  1.093773  0.0  0.104399  0.101331  -0.000268  1.096555  0.0
H  H20  1  0.59574541  0.26613221  0.62005309  1  0.100469  -0.000148  1.021573  0.0  0.103984  -0.000211  1.095127  0.0  0.10748  -0.00016  1.093674  0.0  0.104431  0.101442  -0.000268  1.096459  0.0
H  H21  1  0.41058251  0.71352583  0.17395686  1  0.076859  -0.000141  0.949125  0.0  0.081374  -0.000458  1.019329  -0.001  0.084138  -0.000308  1.016498  0.0  0.116874  0.079452  -0.000611  1.021186  -0.001
H  H22  1  0.58942013  0.28647015  0.82604347  1  0.07686  -0.000136  0.949108  0.0  0.081382  -0.000458  1.019307  0.0  0.084129  -0.000309  1.016492  0.0  0.11687  0.079457  -0.000611  1.021165  -0.001
C  C23  1  0.20823730  0.28927466  0.04152871  1  0.690849  -0.00324  3.874755  -0.003  0.644246  -0.006413  4.174299  -0.006  0.677393  -0.004678  4.168262  -0.004  0.219626  0.621555  -0.008302  4.177164  -0.007
C  C24  1  0.79175952  0.71072043  0.95847367  1  0.690713  -0.003237  3.874854  -0.003  0.644037  -0.006412  4.174431  -0.006  0.677184  -0.004681  4.168395  -0.004  0.219513  0.621347  -0.008303  4.177294  -0.007
C  C25  1  0.09077557  0.16254919  0.13071952  1  -0.214584  -0.00131  3.612287  -0.001  -0.276753  -0.001568  3.869348  -0.001  -0.277317  -0.001165  3.873203  -0.001  -0.042681  -0.276234  -0.001949  3.866776  -0.001
C  C26  1  0.90921846  0.83744606  0.86928246  1  -0.214432  -0.001321  3.612058  -0.001  -0.276564  -0.001571  3.869076  -0.001  -0.277133  -0.001165  3.872932  -0.001  -0.042599  -0.27604  -0.001949  3.866501  -0.001
C  C27  1  0.17436243  0.10121483  0.41412511  1  0.219528  6e-05  3.79981  0.0  0.19633  5.2e-05  4.082532  0.0  0.203089  6.8e-05  4.099141  0.0  0.222173  0.191972  3.9e-05  4.071326  0.0
C  C28  1  0.82563238  0.89878481  0.58587679  1  0.219608  6.5e-05  3.799721  0.0  0.196418  4.7e-05  4.08242  0.0  0.203175  7.5e-05  4.09903  0.0  0.222161  0.192055  3.9e-05  4.071214  0.0
C  C29  1  0.16463838  0.14242008  0.52819331  1  0.107455  -2.6e-05  3.78565  0.0  0.114551  -0.000158  4.029816  0.0  0.115275  -9.1e-05  4.051057  0.0  0.124461  0.113674  -0.000318  4.015614  0.0
C  C30  1  0.83536329  0.85758490  0.47180469  1  0.1074  -1.7e-05  3.785742  0.0  0.114505  -0.000157  4.029897  0.0  0.115231  -9.7e-05  4.051136  0.0  0.12446  0.11364  -0.000318  4.015676  0.0
C  C31  1  0.06301503  0.28230104  0.55681606  1  0.060369  -3.9e-05  3.658722  0.0  0.027948  -4.9e-05  3.916337  0.0  0.029905  2.6e-05  3.933399  0.0  0.058563  0.026749  -0.000103  3.904911  0.0
C  C32  1  0.93699112  0.71770610  0.44317818  1  0.060316  -3.9e-05  3.658907  0.0  0.027883  -4.9e-05  3.916554  0.0  0.029858  3.3e-05  3.933597  0.0  0.058577  0.026681  -0.000103  3.905122  0.0
C  C33  1  0.15961544  0.22747783  0.72968679  1  0.059947  -1.3e-05  3.709378  0.0  0.038031  -0.000113  3.962665  0.0  0.040321  -1e-05  3.979661  0.0  0.043376  0.03646  -0.000264  3.951504  0.0
C  C34  1  0.84039427  0.77253468  0.27030671  1  0.059752  -1.1e-05  3.709455  0.0  0.037813  -0.000113  3.962803  0.0  0.040099  -3e-06  3.979804  0.0  0.043354  0.036239  -0.000264  3.951641  0.0
C  C35  1  0.25458556  0.08698843  0.70308928  1  0.060987  -5.1e-05  3.737213  0.0  0.036919  -0.000237  4.005767  0.0  0.037196  -0.00015  4.023886  0.0  0.045313  0.036583  -0.000385  3.993782  0.0
C  C36  1  0.74541558  0.91301989  0.29690907  1  0.061241  -4.3e-05  3.737311  0.0  0.037142  -0.000235  4.005856  0.0  0.037419  -0.000155  4.023979  0.0  0.04537  0.036807  -0.000385  3.993865  0.0
C  C37  1  0.53835778  0.35694733  0.28122845  1  0.136475  -0.001296  3.700105  -0.002  0.107079  -0.00323  3.95535  -0.003  0.113356  -0.002528  3.973904  -0.003  0.049876  0.103171  -0.004004  3.942221  -0.004
C  C38  1  0.46163876  0.64305115  0.71877250  1  0.136435  -0.001256  3.700156  -0.002  0.107044  -0.003229  3.9554  -0.003  0.113316  -0.002529  3.973958  -0.003  0.049861  0.103134  -0.004005  3.942275  -0.004
C  C39  1  0.54725533  0.35789797  0.39782052  1  -0.151716  -0.000449  3.673338  -0.001  -0.169633  -0.000626  3.92139  -0.001  -0.17696  -0.000181  3.943153  0.0  -0.080611  -0.164734  -0.001011  3.906756  -0.001
C  C40  1  0.45274876  0.64209910  0.60217850  1  -0.151734  -0.00048  3.673352  -0.001  -0.169644  -0.000628  3.921378  -0.001  -0.176971  -0.000179  3.943141  0.0  -0.08061  -0.164753  -0.001011  3.906738  -0.001
C  C41  1  0.49840978  0.49480837  0.43832116  1  0.098002  -0.001072  3.727268  -0.001  0.111112  -0.002217  3.951183  -0.002  0.114512  -0.001893  3.973449  -0.002  0.01192  0.108984  -0.002616  3.935905  -0.002
C  C42  1  0.50159842  0.50518842  0.56167889  1  0.097935  -0.001041  3.727325  -0.001  0.111092  -0.002215  3.951194  -0.002  0.114491  -0.001895  3.973469  -0.002  0.011915  0.108963  -0.002616  3.935926  -0.002
C  C43  1  0.44539037  0.62367233  0.35580113  1  -0.15849  3.7e-05  3.706625  0.0  -0.175857  -0.000194  3.952383  0.0  -0.183864  0.000211  3.974689  0.0  -0.084518  -0.170642  -0.000561  3.937416  -0.001
C  C44  1  0.55461903  0.37632549  0.64419938  1  -0.158609  -1.1e-05  3.706654  0.0  -0.176023  -0.000195  3.952442  0.0  -0.184031  0.000215  3.974735  0.0  -0.084574  -0.1708  -0.000561  3.937451  -0.001
C  C45  1  0.44605397  0.61275631  0.23979431  1  0.130456  -0.000995  3.7212  -0.001  0.100704  -0.002992  3.976707  -0.002  0.107318  -0.002455  3.994495  -0.002  0.047601  0.096581  -0.003535  3.964175  -0.003
C  C46  1  0.55395000  0.38723956  0.76020666  1  0.130418  -0.00099  3.721236  -0.001  0.100694  -0.002991  3.976699  -0.002  0.107319  -0.00246  3.994494  -0.002  0.047582  0.096572  -0.003535  3.964167  -0.003
N  N47  1  0.08412345  0.18846761  0.33306065  1  -0.268791  1.5e-05  2.797974  0.0  -0.261539  -5.6e-05  3.066046  0.0  -0.266134  3.8e-05  3.077099  0.0  -0.182781  -0.258905  -0.000231  3.059228  0.0
N  N48  1  0.91587044  0.81152876  0.66694115  1  -0.268847  1.3e-05  2.797864  0.0  -0.261594  -5.9e-05  3.065945  0.0  -0.266191  4e-05  3.076996  0.0  -0.182799  -0.258962  -0.000231  3.059129  0.0
N  N49  1  0.13799557  0.10809004  0.24557176  1  0.251317  0.000187  3.591191  0.0  0.297911  -2.3e-05  3.87506  0.0  0.29503  0.000102  3.896029  0.0  -0.003576  0.299438  -0.00026  3.861318  0.0
N  N50  1  0.86199966  0.89190623  0.75443068  1  0.251264  0.000189  3.591093  0.0  0.297829  -1.4e-05  3.874974  0.0  0.29495  8.9e-05  3.895942  0.0  -0.00356  0.299355  -0.00026  3.861232  0.0
N  N51  1  0.25543877  0.97898503  0.26738825  1  -0.112881  1.5e-05  2.838139  0.0  -0.111687  -5.8e-05  3.125775  0.0  -0.108719  4.2e-05  3.135543  0.0  -0.072068  -0.1137  -0.000312  3.119367  0.0
N  N52  1  0.74455911  0.02101220  0.73261440  1  -0.112715  2.6e-05  2.838005  0.0  -0.111512  -5.4e-05  3.125635  0.0  -0.108546  4.3e-05  3.135401  0.0  -0.071995  -0.113526  -0.000312  3.119229  0.0
N  N53  1  0.27884981  0.97274501  0.37500786  1  -0.24133  -8.3e-05  2.970501  0.0  -0.223979  -0.000204  3.266503  0.0  -0.231483  -0.000132  3.278341  0.0  -0.181566  -0.218765  -0.00036  3.258647  0.0
N  N54  1  0.72114634  0.02725452  0.62499469  1  -0.241471  -9.5e-05  2.970426  0.0  -0.224133  -0.000207  3.266437  0.0  -0.231633  -0.000128  3.278266  0.0  -0.181632  -0.218921  -0.00036  3.258583  0.0
N  N55  1  0.25713432  0.04253878  0.60322617  1  -0.258797  -4.7e-05  3.023717  0.0  -0.240141  -6.9e-05  3.299042  0.0  -0.246087  -3.4e-05  3.314239  0.0  -0.291061  -0.235744  -5.4e-05  3.288992  0.0
N  N56  1  0.74286273  0.95746633  0.39677434  1  -0.258828  -5.9e-05  3.023697  0.0  -0.240175  -7.1e-05  3.299035  0.0  -0.246122  -2.8e-05  3.314233  0.0  -0.291088  -0.235781  -5.4e-05  3.288977  0.0
N  N57  1  0.05887933  0.32443401  0.65823264  1  -0.275099  7.7e-05  3.074982  0.0  -0.238756  -9.8e-05  3.343885  0.0  -0.246649  -3.6e-05  3.358097  0.0  -0.306635  -0.23334  -0.000204  3.33433  0.0
N  N58  1  0.94113236  0.67557626  0.34175919  1  -0.275037  7.5e-05  3.075009  0.0  -0.238691  -0.0001  3.343921  0.0  -0.246584  -3.9e-05  3.358133  0.0  -0.306634  -0.233276  -0.000204  3.334366  0.0
N  N59  1  0.49030243  0.48158069  0.20177822  1  -0.335122  -0.025638  3.223064  -0.015  -0.266365  -0.029621  3.492329  -0.015  -0.283913  -0.026691  3.506944  -0.013  -0.31325  -0.25344  -0.03227  3.48158  -0.017
N  N60  1  0.50969584  0.51841548  0.79822285  1  -0.335064  -0.025658  3.223083  -0.015  -0.266322  -0.029622  3.492327  -0.015  -0.283866  -0.026687  3.506937  -0.013  -0.313222  -0.253398  -0.03227  3.481578  -0.017
O  O61  1  0.36297299  0.29928377  0.06029643  1  -0.651016  -0.028755  2.018795  -0.018  -0.593886  -0.034387  2.280101  -0.02  -0.624076  -0.030785  2.268319  -0.017  -0.319138  -0.571528  -0.037705  2.287226  -0.022
O  O62  1  0.63702580  0.70071024  0.93970322  1  -0.651053  -0.028758  2.01877  -0.018  -0.593869  -0.034386  2.280068  -0.02  -0.624058  -0.030783  2.268286  -0.017  -0.319122  -0.57151  -0.037704  2.287191  -0.022
O  O63  1  0.14012348  0.36868369  0.95682131  1  -0.614919  -0.002188  2.001595  -0.003  -0.558356  -0.004305  2.215101  -0.005  -0.584439  -0.003242  2.208505  -0.004  -0.30559  -0.539826  -0.005423  2.218921  -0.006
O  O64  1  0.85987135  0.63131479  0.04318166  1  -0.614894  -0.00219  2.001755  -0.003  -0.558233  -0.004305  2.215264  -0.005  -0.584317  -0.003241  2.20867  -0.004  -0.305526  -0.539706  -0.005423  2.219085  -0.006
O  O65  1  0.20199177  0.63246152  0.06618828  1  -0.835543  -0.027656  1.878155  -0.017  -0.779613  -0.036972  2.091019  -0.022  -0.801593  -0.033074  2.05858  -0.02  -0.57216  -0.76296  -0.04051  2.113487  -0.025
O  O66  1  0.79800689  0.36753360  0.93381119  1  -0.835485  -0.027656  1.878271  -0.017  -0.779612  -0.036971  2.091026  -0.022  -0.801594  -0.033073  2.058588  -0.02  -0.572173  -0.76296  -0.040509  2.113497  -0.025
