# generated using pymatgen
data_Zr3H30C37O18
_symmetry_space_group_name_H-M   'P 1'
_cell_length_a   14.86440329
_cell_length_b   14.87496936
_cell_length_c   14.88122630
_cell_angle_alpha   60.06300688
_cell_angle_beta   59.64908314
_cell_angle_gamma   59.86127122
_symmetry_Int_Tables_number   1
_chemical_formula_structural   Zr3H30C37O18
_chemical_formula_sum   'Zr6 H60 C74 O36'
_cell_volume   2319.06050728
_cell_formula_units_Z   2
loop_
 _symmetry_equiv_pos_site_id
 _symmetry_equiv_pos_as_xyz
  1  'x, y, z'
loop_
 _atom_site_type_symbol
 _atom_site_label
 _atom_site_symmetry_multiplicity
 _atom_site_fract_x
 _atom_site_fract_y
 _atom_site_fract_z
 _atom_site_occupancy
 _atom_site_pbe_bader_charge
 _atom_site_pbe_bader_spin_density
 _atom_site_pbe_cm5_charge
 _atom_site_pbe_ddec_charge
 _atom_site_pbe_ddec_spin_density
 _atom_site_pbe_ddec_sum_bond_order
 _atom_site_pbe_magmom
Zr  Zr0  1  0.88843119  0.38125879  0.61146675  1  2.631464  0  1.629444  2.36834  0  2.77471  0
Zr  Zr1  1  0.11918668  0.62611976  0.37780421  1  2.631505  0  1.622148  2.369017  0  2.718691  0
Zr  Zr2  1  0.12286416  0.38764072  0.61380107  1  2.633102  0  1.631661  2.369109  0  2.753826  0
Zr  Zr3  1  0.88390425  0.62086867  0.37692395  1  2.63212  0  1.620784  2.371334  0  2.735085  0
Zr  Zr4  1  0.87994101  0.61846520  0.61804777  1  2.633434  0  1.633049  2.361973  0  2.775521  0
Zr  Zr5  1  0.12655266  0.38531713  0.37520146  1  2.633243  0  1.628829  2.365885  0  2.739606  0
H  H6  1  0.90972182  0.40957594  0.77662043  1  0.629209  0  0.324146  0.408442  0  0.885342  0
H  H7  1  0.90195555  0.78410075  0.40700762  1  0.586488  0  0.325911  0.413539  0  0.876618  0
H  H8  1  0.28491628  0.41455933  0.40376281  1  0.612459  0  0.330629  0.418112  0  0.867097  0
H  H9  1  0.91785696  0.40701577  0.39662215  1  0.597318  0  0.331116  0.420664  0  0.862326  0
H  H10  1  0.58350078  0.72304338  0.87995814  1  0.043156  0  0.09751  0.112869  0  1.029994  0
H  H11  1  0.66686829  0.62776562  0.96482173  1  0.045756  0  0.092069  0.099167  0  0.998792  0
H  H12  1  0.49747580  0.64154576  0.13246204  1  0.018621  0  0.089896  0.09584  0  1.03411  0
H  H13  1  0.41199533  0.73348340  0.04819995  1  0.094632  0  0.101997  0.127612  0  0.989636  0
H  H14  1  0.24601030  0.03671602  0.31939223  1  0.033017  0  0.094247  0.102603  0  1.024219  0
H  H15  1  0.15925155  0.12458848  0.23775173  1  0.068331  0  0.09301  0.10156  0  1.039131  0
H  H16  1  0.14123970  0.96124074  0.24683377  1  0.038319  0  0.098497  0.110596  0  0.976432  0
H  H17  1  0.22982870  0.87270190  0.32649554  1  0.060612  0  0.094848  0.105644  0  1.032158  0
H  H18  1  0.52451792  0.85267968  0.36111843  1  0.046216  0  0.095663  0.107951  0  0.989834  0
H  H19  1  0.60503222  0.94117137  0.26392926  1  0.045569  0  0.092336  0.100289  0  0.995053  0
H  H20  1  0.42792442  0.10478802  0.26891246  1  0.05063  0  0.092668  0.105242  0  1.032268  0
H  H21  1  0.35067738  0.01591025  0.37545955  1  0.054192  0  0.097224  0.108922  0  1.005077  0
H  H22  1  0.90650534  0.77265861  0.99455530  1  0.018718  0  0.087399  0.087632  0  1.005569  0
H  H23  1  0.79205993  0.72438647  0.07789104  1  0.065737  0  0.097884  0.113494  0  0.994881  0
H  H24  1  0.79025306  0.72616887  0.90804213  1  0.045705  0  0.095382  0.104635  0  0.998038  0
H  H25  1  0.90941087  0.76778771  0.82689638  1  0.071601  0  0.097952  0.112897  0  0.988444  0
H  H26  1  0.83906564  0.27954216  0.93816357  1  0.047168  0  0.102456  0.101121  0  1.022078  0
H  H27  1  0.68634897  0.29026056  0.11300171  1  0.099432  0  0.105442  0.10359  0  1.004202  0
H  H28  1  0.81825869  0.94034057  0.26529180  1  0.077321  0  0.103589  0.107919  0  1.027661  0
H  H29  1  0.67443888  0.11903529  0.27699295  1  0.082311  0  0.106961  0.10584  0  0.991328  0
H  H30  1  0.50993631  0.38821943  0.75458931  1  0.051815  0  0.099295  0.113755  0  0.996761  0
H  H31  1  0.59378460  0.27482467  0.70395581  1  0.0421  0  0.094162  0.106623  0  1.012692  0
H  H32  1  0.42590145  0.27864917  0.69661342  1  0.054708  0  0.094874  0.105868  0  1.011179  0
H  H33  1  0.34207979  0.38678463  0.75487920  1  0.052543  0  0.098054  0.111657  0  0.982448  0
H  H34  1  0.37114699  0.30208681  0.11502414  1  0.043677  0  0.094035  0.131134  0  1.013241  0
H  H35  1  0.40792286  0.28032510  0.22120991  1  0.068116  0  0.092409  0.131049  0  1.043049  0
H  H36  1  0.50904714  0.22404563  0.11408569  1  0.035097  0  0.087522  0.118198  0  1.025287  0
H  H37  1  0.66255250  0.23779462  0.94566127  1  0.040327  0  0.089525  0.12791  0  1.005924  0
H  H38  1  0.62746322  0.34009407  0.82898600  1  0.073642  0  0.095729  0.14152  0  1.048535  0
H  H39  1  0.52658847  0.28364785  0.94650387  1  0.021665  0  0.089891  0.126497  0  1.011293  0
H  H40  1  0.78755609  0.93716511  0.74918174  1  0.030658  0  0.090906  0.125419  0  1.011403  0
H  H41  1  0.81653133  0.84850771  0.68382814  1  0.100644  0  0.096642  0.143616  0  1.061416  0
H  H42  1  0.72666272  0.98622018  0.65060668  1  0.032359  0  0.093125  0.129129  0  0.99887  0
H  H43  1  0.73321663  0.10963162  0.67821759  1  0.019944  0  0.087101  0.117669  0  1.037474  0
H  H44  1  0.78855497  0.21726914  0.61065349  1  0.046852  0  0.092795  0.133769  0  1.047761  0
H  H45  1  0.82441007  0.10657731  0.72374936  1  0.038256  0  0.092915  0.133009  0  0.985442  0
H  H46  1  0.34576445  0.09425306  0.73427297  1  0.071929  0  0.097779  0.143992  0  0.985286  0
H  H47  1  0.40772940  0.19071592  0.62054682  1  0.054835  0  0.091778  0.131644  0  1.030953  0
H  H48  1  0.48887223  0.06783909  0.69592129  1  0.030611  0  0.086261  0.117377  0  1.027224  0
H  H49  1  0.62706599  0.89194251  0.70121435  1  0.019631  0  0.089551  0.122184  0  1.037777  0
H  H50  1  0.58482769  0.78976262  0.72223856  1  0.094467  0  0.098852  0.145742  0  1.019186  0
H  H51  1  0.48516897  0.90169049  0.77140397  1  0.055091  0  0.096759  0.139687  0  0.993466  0
H  H52  1  0.20278305  0.27847935  0.89443348  1  0.054278  0  0.09587  0.133486  0  0.994405  0
H  H53  1  0.07113427  0.28994137  0.91417590  1  0.059271  0  0.088916  0.131382  0  1.039438  0
H  H54  1  0.11354659  0.22861477  0.02953815  1  0.030419  0  0.090365  0.125347  0  1.004878  0
H  H55  1  0.21213935  0.25421260  0.06141202  1  0.003958  0  0.089369  0.122988  0  1.030525  0
H  H56  1  0.13047708  0.28014642  0.18972355  1  0.076863  0  0.095529  0.138089  0  1.030792  0
H  H57  1  0.22444150  0.34928029  0.08980079  1  0.051858  0  0.098049  0.143345  0  1.006249  0
H  H58  1  0.33073855  0.73174713  0.36471447  1  0.057312  0  0.096568  0.138307  0  1.019528  0
H  H59  1  0.39291412  0.65957649  0.27368437  1  0.054351  0  0.096951  0.138864  0  1.033587  0
H  H60  1  0.46222285  0.73527628  0.26340664  1  0.058057  0  0.089868  0.125111  0  1.021357  0
H  H61  1  0.62015231  0.63964284  0.21941934  1  0.020271  0  0.088412  0.120965  0  1.016004  0
H  H62  1  0.72746467  0.57749380  0.27398862  1  0.055144  0  0.09221  0.133872  0  1.02161  0
H  H63  1  0.63079731  0.70733359  0.28234727  1  0.033498  0  0.094025  0.12777  0  1.012202  0
H  H64  1  0.07661492  0.73529181  0.00218457  1  0.611533  0  0.328458  0.360778  0  0.901984  0
H  H65  1  0.05131909  0.08016708  0.71321558  1  0.60682  0  0.324629  0.366917  0  0.913367  0
C  C66  1  0.70165607  0.49174494  0.80024610  1  1.516088  0  0.236864  0.647967  0  4.089333  0
C  C67  1  0.98933584  0.80825313  0.50352574  1  1.529537  0  0.238587  0.650779  0  4.081159  0
C  C68  1  0.31258225  0.50281756  0.19845946  1  1.529548  0  0.237629  0.65242  0  4.078848  0
C  C69  1  0.01060498  0.19816617  0.49041179  1  1.528739  0  0.23459  0.646373  0  4.093196  0
C  C70  1  0.00846928  0.19612432  0.79754279  1  1.578339  0  0.227618  0.611852  0  4.179497  0
C  C71  1  0.70396496  0.49669996  0.49391216  1  1.545823  0  0.236802  0.650164  0  4.080579  0
C  C72  1  0.00436253  0.80350646  0.18864993  1  1.592228  0  0.232057  0.632392  0  4.142486  0
C  C73  1  0.29741261  0.51532319  0.50057206  1  1.536267  0  0.237649  0.649644  0  4.087108  0
C  C74  1  0.00048682  0.50487697  0.80007111  1  1.535206  0  0.235195  0.646997  0  4.097133  0
C  C75  1  0.30356429  0.19797739  0.50062396  1  1.528872  0  0.238961  0.655474  0  4.076103  0
C  C76  1  0.01355955  0.50970436  0.18511871  1  1.537326  0  0.23456  0.645543  0  4.096746  0
C  C77  1  0.68923529  0.79415749  0.50697285  1  1.535668  0  0.237986  0.648988  0  4.084843  0
C  C78  1  0.61012213  0.48104429  0.90813116  1  -0.017991  0  -0.017054  -0.15353  0  3.945122  0
C  C79  1  0.42209040  0.48576036  0.10887854  1  -0.047953  0  -0.011799  -0.143451  0  3.928088  0
C  C80  1  0.57118494  0.55553469  0.96102493  1  -0.017118  0  -0.006815  0.062002  0  3.917183  0
C  C81  1  0.47163435  0.39728630  0.06694988  1  -0.000929  0  0.000526  0.098888  0  3.864231  0
C  C82  1  0.47850517  0.56011936  0.05618861  1  0.021373  0  -0.003451  0.070538  0  3.914821  0
C  C83  1  0.55929194  0.39869188  0.96445619  1  -0.002913  0  3.9e-05  0.098795  0  3.87431  0
C  C84  1  0.58939696  0.65067799  0.95377231  1  -0.006334  0  -0.155937  -0.199874  0  3.879679  0
C  C85  1  0.48275231  0.65793777  0.05976563  1  -0.012775  0  -0.155943  -0.204651  0  3.864669  0
C  C86  1  0.99381799  0.10659658  0.49160833  1  -0.072866  0  -0.015705  -0.147632  0  3.93467  0
C  C87  1  0.98097244  0.91302201  0.50292654  1  0.039606  0  -0.016055  -0.149777  0  3.936904  0
C  C88  1  0.06866152  0.05277698  0.41386475  1  0.014079  0  -0.009334  0.057667  0  3.920051  0
C  C89  1  0.89900705  0.96993711  0.58014091  1  -3.6e-05  0  0.000182  0.101302  0  3.86412  0
C  C90  1  0.06101996  0.96078935  0.41885735  1  -0.073717  0  -0.008552  0.059792  0  3.941954  0
C  C91  1  0.90355724  0.06695807  0.57239204  1  0.026311  0  -0.000254  0.098991  0  3.852344  0
C  C92  1  0.17025200  0.05205885  0.31038487  1  -0.013757  0  -0.155669  -0.198188  0  3.878851  0
C  C93  1  0.16000366  0.94918546  0.31548748  1  -0.024161  0  -0.155336  -0.196563  0  3.88741  0
C  C94  1  0.58562385  0.89101592  0.51468548  1  -0.039474  0  -0.014795  -0.147671  0  3.938716  0
C  C95  1  0.40120303  0.09515114  0.50641726  1  0.003084  0  -0.014126  -0.146145  0  3.9326  0
C  C96  1  0.53594163  0.94259201  0.43501835  1  -0.011811  0  -0.010893  0.054073  0  3.932285  0
C  C97  1  0.45211111  0.04570918  0.58714719  1  0.00214  0  0.006941  0.111348  0  3.856654  0
C  C98  1  0.44384796  0.03798039  0.43440957  1  -0.010987  0  -0.008995  0.056724  0  3.922078  0
C  C99  1  0.53504775  0.94012393  0.59760469  1  0.012774  0  0.007709  0.115282  0  3.849322  0
C  C100  1  0.53471775  0.92961303  0.34090131  1  -0.029474  0  -0.153928  -0.197552  0  3.886428  0
C  C101  1  0.42626867  0.03392097  0.34485585  1  -0.012551  0  -0.154071  -0.200207  0  3.874692  0
C  C102  1  0.01605390  0.50604217  0.08544593  1  -0.073536  0  -0.01754  -0.148962  0  3.943621  0
C  C103  1  0.00292355  0.50038766  0.90135606  1  0.021791  0  -0.015034  -0.142088  0  3.939451  0
C  C104  1  0.94950323  0.59516684  0.02462433  1  -0.011389  0  -0.013995  0.047016  0  3.943712  0
C  C105  1  0.06657022  0.40547889  0.96586990  1  0.01114  0  0.002367  0.098225  0  3.865212  0
C  C106  1  0.94612167  0.59362441  0.93362684  1  -0.044534  0  -0.012157  0.053178  0  3.93361  0
C  C107  1  0.07984532  0.41146019  0.05064681  1  0.058116  0  0.003216  0.107439  0  3.864933  0
C  C108  1  0.87206723  0.71338923  0.01081927  1  -0.034421  0  -0.152979  -0.195131  0  3.884658  0
C  C109  1  0.87119268  0.71247955  0.90548964  1  -0.033338  0  -0.152588  -0.197616  0  3.874809  0
C  C110  1  0.00687708  0.09366885  0.89787553  1  -0.069277  0  -0.002388  -0.081013  0  3.917399  0
C  C111  1  0.92108441  0.10324727  0.00016099  1  0.00924  0  -0.000286  0.057766  0  3.963621  0
C  C112  1  0.08652264  0.99253218  0.88914448  1  0.00622  0  -0.011292  -0.098788  0  3.972276  0
C  C113  1  0.83722326  0.20532584  0.01017860  1  -0.018841  0  -0.085589  -0.119996  0  3.963174  0
C  C114  1  0.75092565  0.21128910  0.10803563  1  -0.063762  0  -0.083582  -0.071326  0  4.003756  0
C  C115  1  0.00395495  0.90433127  0.08647537  1  -0.055882  0  -0.005025  -0.093968  0  3.912769  0
C  C116  1  0.08820786  0.89777529  0.98651410  1  0.018211  0  -0.006047  -0.090567  0  3.96868  0
C  C117  1  0.91650945  0.00593857  0.09516297  1  0.026102  0  0.002438  0.069003  0  3.956909  0
C  C118  1  0.82564197  0.01458069  0.19437879  1  -0.08688  0  -0.08795  -0.129276  0  3.959417  0
C  C119  1  0.74445862  0.11476749  0.20055837  1  0.015312  0  -0.082685  -0.068749  0  4.002194  0
C  C120  1  0.60544958  0.49874022  0.48838433  1  0.007517  0  -0.015449  -0.145758  0  3.935238  0
C  C121  1  0.40034489  0.51556436  0.49475290  1  -0.084741  0  -0.016572  -0.148958  0  3.944294  0
C  C122  1  0.54059103  0.43575307  0.57826559  1  -0.044072  0  -0.00994  0.054985  0  3.918961  0
C  C123  1  0.46149079  0.58567121  0.40454028  1  0.018322  0  0.002099  0.104592  0  3.873897  0
C  C124  1  0.44424084  0.44058210  0.57895817  1  0.023718  0  -0.008626  0.059685  0  3.933585  0
C  C125  1  0.56731910  0.57007974  0.39665796  1  0.020991  0  0.001876  0.099149  0  3.861226  0
C  C126  1  0.52705243  0.35450755  0.69461519  1  -0.007206  0  -0.154469  -0.200727  0  3.870275  0
C  C127  1  0.42054373  0.35655605  0.69325176  1  -0.03806  0  -0.154114  -0.200307  0  3.880061  0
C  C128  1  0.43790043  0.29591627  0.13270808  1  -0.083802  0  -0.247816  -0.418013  0  4.001199  0
C  C129  1  0.59541705  0.31071064  0.91875182  1  -0.039465  0  -0.249331  -0.424131  0  3.984078  0
C  C130  1  0.80295690  0.93233080  0.67118118  1  -0.097711  0  -0.249468  -0.429138  0  3.987695  0
C  C131  1  0.80752136  0.12829786  0.65001524  1  -0.019418  0  -0.249326  -0.415878  0  3.991181  0
C  C132  1  0.42205957  0.10244981  0.66373293  1  -0.063291  0  -0.245075  -0.419013  0  3.990515  0
C  C133  1  0.55977329  0.87808676  0.70364471  1  -0.086753  0  -0.24501  -0.420209  0  3.974019  0
C  C134  1  0.11614857  0.29515024  0.95004212  1  -0.069983  0  -0.244568  -0.409268  0  3.984483  0
C  C135  1  0.16577094  0.31767062  0.10049011  1  -0.050856  0  -0.24689  -0.422979  0  3.979902  0
C  C136  1  0.41107263  0.68256818  0.32058454  1  -0.083161  0  -0.245707  -0.420512  0  3.978573  0
C  C137  1  0.63990041  0.62689180  0.28757008  1  -0.037289  0  -0.244915  -0.413695  0  3.996188  0
C  C138  1  0.18111639  0.78884041  0.98536803  1  1.541763  0  0.235551  0.579551  0  4.115074  0
C  C139  1  0.16937504  0.98100738  0.77853666  1  1.549304  0  0.230473  0.567989  0  4.11121  0
O  O140  1  0.74399330  0.42013272  0.75331911  1  -1.189702  0  -0.362781  -0.617244  0  2.340809  0
O  O141  1  0.06726810  0.77325416  0.42383703  1  -1.169984  0  -0.343088  -0.605977  0  2.264185  0
O  O142  1  0.27377259  0.58217737  0.23420234  1  -1.169415  0  -0.341842  -0.604793  0  2.220294  0
O  O143  1  0.94724440  0.23252130  0.57345881  1  -1.19115  0  -0.368224  -0.631168  0  2.378995  0
O  O144  1  0.08100356  0.23748117  0.76393048  1  -1.16464  0  -0.32797  -0.5817  0  2.254349  0
O  O145  1  0.74218369  0.57549619  0.42360765  1  -1.18872  0  -0.35533  -0.611205  0  2.337244  0
O  O146  1  0.92659698  0.76599672  0.22848551  1  -1.175906  0  -0.346502  -0.617677  0  2.285882  0
O  O147  1  0.26412735  0.43382738  0.57454519  1  -1.180216  0  -0.350582  -0.612414  0  2.257661  0
O  O148  1  0.92035093  0.57923800  0.76537241  1  -1.178372  0  -0.345346  -0.610196  0  2.236125  0
O  O149  1  0.26878832  0.23779294  0.42051544  1  -1.183604  0  -0.35094  -0.619553  0  2.251485  0
O  O150  1  0.08845366  0.43647798  0.22716474  1  -1.183963  0  -0.3488  -0.598857  0  2.358584  0
O  O151  1  0.73483292  0.75357289  0.57864310  1  -1.187454  0  -0.361196  -0.614231  0  2.349509  0
O  O152  1  0.25926206  0.24120538  0.57556539  1  -1.184976  0  -0.358843  -0.617105  0  2.342694  0
O  O153  1  0.93255878  0.58525397  0.22511123  1  -1.184595  0  -0.355295  -0.624572  0  2.260546  0
O  O154  1  0.73069948  0.76075743  0.42515818  1  -1.174462  0  -0.349665  -0.613843  0  2.243416  0
O  O155  1  0.08056997  0.43482109  0.75273203  1  -1.181866  0  -0.358253  -0.61557  0  2.330372  0
O  O156  1  0.93504824  0.23114743  0.75604760  1  -1.173763  0  -0.345354  -0.62121  0  2.294776  0
O  O157  1  0.25040098  0.59262023  0.43039346  1  -1.180358  0  -0.355279  -0.610636  0  2.3454  0
O  O158  1  0.08088619  0.76617877  0.22634858  1  -1.166604  0  -0.33691  -0.596464  0  2.247341  0
O  O159  1  0.74308138  0.41801198  0.56994699  1  -1.185408  0  -0.346925  -0.614122  0  2.236357  0
O  O160  1  0.08612638  0.23703663  0.40947102  1  -1.17576  0  -0.336999  -0.603015  0  2.206325  0
O  O161  1  0.73527764  0.57248476  0.76078124  1  -1.170957  0  -0.347901  -0.608846  0  2.28283  0
O  O162  1  0.92012951  0.75918018  0.58109845  1  -1.182497  0  -0.359091  -0.610393  0  2.346289  0
O  O163  1  0.26179084  0.43688082  0.23337920  1  -1.174577  0  -0.363236  -0.614066  0  2.365506  0
O  O164  1  0.94134743  0.43414454  0.42563799  1  -1.224808  0  -0.695682  -1.074094  0  2.37703  0
O  O165  1  0.20480854  0.43995421  0.42958093  1  -1.239353  0  -0.693428  -1.068138  0  2.383758  0
O  O166  1  0.93192723  0.70446684  0.42913103  1  -1.221232  0  -0.692944  -1.069155  0  2.372055  0
O  O167  1  0.93715439  0.43340243  0.69681560  1  -1.268102  0  -0.69853  -1.071282  0  2.394242  0
O  O168  1  0.04907284  0.55466048  0.54565415  1  -1.19358  0  -0.792715  -1.146761  0  2.149298  0
O  O169  1  0.85522824  0.54884698  0.54499812  1  -1.196865  0  -0.794184  -1.149366  0  2.148497  0
O  O170  1  0.05267049  0.55425567  0.34875785  1  -1.191792  0  -0.787085  -1.141887  0  2.127722  0
O  O171  1  0.05591417  0.35607428  0.54342385  1  -1.198153  0  -0.794451  -1.146405  0  2.142798  0
O  O172  1  0.15407619  0.70777329  0.99580496  1  -1.097999  0  -0.331726  -0.462606  0  2.194881  0
O  O173  1  0.27208824  0.76983019  0.98115935  1  -1.086012  0  -0.242735  -0.406559  0  2.128943  0
O  O174  1  0.13063786  0.03745676  0.69242326  1  -1.099734  0  -0.332468  -0.465085  0  2.224707  0
O  O175  1  0.26588279  0.92320099  0.76349384  1  -1.111654  0  -0.258412  -0.421586  0  2.102189  0
