# generated using pymatgen
data_Al3H24(C22O7)2
_symmetry_space_group_name_H-M   'P 1'
_cell_length_a   12.80366348
_cell_length_b   12.66725909
_cell_length_c   28.66523437
_cell_angle_alpha   89.89658278
_cell_angle_beta   89.88143246
_cell_angle_gamma   60.88967330
_symmetry_Int_Tables_number   1
_chemical_formula_structural   Al3H24(C22O7)2
_chemical_formula_sum   'Al6 H48 C88 O28'
_cell_volume   4061.86932965
_cell_formula_units_Z   2
loop_
 _symmetry_equiv_pos_site_id
 _symmetry_equiv_pos_as_xyz
  1  'x, y, z'
loop_
 _atom_site_type_symbol
 _atom_site_label
 _atom_site_symmetry_multiplicity
 _atom_site_fract_x
 _atom_site_fract_y
 _atom_site_fract_z
 _atom_site_occupancy
 _atom_site_pbe_bader_charge
 _atom_site_pbe_bader_spin_density
 _atom_site_pbe_cm5_charge
 _atom_site_pbe_ddec_charge
 _atom_site_pbe_ddec_spin_density
 _atom_site_pbe_ddec_sum_bond_order
 _atom_site_pbe_magmom
Al  Al0  1  0.40955371  0.41232877  0.49891637  1  2.493899  0  0.39778  1.681903  0  2.557387  0
Al  Al1  1  0.42351713  0.65836362  0.50061685  1  2.472524  0  0.5097  1.661263  0  2.506423  0
Al  Al2  1  0.65500433  0.42465791  0.50052707  1  2.473759  0  0.50773  1.659902  0  2.511449  0
Al  Al3  1  0.92167254  0.91976047  0.99986116  1  2.494949  0  0.397329  1.685769  0  2.555782  0
Al  Al4  1  0.67523274  0.90996228  0.99946557  1  2.478649  0  0.506777  1.661187  0  2.511875  0
Al  Al5  1  0.90539962  0.67496476  0.99908973  1  2.475692  0  0.509109  1.661002  0  2.507084  0
H  H6  1  0.47012077  0.79316349  0.77973339  1  0.094218  0  0.10282  0.096886  0  0.995224  0
H  H7  1  0.47802683  0.20928053  0.70677979  1  0.072255  0  0.108865  0.109718  0  0.99307  0
H  H8  1  0.17257751  0.52189401  0.70030338  1  0.117041  0  0.102991  0.104467  0  1.034354  0
H  H9  1  0.13495645  0.51926910  0.78526091  1  0.078866  0  0.103511  0.10512  0  1.031745  0
H  H10  1  0.16648993  0.83989478  0.80253714  1  0.094911  0  0.112526  0.120051  0  0.983972  0
H  H11  1  0.77325995  0.47028974  0.28852402  1  0.120084  0  0.115378  0.119021  0  0.980816  0
H  H12  1  0.78791685  0.48601555  0.20239561  1  0.112192  0  0.116907  0.12138  0  0.974352  0
H  H13  1  0.54885543  0.87038000  0.21007366  1  0.10445  0  0.116848  0.121223  0  0.976921  0
H  H14  1  0.53402207  0.85461884  0.29616727  1  0.092524  0  0.117408  0.122205  0  0.973595  0
H  H15  1  0.69242189  0.00256781  0.30766494  1  0.0979  0  0.112855  0.116615  0  0.982864  0
H  H16  1  0.59500747  0.85563618  0.71270009  1  0.085043  0  0.105415  0.09682  0  0.983557  0
H  H17  1  0.69605293  0.96535057  0.22233679  1  0.058933  0  0.107308  0.108314  0  1.00577  0
H  H18  1  0.66383552  0.31492558  0.19461923  1  0.107999  0  0.112358  0.116129  0  0.983282  0
H  H19  1  0.65987677  0.35225826  0.27996744  1  0.054384  0  0.106446  0.105147  0  1.009811  0
H  H20  1  0.06381297  0.85750024  0.29735825  1  0.092287  0  0.111528  0.116301  0  0.98165  0
H  H21  1  0.01977920  0.86294518  0.21223770  1  0.074176  0  0.110597  0.117595  0  0.984715  0
H  H22  1  0.24671919  0.47713814  0.20518226  1  0.066201  0  0.109074  0.120026  0  1.003783  0
H  H23  1  0.75000233  0.45955872  0.78721261  1  0.07103  0  0.105757  0.107451  0  0.985681  0
H  H24  1  0.80383456  0.74131714  0.76827344  1  0.073427  0  0.10978  0.107726  0  0.972524  0
H  H25  1  0.81976763  0.17344752  0.80059025  1  0.082169  0  0.111977  0.121706  0  1.000347  0
H  H26  1  0.48524461  0.17113862  0.79284064  1  0.066742  0  0.111194  0.116141  0  0.984702  0
H  H27  1  0.28474466  0.83399924  0.64399400  1  0.050369  0  0.087793  0.121635  0  1.019446  0
H  H28  1  0.12777544  0.92212200  0.64975195  1  0.029054  0  0.089172  0.12174  0  0.994126  0
H  H29  1  0.22052370  0.98683529  0.66181157  1  0.019998  0  0.087288  0.114969  0  0.999091  0
H  H30  1  0.16451128  0.95057810  0.73713191  1  0.033456  0  0.092852  0.08326  0  1.009224  0
H  H31  1  0.31366527  0.84154411  0.72896223  1  0.014319  0  0.093434  0.086094  0  0.994755  0
H  H32  1  0.28240919  0.31336759  0.25624085  1  0.022764  0  0.086991  0.1134  0  0.999503  0
H  H33  1  0.41090855  0.32195755  0.23799661  1  0.027545  0  0.081064  0.104817  0  1.028287  0
H  H34  1  0.41571654  0.24335395  0.28974950  1  0.03266  0  0.087667  0.119644  0  1.008604  0
H  H35  1  0.39568766  0.44348860  0.31001410  1  0.048194  0  0.096507  0.095296  0  0.971571  0
H  H36  1  0.27349062  0.43125765  0.32985682  1  0.06605  0  0.106264  0.113554  0  0.951087  0
H  H37  1  0.54997957  0.45658112  0.79443796  1  0.020314  0  0.083348  0.10978  0  1.016416  0
H  H38  1  0.42452202  0.60413275  0.79526676  1  -0.006774  0  0.084094  0.111993  0  1.011589  0
H  H39  1  0.41693948  0.48656170  0.76476070  1  0.069468  0  0.083441  0.113867  0  1.025604  0
H  H40  1  0.44681894  0.61822082  0.70702572  1  0.005932  0  0.091819  0.09031  0  1.002794  0
H  H41  1  0.57366770  0.47375885  0.70786874  1  0.037974  0  0.091196  0.089047  0  1.000373  0
H  H42  1  0.96872152  0.44563902  0.79033542  1  0.067083  0  0.107307  0.107304  0  0.98578  0
H  H43  1  0.17674747  0.29808610  0.76872914  1  0.058097  0  0.103686  0.098291  0  0.98693  0
H  H44  1  0.23715221  0.26215089  0.68478517  1  0.065074  0  0.10116  0.09439  0  1.002168  0
H  H45  1  0.08723232  0.37662357  0.62312547  1  0.090636  0  0.112405  0.112538  0  0.974795  0
H  H46  1  0.87894878  0.52356511  0.64479854  1  0.1225  0  0.100843  0.102732  0  1.031768  0
H  H47  1  0.92708351  0.25147817  0.76657064  1  0.021217  0  0.08272  0.103845  0  1.031166  0
H  H48  1  0.99014418  0.09690197  0.75111958  1  0.039183  0  0.084798  0.110266  0  1.017969  0
H  H49  1  0.01668912  0.19770551  0.71607273  1  0.039631  0  0.087212  0.120344  0  1.024449  0
H  H50  1  0.86773351  0.15998385  0.67589177  1  0.058392  0  0.101394  0.103519  0  0.964832  0
H  H51  1  0.80146876  0.31026539  0.69344458  1  0.059853  0  0.098015  0.098834  0  0.973138  0
H  H52  1  0.32350944  0.29843306  0.52640339  1  0.587753  0  0.291113  0.379635  0  0.92817  0
H  H53  1  0.01649895  0.02324026  0.02959118  1  0.587547  0  0.294403  0.387113  0  0.916762  0
C  C54  1  0.28823084  0.62046520  0.56709828  1  1.605337  0  0.274627  0.708277  0  4.170292  0
C  C55  1  0.63779620  0.63215206  0.61185361  1  0.289071  0  -0.044042  -0.222185  0  3.94554  0
C  C56  1  0.74445482  0.70468937  0.75986118  1  -0.011948  0  -0.057571  -0.087451  0  3.576411  0
C  C57  1  0.67549255  0.66999586  0.79781279  1  0.10016  0  0.00832  0.119482  0  3.808215  0
C  C58  1  0.78540328  0.58109474  0.73368058  1  0.026877  0  0.011258  0.045904  0  3.663623  0
C  C59  1  0.66852877  0.64626864  0.70204989  1  0.133324  0  0.00819  0.045821  0  3.764735  0
C  C60  1  0.71505829  0.54815350  0.77057178  1  -0.04041  0  -0.067764  -0.141845  0  3.600232  0
C  C61  1  0.59933528  0.61034174  0.74028818  1  0.033943  0  0.01169  0.106557  0  3.627447  0
C  C62  1  0.68321500  0.68446892  0.84640389  1  -0.538665  0  -0.011999  -0.00963  0  4.047144  0
C  C63  1  0.65494390  0.63772209  0.65349213  1  -0.580981  0  -0.006116  0.00947  0  4.057683  0
C  C64  1  0.63541848  0.24941442  0.61496092  1  0.085769  0  -0.034214  -0.193092  0  3.941339  0
C  C65  1  0.61106356  0.61172549  0.56529445  1  1.628136  0  0.28209  0.722501  0  4.155124  0
C  C66  1  0.74320816  0.20365614  0.73164077  1  0.001782  0  0.008036  0.090276  0  3.908479  0
C  C67  1  0.74540064  0.18247413  0.77936094  1  -0.032672  0  -0.078124  -0.178264  0  3.901146  0
C  C68  1  0.55595848  0.18057256  0.77542161  1  -0.027824  0  -0.079637  -0.130905  0  3.974927  0
C  C69  1  0.55234561  0.20125959  0.72783548  1  -0.002974  0  -0.075749  -0.10745  0  3.979893  0
C  C70  1  0.64512272  0.21191084  0.70551119  1  0.100583  0  0.002542  0.063126  0  4.086878  0
C  C71  1  0.65370292  0.16973523  0.80164099  1  0.120383  0  0.007109  0.138362  0  4.125676  0
C  C72  1  0.66442180  0.14044154  0.84957404  1  -0.415064  0  -0.018379  -0.032706  0  4.081535  0
C  C73  1  0.63973110  0.23160213  0.65688890  1  -0.365205  0  -0.016591  -0.024083  0  4.113823  0
C  C74  1  0.68066794  0.10887668  0.89027299  1  0.180708  0  -0.03096  -0.179512  0  3.943463  0
C  C75  1  0.24099528  0.64977826  0.61352709  1  0.260569  0  -0.034728  -0.199107  0  3.93089  0
C  C76  1  0.61405795  0.29166403  0.56764799  1  1.638408  0  0.274099  0.712435  0  4.165538  0
C  C77  1  0.17151872  0.59102131  0.72315529  1  -0.0172  0  -0.075723  -0.10574  0  3.960559  0
C  C78  1  0.15040089  0.58939933  0.77031601  1  -0.023845  0  -0.082176  -0.129046  0  3.977594  0
C  C79  1  0.16858784  0.77021371  0.77959308  1  -0.041534  0  -0.077038  -0.18397  0  3.920379  0
C  C80  1  0.19282293  0.77248721  0.73211521  1  -0.012218  0  0.008133  0.086333  0  3.891454  0
C  C81  1  0.19320095  0.68111398  0.70331689  1  0.088721  0  0.005219  0.067465  0  4.054035  0
C  C82  1  0.14800361  0.68026793  0.79930770  1  0.07621  0  0.005601  0.136137  0  4.132277  0
C  C83  1  0.12272214  0.68172661  0.84736512  1  0.149835  0  -0.016206  -0.023809  0  4.071533  0
C  C84  1  0.21821992  0.67010054  0.65491815  1  -0.504738  0  -0.010554  -0.006188  0  4.086651  0
C  C85  1  0.09727728  0.68390606  0.88844906  1  -0.415008  0  -0.033009  -0.185686  0  3.940943  0
C  C86  1  0.63175955  0.63874981  0.38860873  1  0.300318  0  -0.030209  -0.187684  0  3.923894  0
C  C87  1  0.28732467  0.62356629  0.43371144  1  1.67949  0  0.279067  0.707839  0  4.166039  0
C  C88  1  0.72403175  0.55743897  0.27109781  1  -0.060354  0  -0.071186  -0.113558  0  3.940928  0
C  C89  1  0.73221045  0.56614365  0.22311240  1  -0.016852  0  -0.069661  -0.110515  0  3.936061  0
C  C90  1  0.59774920  0.78312218  0.22745711  1  -0.027933  0  -0.070495  -0.113503  0  3.93983  0
C  C91  1  0.58958278  0.77439609  0.27546901  1  0.012432  0  -0.069426  -0.110641  0  3.936366  0
C  C92  1  0.65231802  0.66134844  0.29808835  1  0.03128  0  0.009286  0.126794  0  4.097771  0
C  C93  1  0.66916609  0.67914737  0.20046439  1  0.073709  0  0.010813  0.128485  0  4.095513  0
C  C94  1  0.68003621  0.68855509  0.15163186  1  -0.360777  0  -0.007024  -0.013389  0  4.049702  0
C  C95  1  0.64178955  0.65074592  0.34686569  1  -0.506724  0  -0.006462  -0.012005  0  4.051316  0
C  C96  1  0.69245733  0.69685588  0.10981318  1  0.155535  0  -0.028544  -0.184733  0  3.92074  0
C  C97  1  0.65535625  0.23201904  0.38888206  1  0.174638  0  -0.029561  -0.181846  0  3.928918  0
C  C98  1  0.60929287  0.61242513  0.43513372  1  1.628797  0  0.284867  0.720703  0  4.149068  0
C  C99  1  0.68660330  0.07033607  0.28276297  1  -0.045226  0  -0.076087  -0.12075  0  3.9623  0
C  C100  1  0.68813691  0.04985437  0.23519086  1  0.015907  0  -0.077572  -0.119964  0  3.959073  0
C  C101  1  0.67038924  0.24688539  0.21953939  1  -0.034216  0  -0.076315  -0.120156  0  3.960414  0
C  C102  1  0.66871431  0.26740094  0.26709710  1  -0.014776  0  -0.0776  -0.117559  0  3.959746  0
C  C103  1  0.67614465  0.17976677  0.29940946  1  0.108189  0  0.005284  0.122953  0  4.115636  0
C  C104  1  0.67956382  0.13798662  0.20287625  1  0.099829  0  0.004095  0.124207  0  4.118435  0
C  C105  1  0.68173434  0.11566603  0.15450380  1  -0.493112  0  -0.015321  -0.024223  0  4.078782  0
C  C106  1  0.66788231  0.20508239  0.34770055  1  -0.465963  0  -0.013132  -0.02176  0  4.072119  0
C  C107  1  0.68583387  0.09326920  0.11303490  1  0.212713  0  -0.032097  -0.183338  0  3.933355  0
C  C108  1  0.23523050  0.65275816  0.38800476  1  -0.156023  0  -0.033217  -0.197171  0  3.93872  0
C  C109  1  0.62240014  0.28482103  0.43461956  1  1.680715  0  0.280612  0.70779  0  4.16897  0
C  C110  1  0.10350141  0.77471977  0.27679525  1  -0.079238  0  -0.078605  -0.113399  0  3.985989  0
C  C111  1  0.07890139  0.77792284  0.22960083  1  -0.031091  0  -0.081383  -0.129097  0  3.969612  0
C  C112  1  0.20771524  0.55942678  0.22598110  1  -0.092268  0  -0.081443  -0.182099  0  3.909462  0
C  C113  1  0.23402329  0.55429780  0.27331084  1  0.053415  0  0.007921  0.093724  0  3.898964  0
C  C114  1  0.18055529  0.66446725  0.29901283  1  0.140535  0  0.002201  0.062068  0  4.082196  0
C  C115  1  0.13142300  0.66969791  0.20360811  1  0.137701  0  0.003097  0.131508  0  4.130222  0
C  C116  1  0.10726641  0.67330686  0.15534557  1  -0.537754  0  -0.014779  -0.019095  0  4.073834  0
C  C117  1  0.20711481  0.66186577  0.34697367  1  -0.136426  0  -0.01144  -0.011276  0  4.095542  0
C  C118  1  0.08400258  0.68168620  0.11384153  1  0.256943  0  -0.037867  -0.195277  0  3.944446  0
C  C119  1  0.71505395  0.05008012  0.93482647  1  1.614288  0  0.278346  0.706519  0  4.167668  0
C  C120  1  0.62886745  0.76779887  0.72977069  1  -0.026642  0  -0.067121  -0.066268  0  3.653384  0
C  C121  1  0.71557291  0.72663436  0.93402493  1  1.627267  0  0.283109  0.723219  0  4.148552  0
C  C122  1  0.04531617  0.70797644  0.93425184  1  1.661315  0  0.279709  0.707071  0  4.168678  0
C  C123  1  0.70957637  0.04581327  0.06632207  1  1.671843  0  0.277598  0.711836  0  4.165674  0
C  C124  1  0.71989069  0.71837578  0.06332153  1  1.651759  0  0.285662  0.719886  0  4.150457  0
C  C125  1  0.03764326  0.71217601  0.06729905  1  1.661963  0  0.276596  0.713697  0  4.160958  0
C  C126  1  0.55980228  0.73315115  0.76618727  1  -0.07161  0  -0.069482  -0.114639  0  3.610511  0
C  C127  1  0.69236056  0.69914694  0.88796633  1  0.314582  0  -0.043541  -0.211519  0  3.960341  0
C  C128  1  0.22224069  0.86945258  0.71656829  1  0.020252  0  -0.156319  -0.139352  0  3.982604  0
C  C129  1  0.21337022  0.90415199  0.66509779  1  -0.060796  0  -0.245677  -0.353399  0  3.961964  0
C  C130  1  0.31722512  0.43736947  0.29758948  1  -0.003787  0  -0.155201  -0.144148  0  3.97722  0
C  C131  1  0.35852919  0.32306241  0.26861189  1  -0.075675  0  -0.246772  -0.353535  0  3.986363  0
C  C132  1  0.52186718  0.55549446  0.72913976  1  0.034271  0  -0.162963  -0.155537  0  3.998518  0
C  C133  1  0.47579136  0.52400191  0.77337004  1  -0.065374  0  -0.246216  -0.344403  0  3.955889  0
C  C134  1  0.90927829  0.49548619  0.71903752  1  0.029326  0  -0.009949  0.062792  0  4.008452  0
C  C135  1  0.99474248  0.43096999  0.75358650  1  -0.122939  0  -0.088468  -0.135866  0  3.992353  0
C  C136  1  0.11183564  0.34777895  0.74142770  1  -0.014264  0  -0.090174  -0.085276  0  4.049777  0
C  C137  1  0.14565468  0.32749812  0.69443660  1  -0.132853  0  -0.094426  -0.103313  0  4.044428  0
C  C138  1  0.06157783  0.39144082  0.65983142  1  -0.024887  0  -0.085208  -0.073937  0  4.012803  0
C  C139  1  0.94417326  0.47497421  0.67203575  1  -0.099384  0  -0.087567  -0.12712  0  3.966273  0
C  C140  1  0.84046164  0.21733386  0.70729826  1  -0.038631  0  -0.156294  -0.145027  0  3.985418  0
C  C141  1  0.94939026  0.18915858  0.73698240  1  -0.067964  0  -0.246495  -0.354229  0  3.975338  0
O  O142  1  0.51780535  0.30846345  0.54901470  1  -1.220005  0  -0.212866  -0.569592  0  2.296234  0
O  O143  1  0.51288614  0.69029393  0.45509641  1  -1.245053  0  -0.226025  -0.586717  0  2.241763  0
O  O144  1  0.68479372  0.50994808  0.45218106  1  -1.247812  0  -0.226003  -0.585967  0  2.246685  0
O  O145  1  0.70024255  0.30350900  0.45627189  1  -1.252209  0  -0.241103  -0.603257  0  2.233357  0
O  O146  1  0.49743336  0.49904034  0.50029470  1  -1.608823  0  -0.39103  -1.273215  0  2.292722  0
O  O147  1  0.02752578  0.80500509  0.95333417  1  -1.213375  0  -0.199212  -0.537876  0  2.289945  0
O  O148  1  0.82085448  0.01580908  0.94787758  1  -1.209069  0  -0.200288  -0.536416  0  2.283209  0
O  O149  1  0.63584089  0.03362042  0.95672363  1  -1.251698  0  -0.242725  -0.609503  0  2.239713  0
O  O150  1  0.64168808  0.83053987  0.95067455  1  -1.246674  0  -0.228065  -0.589137  0  2.24001  0
O  O151  1  0.81107177  0.64821940  0.95427700  1  -1.247029  0  -0.226975  -0.590118  0  2.249331  0
O  O152  1  0.01660030  0.63080857  0.95111027  1  -1.248618  0  -0.242259  -0.605  0  2.228018  0
O  O153  1  0.31163365  0.51864795  0.55089114  1  -1.216902  0  -0.212718  -0.566736  0  2.297797  0
O  O154  1  0.00975543  0.81748067  0.05353109  1  -1.216155  0  -0.211215  -0.565365  0  2.299644  0
O  O155  1  0.80512761  0.02997191  0.04740751  1  -1.218602  0  -0.207157  -0.55927  0  2.288801  0
O  O156  1  0.63298832  0.01858466  0.04883199  1  -1.251762  0  -0.239633  -0.598177  0  2.230729  0
O  O157  1  0.64351543  0.81539163  0.04308625  1  -1.244166  0  -0.224993  -0.585193  0  2.250421  0
O  O158  1  0.82179506  0.64166419  0.04671688  1  -1.242941  0  -0.224511  -0.581778  0  2.238448  0
O  O159  1  0.02402686  0.63246276  0.04402285  1  -1.254415  0  -0.244631  -0.608933  0  2.226931  0
O  O160  1  0.83268944  0.83417668  0.99976924  1  -1.608658  0  -0.391598  -1.275864  0  2.298022  0
O  O161  1  0.30722049  0.70039705  0.54633963  1  -1.244799  0  -0.243642  -0.605647  0  2.228629  0
O  O162  1  0.50990060  0.68834926  0.54813114  1  -1.247136  0  -0.228352  -0.590256  0  2.243983  0
O  O163  1  0.68829155  0.51494376  0.54484659  1  -1.251568  0  -0.230142  -0.592227  0  2.242956  0
O  O164  1  0.69332838  0.31354325  0.54889801  1  -1.251043  0  -0.242832  -0.603769  0  2.230046  0
O  O165  1  0.51888865  0.31271256  0.44866756  1  -1.204856  0  -0.198604  -0.533494  0  2.284291  0
O  O166  1  0.31106574  0.52142892  0.44986100  1  -1.21884  0  -0.200721  -0.536189  0  2.284574  0
O  O167  1  0.30977155  0.70166172  0.45369338  1  -1.249739  0  -0.242492  -0.607256  0  2.234033  0
O  O168  1  0.32928065  0.33323018  0.49712614  1  -1.369795  0  -0.575851  -0.989515  0  1.7959  0
O  O169  1  0.00336529  0.99736683  0.99951356  1  -1.367862  0  -0.575612  -0.994788  0  1.786728  0
