# generated using pymatgen
data_EuH19C21NO8
_symmetry_space_group_name_H-M   'P 1'
_cell_length_a   12.18205712
_cell_length_b   12.18335186
_cell_length_c   18.32761533
_cell_angle_alpha   102.56872864
_cell_angle_beta   107.49902738
_cell_angle_gamma   102.72742878
_symmetry_Int_Tables_number   1
_chemical_formula_structural   EuH19C21NO8
_chemical_formula_sum   'Eu4 H76 C84 N4 O32'
_cell_volume   2409.84994095
_cell_formula_units_Z   4
loop_
 _symmetry_equiv_pos_site_id
 _symmetry_equiv_pos_as_xyz
  1  'x, y, z'
loop_
 _atom_site_type_symbol
 _atom_site_label
 _atom_site_symmetry_multiplicity
 _atom_site_fract_x
 _atom_site_fract_y
 _atom_site_fract_z
 _atom_site_occupancy
 _atom_site_pbe_bader_charge
 _atom_site_pbe_bader_spin_density
 _atom_site_pbe_cm5_charge
 _atom_site_pbe_ddec_charge
 _atom_site_pbe_ddec_spin_density
 _atom_site_pbe_ddec_sum_bond_order
 _atom_site_pbe_magmom
Eu  Eu0  1  0.41201270  0.84011536  0.01091288  1  2.179265  0  1.491668  2.045949  0  2.141103  0
Eu  Eu1  1  0.32919303  0.40111476  0.48910049  1  2.18025  0  1.491868  2.045719  0  2.140232  0
Eu  Eu2  1  0.58798676  0.15988401  0.98908761  1  2.179273  0  1.491698  2.046002  0  2.141068  0
Eu  Eu3  1  0.67080713  0.59888470  0.51089981  1  2.180221  0  1.491847  2.045668  0  2.140298  0
H  H4  1  0.37861255  0.99823863  0.14981271  1  0.633257  0  0.338566  0.426503  0  0.852034  0
H  H5  1  0.34840247  0.22876990  0.35022214  1  0.607265  0  0.339415  0.426318  0  0.852126  0
H  H6  1  0.62138657  0.00176212  0.85018743  1  0.633257  0  0.338582  0.426557  0  0.851982  0
H  H7  1  0.65159713  0.77122925  0.64977671  1  0.607497  0  0.339371  0.426192  0  0.852265  0
H  H8  1  0.44154105  0.09208701  0.11240844  1  0.653908  0  0.30206  0.405388  0  0.931908  0
H  H9  1  0.47965403  0.32912880  0.38757492  1  0.66199  0  0.302167  0.404903  0  0.932476  0
H  H10  1  0.55845698  0.90791265  0.88759060  1  0.65388  0  0.302038  0.405357  0  0.93195  0
H  H11  1  0.52034432  0.67086972  0.61242357  1  0.661989  0  0.302165  0.404903  0  0.932479  0
H  H12  1  0.56103873  0.72433969  0.78711144  1  0.052442  0  0.097679  0.090703  0  1.042985  0
H  H13  1  0.43723921  0.77394388  0.71289649  1  0.050706  0  0.0978  0.090331  0  1.042786  0
H  H14  1  0.43896251  0.27566109  0.21288905  1  0.052135  0  0.097698  0.090737  0  1.042977  0
H  H15  1  0.56276076  0.22605651  0.28710273  1  0.050724  0  0.097803  0.090348  0  1.042746  0
H  H16  1  0.64037448  0.59339253  0.70637902  1  0.064629  0  0.105999  0.099205  0  1.051302  0
H  H17  1  0.38700486  0.93399653  0.79362624  1  0.060473  0  0.107061  0.100691  0  1.050603  0
H  H18  1  0.35962589  0.40660885  0.29362148  1  0.064626  0  0.105992  0.099173  0  1.051333  0
H  H19  1  0.61299582  0.06600395  0.20637280  1  0.060491  0  0.107062  0.100689  0  1.050603  0
H  H20  1  0.66471907  0.38797606  0.87094918  1  0.073287  0  0.104877  0.104088  0  1.026443  0
H  H21  1  0.01697604  0.79374840  0.62905093  1  0.073623  0  0.106054  0.105984  0  1.025928  0
H  H22  1  0.33527951  0.61202414  0.12905042  1  0.073281  0  0.104869  0.104064  0  1.026456  0
H  H23  1  0.98302236  0.20624941  0.37095027  1  0.073635  0  0.10606  0.105989  0  1.0259  0
H  H24  1  0.59375364  0.52429963  0.95461455  1  0.111979  0  0.110788  0.119471  0  0.992859  0
H  H25  1  0.06966160  0.63914136  0.54538714  1  0.082789  0  0.11115  0.119446  0  0.993903  0
H  H26  1  0.40624690  0.47570106  0.04538612  1  0.111991  0  0.110798  0.119483  0  0.992859  0
H  H27  1  0.93033696  0.36085575  0.45461423  1  0.08279  0  0.111152  0.119454  0  0.9939  0
H  H28  1  0.83855969  0.39939130  0.84192743  1  0.047748  0  0.097554  0.094278  0  1.060381  0
H  H29  1  0.05744594  0.99662039  0.65807168  1  0.063841  0  0.097516  0.094266  0  1.060343  0
H  H30  1  0.16143907  0.60060797  0.15807324  1  0.047776  0  0.097571  0.094297  0  1.06038  0
H  H31  1  0.94255351  0.00337898  0.34192880  1  0.063887  0  0.097503  0.094231  0  1.060364  0
H  H32  1  0.93406336  0.28062129  0.76998509  1  0.057935  0  0.098422  0.091555  0  1.037014  0
H  H33  1  0.01063205  0.16407095  0.73000941  1  0.06667  0  0.098668  0.091315  0  1.038359  0
H  H34  1  0.06593593  0.71937877  0.23001522  1  0.057941  0  0.098436  0.091569  0  1.037011  0
H  H35  1  0.98936741  0.83592842  0.26999108  1  0.066661  0  0.098657  0.091281  0  1.038365  0
H  H36  1  0.85809518  0.21780103  0.61922309  1  0.042926  0  0.098696  0.093957  0  1.032603  0
H  H37  1  0.09858287  0.23887643  0.88077206  1  0.050356  0  0.098977  0.093857  0  1.03352  0
H  H38  1  0.14190534  0.78219990  0.38077669  1  0.042927  0  0.098686  0.093936  0  1.032611  0
H  H39  1  0.90141696  0.76112417  0.11922880  1  0.050366  0  0.098985  0.093845  0  1.033549  0
H  H40  1  0.68440142  0.27488786  0.54416775  1  0.088383  0  0.109717  0.11391  0  0.98906  0
H  H41  1  0.23071446  0.14024089  0.95583072  1  0.04912  0  0.110349  0.114283  0  0.988281  0
H  H42  1  0.31559931  0.72511499  0.45583222  1  0.088391  0  0.109725  0.113912  0  0.989061  0
H  H43  1  0.76928661  0.85976059  0.04416960  1  0.049121  0  0.110349  0.114274  0  0.988274  0
H  H44  1  0.58612576  0.69581783  0.11817622  1  0.126722  0  0.130034  0.060092  0  1.016873  0
H  H45  1  0.07764037  0.46796762  0.38182225  1  0.123983  0  0.130116  0.059775  0  1.018249  0
H  H46  1  0.41387741  0.30418392  0.88182355  1  0.126651  0  0.130047  0.060049  0  1.016883  0
H  H47  1  0.92235980  0.53203160  0.61817895  1  0.123894  0  0.130137  0.05984  0  1.018287  0
H  H48  1  0.69316681  0.62712426  0.20196470  1  0.046053  0  0.110197  0.122486  0  0.98933  0
H  H49  1  0.92515398  0.49120859  0.29803355  1  0.048976  0  0.110208  0.122521  0  0.989368  0
H  H50  1  0.30683454  0.37287346  0.79803503  1  0.046068  0  0.110196  0.122476  0  0.989351  0
H  H51  1  0.07484869  0.50879191  0.70196837  1  0.048988  0  0.110199  0.122499  0  0.989433  0
H  H52  1  0.63847081  0.61921954  0.28197667  1  0.104724  0  0.113742  0.140196  0  0.986353  0
H  H53  1  0.83722736  0.35651778  0.21801357  1  0.103297  0  0.112918  0.139552  0  0.98695  0
H  H54  1  0.36152808  0.38077952  0.71802237  1  0.104706  0  0.113748  0.140201  0  0.986359  0
H  H55  1  0.16277427  0.64348400  0.78198819  1  0.103274  0  0.112937  0.139549  0  0.986921  0
H  H56  1  0.77911616  0.72483322  0.30176755  1  0.09539  0  0.103021  0.119527  0  1.001463  0
H  H57  1  0.92307520  0.47736026  0.19823538  1  0.064759  0  0.103643  0.120071  0  1.003031  0
H  H58  1  0.22088519  0.27516450  0.69823218  1  0.095266  0  0.103021  0.119521  0  1.001424  0
H  H59  1  0.07692643  0.52264152  0.80176639  1  0.064744  0  0.103654  0.120092  0  1.002985  0
H  H60  1  0.55585011  0.89517562  0.28250463  1  0.071847  0  0.109838  0.130544  0  0.998614  0
H  H61  1  0.11270467  0.27337858  0.21750677  1  0.073831  0  0.109354  0.130255  0  0.999142  0
H  H62  1  0.44415501  0.10482686  0.71749531  1  0.071816  0  0.109838  0.130554  0  0.998666  0
H  H63  1  0.88729461  0.72662171  0.78249264  1  0.073824  0  0.109357  0.130266  0  0.99912  0
H  H64  1  0.70613455  0.90799952  0.34428912  1  0.057014  0  0.101788  0.115525  0  0.999642  0
H  H65  1  0.06370903  0.36183778  0.15571025  1  0.030693  0  0.101471  0.114899  0  0.998439  0
H  H66  1  0.29387057  0.09200295  0.65571083  1  0.057095  0  0.101791  0.115541  0  0.999642  0
H  H67  1  0.93629010  0.63816296  0.84428989  1  0.030824  0  0.101483  0.114932  0  0.998442  0
H  H68  1  0.58073284  0.79608227  0.34168605  1  0.129605  0  0.109084  0.142069  0  1.017271  0
H  H69  1  0.95440707  0.23904431  0.15832368  1  0.137878  0  0.10873  0.142127  0  1.016178  0
H  H70  1  0.41927196  0.20392135  0.65831445  1  0.129537  0  0.109092  0.1421  0  1.017181  0
H  H71  1  0.04559260  0.76095698  0.84167701  1  0.137873  0  0.108742  0.142144  0  1.016142  0
H  H72  1  0.03242824  0.71561808  0.05272409  1  0.119135  0  0.107088  0.113312  0  1.00002  0
H  H73  1  0.16291809  0.97971889  0.44727408  1  0.094032  0  0.107332  0.112797  0  0.998653  0
H  H74  1  0.96756994  0.28438112  0.94727423  1  0.118859  0  0.107116  0.11333  0  1.000042  0
H  H75  1  0.83708026  0.02027963  0.55272441  1  0.094186  0  0.107317  0.112777  0  0.998672  0
H  H76  1  0.14920826  0.43445177  0.94799322  1  0.094977  0  0.104769  0.107157  0  1.015817  0
H  H77  1  0.98642366  0.20118010  0.55200245  1  0.084374  0  0.104781  0.106389  0  1.015384  0
H  H78  1  0.85078921  0.56554758  0.05200438  1  0.094957  0  0.10476  0.107168  0  1.015787  0
H  H79  1  0.01357345  0.79881778  0.44799568  1  0.084367  0  0.104762  0.106395  0  1.015378  0
C  C80  1  0.52506239  0.71159937  0.92384526  1  1.514531  0  0.202448  0.581435  0  4.203662  0
C  C81  1  0.28776285  0.60124050  0.57616391  1  1.547324  0  0.201384  0.579581  0  4.205647  0
C  C82  1  0.47493673  0.28840137  0.07615488  1  1.514501  0  0.202406  0.58142  0  4.203606  0
C  C83  1  0.71223660  0.39875911  0.42383567  1  1.547348  0  0.201378  0.579546  0  4.205723  0
C  C84  1  0.57264949  0.63313215  0.87584312  1  -0.021067  0  -0.020455  -0.041959  0  3.987217  0
C  C85  1  0.25728236  0.69681384  0.62416391  1  -0.022869  0  -0.020224  -0.041946  0  3.986113  0
C  C86  1  0.42735104  0.36686854  0.12415756  1  -0.021078  0  -0.02047  -0.041991  0  3.987149  0
C  C87  1  0.74271710  0.30318553  0.37583657  1  -0.0229  0  -0.020221  -0.041952  0  3.98616  0
C  C88  1  0.58507301  0.65100543  0.80540266  1  0.007453  0  -0.083874  -0.081669  0  3.983561  0
C  C89  1  0.34560004  0.77967813  0.69460400  1  -0.060852  0  -0.083417  -0.080343  0  3.982403  0
C  C90  1  0.41492823  0.34899535  0.19459783  1  0.00776  0  -0.083859  -0.081651  0  3.983501  0
C  C91  1  0.65439925  0.22032193  0.30539631  1  -0.060871  0  -0.083411  -0.080328  0  3.982317  0
C  C92  1  0.62718722  0.57644331  0.75956746  1  -0.01749  0  -0.084219  -0.121314  0  3.961625  0
C  C93  1  0.31686332  0.86761993  0.74043600  1  -0.001209  0  -0.085773  -0.123653  0  3.962912  0
C  C94  1  0.37281277  0.42355684  0.24043267  1  -0.017489  0  -0.084222  -0.121279  0  3.96159  0
C  C95  1  0.68313630  0.13237898  0.25956375  1  -0.001225  0  -0.085737  -0.1236  0  3.962844  0
C  C96  1  0.65603710  0.48044866  0.78237304  1  -0.031564  0  -0.000242  0.078083  0  3.98312  0
C  C97  1  0.19804721  0.87365529  0.71762835  1  -0.035581  0  0.0004  0.081008  0  3.984306  0
C  C98  1  0.34396219  0.51955140  0.21762727  1  -0.031579  0  -0.000186  0.078078  0  3.982956  0
C  C99  1  0.80195224  0.12634408  0.28237213  1  -0.035584  0  0.000359  0.080918  0  3.984281  0
C  C100  1  0.64402434  0.46308722  0.85332856  1  -0.047703  0  -0.085996  -0.130637  0  3.965202  0
C  C101  1  0.10972340  0.79068705  0.64667096  1  -0.014121  0  -0.088479  -0.133396  0  3.968492  0
C  C102  1  0.35597565  0.53691293  0.14667156  1  -0.047665  0  -0.085971  -0.13054  0  3.965138  0
C  C103  1  0.89027622  0.20931163  0.35332970  1  -0.01412  0  -0.088522  -0.133465  0  3.968457  0
C  C104  1  0.60356143  0.53873216  0.89993691  1  -0.075446  0  -0.079508  -0.08547  0  3.959956  0
C  C105  1  0.13877445  0.70362582  0.60006635  1  -0.025542  0  -0.079434  -0.086448  0  3.961287  0
C  C106  1  0.39643911  0.46126853  0.10006376  1  -0.075452  0  -0.079563  -0.085563  0  3.959968  0
C  C107  1  0.86122465  0.29637208  0.39993466  1  -0.025547  0  -0.079398  -0.08639  0  3.961203  0
C  C108  1  0.70457220  0.40315235  0.73527413  1  0.068669  0  0.001182  0.050452  0  3.952824  0
C  C109  1  0.16785204  0.96928721  0.76472815  1  0.061179  0  0.002929  0.049454  0  3.955972  0
C  C110  1  0.29542764  0.59684825  0.26472673  1  0.068674  0  0.001178  0.05049  0  3.952769  0
C  C111  1  0.83214795  0.03071294  0.23527198  1  0.061185  0  0.002943  0.049476  0  3.955947  0
C  C112  1  0.80277173  0.36994655  0.77653108  1  -0.038195  0  -0.089025  -0.124862  0  3.977257  0
C  C113  1  0.09339507  0.02622853  0.72346808  1  -0.049684  0  -0.090063  -0.12524  0  3.977981  0
C  C114  1  0.19722843  0.63005291  0.22346922  1  -0.038207  0  -0.089032  -0.124871  0  3.977257  0
C  C115  1  0.90660492  0.97377162  0.27653204  1  -0.049748  0  -0.090052  -0.125203  0  3.977884  0
C  C116  1  0.85741411  0.30356403  0.73564499  1  -0.118383  0  -0.093261  -0.083307  0  4.042119  0
C  C117  1  0.06790833  0.12176131  0.76435085  1  -0.042983  0  -0.094103  -0.083622  0  4.044814  0
C  C118  1  0.14258518  0.69643603  0.26435533  1  -0.118397  0  -0.093274  -0.083343  0  4.042115  0
C  C119  1  0.93209128  0.87823760  0.23564890  1  -0.042977  0  -0.094086  -0.083571  0  4.044707  0
C  C120  1  0.81544591  0.26922947  0.65186634  1  0.042856  0  -0.092947  -0.092219  0  4.026379  0
C  C121  1  0.11735681  0.16357723  0.84813056  1  -0.053246  0  -0.091317  -0.090252  0  4.027066  0
C  C122  1  0.18455391  0.73077137  0.34813362  1  0.042827  0  -0.092946  -0.092188  0  4.026375  0
C  C123  1  0.88264318  0.83642292  0.15186957  1  -0.053256  0  -0.091329  -0.090251  0  4.027127  0
C  C124  1  0.71811110  0.30141667  0.60959159  1  -0.056992  0  -0.077613  -0.088881  0  3.963862  0
C  C125  1  0.19181021  0.10851630  0.89040645  1  -0.018096  0  -0.079941  -0.090299  0  3.965112  0
C  C126  1  0.28188855  0.69858486  0.39040819  1  -0.056967  0  -0.077576  -0.088805  0  3.963745  0
C  C127  1  0.80819065  0.89148325  0.10959366  1  -0.018098  0  -0.079973  -0.090336  0  3.965106  0
C  C128  1  0.66161565  0.36691825  0.65046795  1  -0.063626  0  -0.00386  -0.063796  0  3.909463  0
C  C129  1  0.21642525  0.01113853  0.84953338  1  -0.058964  0  -0.003915  -0.064454  0  3.91411  0
C  C130  1  0.33838419  0.63308235  0.34953291  1  -0.063532  0  -0.003916  -0.063932  0  3.909404  0
C  C131  1  0.78357544  0.98886171  0.15046657  1  -0.058956  0  -0.003895  -0.064412  0  3.914059  0
C  C132  1  0.55163399  0.38931815  0.60053650  1  1.549404  0  0.220951  0.622364  0  4.189509  0
C  C133  1  0.28874882  0.95109527  0.89947374  1  1.567598  0  0.221812  0.624896  0  4.187218  0
C  C134  1  0.44836585  0.61068245  0.39946435  1  1.549306  0  0.220954  0.622445  0  4.189399  0
C  C135  1  0.71125118  0.04890465  0.10052729  1  1.567587  0  0.221805  0.624863  0  4.187162  0
C  C136  1  0.57186528  0.76118575  0.16335743  1  1.349125  0  0.179706  0.306857  0  4.111924  0
C  C137  1  0.09781471  0.40850658  0.33664547  1  1.352554  0  0.180135  0.308006  0  4.113847  0
C  C138  1  0.42813719  0.23881591  0.83664252  1  1.349612  0  0.179644  0.306864  0  4.111843  0
C  C139  1  0.90218865  0.59149424  0.66335537  1  1.352633  0  0.180032  0.307827  0  4.113815  0
C  C140  1  0.68752710  0.67860346  0.25706417  1  0.23487  0  -0.127558  -0.277876  0  3.889325  0
C  C141  1  0.92153871  0.43047546  0.24293372  1  0.26331  0  -0.127538  -0.276712  0  3.892864  0
C  C142  1  0.31247570  0.32139682  0.74293613  1  0.235043  0  -0.127558  -0.277858  0  3.889282  0
C  C143  1  0.07846183  0.56952524  0.75706696  1  0.263328  0  -0.127569  -0.276704  0  3.892823  0
C  C144  1  0.61589267  0.84606439  0.30611366  1  0.224131  0  -0.135889  -0.272668  0  3.850399  0
C  C145  1  0.03996162  0.30978539  0.19389191  1  0.240896  0  -0.135133  -0.270888  0  3.847525  0
C  C146  1  0.38411261  0.15393740  0.69388646  1  0.224131  0  -0.135895  -0.272734  0  3.850271  0
C  C147  1  0.96003837  0.69021476  0.80610822  1  0.240778  0  -0.135166  -0.27096  0  3.847498  0
C  C148  1  0.20885438  0.67129729  0.00314602  1  1.545643  0  0.184667  0.561042  0  4.258225  0
C  C149  1  0.16814320  0.20569999  0.49685126  1  1.530558  0  0.183462  0.559967  0  4.259928  0
C  C150  1  0.79114397  0.32870122  0.99685247  1  1.545509  0  0.18466  0.561044  0  4.258102  0
C  C151  1  0.83185728  0.79429833  0.50314849  1  1.530543  0  0.183382  0.559857  0  4.260113  0
C  C152  1  0.09960249  0.58262535  0.99989484  1  -0.079704  0  -0.012757  -0.020864  0  3.962028  0
C  C153  1  0.08273128  0.09970112  0.50010428  1  -0.106734  0  -0.012023  -0.021926  0  3.963973  0
C  C154  1  0.90039570  0.41737385  0.00010347  1  -0.079577  0  -0.0127  -0.020794  0  3.961934  0
C  C155  1  0.91726708  0.90029716  0.49989511  1  -0.106729  0  -0.012009  -0.021921  0  3.963966  0
C  C156  1  0.01644968  0.62082559  0.02957480  1  -0.070194  0  -0.081535  -0.10045  0  3.971246  0
C  C157  1  0.09126735  0.98688512  0.47042529  1  -0.027718  0  -0.081758  -0.099451  0  3.969986  0
C  C158  1  0.98354742  0.37917229  0.97042333  1  -0.069952  0  -0.081631  -0.100521  0  3.971345  0
C  C159  1  0.90873084  0.01311385  0.52957393  1  -0.027888  0  -0.081749  -0.099422  0  3.96995  0
C  C160  1  0.08270361  0.46152446  0.97023668  1  -0.023529  0  -0.083227  -0.106921  0  3.985314  0
C  C161  1  0.99127272  0.11244901  0.52976038  1  -0.003502  0  -0.083439  -0.104951  0  3.984682  0
C  C162  1  0.91729405  0.53847397  0.02976199  1  -0.023388  0  -0.083258  -0.10698  0  3.985264  0
C  C163  1  0.00872548  0.88754996  0.47023884  1  -0.003496  0  -0.083401  -0.104898  0  3.984609  0
N  N164  1  0.62481315  0.76398355  0.23888589  1  -1.194769  0  -0.27282  0.044158  0  3.720013  0
N  N165  1  0.02510095  0.38593671  0.26111549  1  -1.195419  0  -0.271778  0.041882  0  3.722634  0
N  N166  1  0.37519036  0.23601682  0.76111423  1  -1.194789  0  -0.272789  0.044202  0  3.719867  0
N  N167  1  0.97489919  0.61406299  0.73888391  1  -1.195439  0  -0.271741  0.041928  0  3.722605  0
O  O168  1  0.52850350  0.70417142  0.99254455  1  -1.172531  0  -0.373246  -0.623428  0  2.263761  0
O  O169  1  0.21164563  0.53600017  0.50745510  1  -1.183439  0  -0.372901  -0.622982  0  2.265038  0
O  O170  1  0.47149525  0.29582809  0.00745521  1  -1.172514  0  -0.373265  -0.623451  0  2.263688  0
O  O171  1  0.78835366  0.46399989  0.49254521  1  -1.183427  0  -0.372893  -0.622962  0  2.265033  0
O  O172  1  0.47826728  0.78580995  0.89501729  1  -1.198728  0  -0.372759  -0.647605  0  2.246711  0
O  O173  1  0.39080267  0.58326733  0.60500158  1  -1.203425  0  -0.372268  -0.646173  0  2.245908  0
O  O174  1  0.52173200  0.21419035  0.10498212  1  -1.198702  0  -0.372732  -0.647589  0  2.246686  0
O  O175  1  0.60919783  0.41673384  0.39499729  1  -1.203424  0  -0.372266  -0.646151  0  2.245904  0
O  O176  1  0.44978042  0.34654880  0.60415876  1  -1.164633  0  -0.343198  -0.597934  0  2.219585  0
O  O177  1  0.24233647  0.84564756  0.89587548  1  -1.173549  0  -0.343373  -0.598194  0  2.218244  0
O  O178  1  0.55021947  0.65345418  0.39584303  1  -1.16465  0  -0.343197  -0.597976  0  2.219513  0
O  O179  1  0.75766267  0.15435295  0.10412556  1  -1.173537  0  -0.343363  -0.598175  0  2.21822  0
O  O180  1  0.56077227  0.44743025  0.55057197  1  -1.204048  0  -0.429702  -0.735112  0  2.399259  0
O  O181  1  0.39684744  0.01018857  0.94942526  1  -1.218715  0  -0.430047  -0.736372  0  2.397949  0
O  O182  1  0.43922702  0.55256981  0.44942834  1  -1.204138  0  -0.429688  -0.735095  0  2.399198  0
O  O183  1  0.60315240  0.98981203  0.05057559  1  -1.21863  0  -0.430043  -0.736353  0  2.397878  0
O  O184  1  0.50909561  0.82684015  0.14253955  1  -1.195186  0  -0.383119  -0.584417  0  2.372216  0
O  O185  1  0.18427085  0.36652453  0.35747219  1  -1.195316  0  -0.38419  -0.585176  0  2.37288  0
O  O186  1  0.49090703  0.17316082  0.85746057  1  -1.19561  0  -0.383135  -0.584456  0  2.372186  0
O  O187  1  0.81573128  0.63347850  0.64252741  1  -1.195296  0  -0.384139  -0.585096  0  2.372646  0
O  O188  1  0.27285895  0.63862646  0.96379848  1  -1.171118  0  -0.385988  -0.628237  0  2.154019  0
O  O189  1  0.17476965  0.30903787  0.53617918  1  -1.172306  0  -0.386344  -0.628587  0  2.151977  0
O  O190  1  0.72713799  0.36137211  0.03619948  1  -1.170959  0  -0.386014  -0.628253  0  2.153983  0
O  O191  1  0.82523281  0.69096070  0.46382255  1  -1.172356  0  -0.3863  -0.628527  0  2.152088  0
O  O192  1  0.23730261  0.77808528  0.04694075  1  -1.180393  0  -0.396895  -0.635223  0  2.168228  0
O  O193  1  0.23117437  0.19037102  0.45307560  1  -1.162419  0  -0.39595  -0.633962  0  2.169602  0
O  O194  1  0.76269947  0.22191205  0.95306060  1  -1.180397  0  -0.39687  -0.63523  0  2.168146  0
O  O195  1  0.76882485  0.80962690  0.54692288  1  -1.162388  0  -0.395915  -0.633918  0  2.169639  0
O  O196  1  0.39313837  0.00854886  0.10217658  1  -1.26434  0  -0.624966  -0.83569  0  2.059214  0
O  O197  1  0.40635097  0.29099111  0.39782646  1  -1.244992  0  -0.626159  -0.835058  0  2.059919  0
O  O198  1  0.60685965  0.99145080  0.89782246  1  -1.264312  0  -0.624962  -0.835715  0  2.059202  0
O  O199  1  0.59364934  0.70900790  0.60217311  1  -1.245218  0  -0.626118  -0.834918  0  2.060007  0
