# generated using pymatgen
data_CuH10C9SNO4
_symmetry_space_group_name_H-M   'P 1'
_cell_length_a   8.78710103
_cell_length_b   12.80515975
_cell_length_c   24.22333588
_cell_angle_alpha   90.00785897
_cell_angle_beta   89.99057796
_cell_angle_gamma   90.01021423
_symmetry_Int_Tables_number   1
_chemical_formula_structural   CuH10C9SNO4
_chemical_formula_sum   'Cu8 H80 C72 S8 N8 O32'
_cell_volume   2725.61527787
_cell_formula_units_Z   8
loop_
 _symmetry_equiv_pos_site_id
 _symmetry_equiv_pos_as_xyz
  1  'x, y, z'
loop_
 _atom_site_type_symbol
 _atom_site_label
 _atom_site_symmetry_multiplicity
 _atom_site_fract_x
 _atom_site_fract_y
 _atom_site_fract_z
 _atom_site_occupancy
 _atom_site_pbe_bader_charge
 _atom_site_pbe_bader_spin_density
 _atom_site_pbe_cm5_charge
 _atom_site_pbe_ddec_charge
 _atom_site_pbe_ddec_spin_density
 _atom_site_pbe_ddec_sum_bond_order
 _atom_site_pbe_magmom
Cu  Cu0  1  0.06945561  0.46823446  0.54394950  1  1.054838  0.542116  0.670711  0.745968  0.698408  2.397492  0.54
Cu  Cu1  1  0.06926013  0.03173571  0.95609696  1  1.054911  -0.542263  0.669699  0.745334  -0.698362  2.394037  -0.54
Cu  Cu2  1  0.43073364  0.53174659  0.04391326  1  1.05435  0.542278  0.66968  0.745475  0.69837  2.393655  0.54
Cu  Cu3  1  0.43073696  0.96824829  0.45607713  1  1.055324  0.542297  0.669924  0.745763  0.69843  2.394248  0.54
Cu  Cu4  1  0.93054590  0.53176808  0.45605089  1  1.055396  -0.542044  0.670558  0.745775  -0.698343  2.39726  -0.539
Cu  Cu5  1  0.93074024  0.96825981  0.04390012  1  1.054265  0.54228  0.669732  0.745286  0.698363  2.394088  0.54
Cu  Cu6  1  0.56927811  0.46824892  0.95608341  1  1.054977  -0.542323  0.669858  0.745805  -0.698467  2.394364  -0.54
Cu  Cu7  1  0.56924634  0.03173706  0.54391088  1  1.054383  -0.542263  0.669719  0.745775  -0.698335  2.392885  -0.54
H  H8  1  0.08255976  0.84176523  0.53848282  1  0.107338  0.000451  0.10614  0.171966  0.000237  0.986772  0.0
H  H9  1  0.08255173  0.65813550  0.96147571  1  0.107611  -0.000486  0.10617  0.171901  -0.000238  0.98653  0.0
H  H10  1  0.41744075  0.15811288  0.03852429  1  0.107386  0.000487  0.106126  0.171795  0.000239  0.986633  0.0
H  H11  1  0.41740422  0.34183740  0.46149376  1  0.106937  0.00045  0.106099  0.171751  0.000236  0.986647  0.0
H  H12  1  0.91744631  0.15823653  0.46151798  1  0.107372  -0.00045  0.106172  0.171994  -0.000237  0.986747  0.0
H  H13  1  0.91744067  0.34186314  0.03851973  1  0.107396  0.000487  0.106112  0.171761  0.000239  0.986615  0.0
H  H14  1  0.58257101  0.84188810  0.96147651  1  0.107208  -0.000486  0.106086  0.171759  -0.000238  0.986709  0.0
H  H15  1  0.58258477  0.65814717  0.53851241  1  0.107189  -0.000449  0.10608  0.171768  -0.000236  0.986485  0.0
H  H16  1  0.02194234  0.79907176  0.60517663  1  0.009533  -0.002338  0.094336  0.146504  -0.001103  0.989297  -0.001
H  H17  1  0.02199721  0.70082157  0.89480369  1  0.008535  0.002335  0.094372  0.14648  0.001104  0.989209  0.001
H  H18  1  0.47800979  0.20085253  0.10518785  1  0.008983  -0.002335  0.094343  0.146476  -0.001104  0.989401  -0.001
H  H19  1  0.47803443  0.29915827  0.39481998  1  0.009085  -0.002333  0.094321  0.146425  -0.0011  0.989578  -0.001
H  H20  1  0.97804665  0.20092454  0.39481592  1  0.009267  0.002335  0.09441  0.146622  0.001101  0.989166  0.001
H  H21  1  0.97800430  0.29917238  0.10518556  1  0.008953  -0.002336  0.094349  0.146446  -0.001105  0.989341  -0.001
H  H22  1  0.52199513  0.79915157  0.89481585  1  0.008913  0.002336  0.09433  0.146462  0.001105  0.989409  0.001
H  H23  1  0.52195911  0.70084896  0.60518949  1  0.008917  0.002332  0.094319  0.146434  0.001099  0.989312  0.001
H  H24  1  0.88540864  0.83625988  0.55332116  1  0.083131  0.001467  0.100941  0.164892  0.000692  1.00276  0.001
H  H25  1  0.88546225  0.66360703  0.94661787  1  0.084992  -0.001511  0.10091  0.164621  -0.00072  1.002931  -0.001
H  H26  1  0.61453610  0.16364885  0.05337370  1  0.084592  0.00151  0.100981  0.164739  0.00072  1.00283  0.001
H  H27  1  0.61454471  0.33641222  0.44662226  1  0.084842  0.001474  0.100884  0.164504  0.000697  1.002935  0.001
H  H28  1  0.11458263  0.16374578  0.44667552  1  0.083211  -0.00147  0.100878  0.164791  -0.000693  1.002853  -0.001
H  H29  1  0.11454154  0.33639551  0.05337757  1  0.084956  0.001511  0.100911  0.16461  0.00072  1.002858  0.001
H  H30  1  0.38545858  0.83635213  0.94662711  1  0.08458  -0.00151  0.100999  0.164784  -0.00072  1.002765  -0.001
H  H31  1  0.38546818  0.66357705  0.55338061  1  0.084833  -0.001475  0.100834  0.164524  -0.000697  1.002894  -0.001
H  H32  1  0.56641916  0.34937913  0.56174250  1  0.089651  -0.000284  0.101384  0.160855  -0.000219  1.012736  0.0
H  H33  1  0.56615226  0.15061741  0.93819459  1  0.09002  -8.6e-05  0.101496  0.161115  -0.000129  1.012316  0.0
H  H34  1  0.93390188  0.65061224  0.06182038  1  0.089806  8.6e-05  0.101585  0.161267  0.000128  1.01276  0.0
H  H35  1  0.93386647  0.84938403  0.43817585  1  0.08972  -0.000282  0.101483  0.16116  -0.000218  1.012854  0.0
H  H36  1  0.43358804  0.65062263  0.43825872  1  0.089634  0.000284  0.101448  0.160988  0.00022  1.012724  0.0
H  H37  1  0.43384697  0.84938044  0.06180580  1  0.090073  8.6e-05  0.101489  0.161107  0.000129  1.01239  0.0
H  H38  1  0.06608597  0.34939030  0.93817753  1  0.089805  -8.6e-05  0.101501  0.161079  -0.000128  1.012901  0.0
H  H39  1  0.06613845  0.15062085  0.56181670  1  0.089737  0.000282  0.101492  0.161234  0.000218  1.012713  0.0
H  H40  1  0.50163673  0.47929312  0.55578589  1  0.075827  0.001856  0.099111  0.163326  0.000913  1.020469  0.001
H  H41  1  0.50127418  0.02077516  0.94422402  1  0.075627  -0.002037  0.099066  0.163401  -0.001041  1.020862  -0.001
H  H42  1  0.99867566  0.52079353  0.05577865  1  0.07581  0.002036  0.099146  0.16354  0.00104  1.021038  0.001
H  H43  1  0.99874296  0.97921379  0.44422775  1  0.075213  0.001859  0.09903  0.16345  0.000915  1.02092  0.001
H  H44  1  0.49835682  0.52071489  0.44421863  1  0.075908  -0.001856  0.099106  0.163308  -0.000913  1.020494  -0.001
H  H45  1  0.49870002  0.97922035  0.05577637  1  0.075762  0.002038  0.099146  0.163501  0.001041  1.020663  0.001
H  H46  1  0.00129285  0.47921994  0.94422876  1  0.075372  -0.002035  0.099086  0.163406  -0.00104  1.021127  -0.001
H  H47  1  0.00129155  0.02080671  0.55578957  1  0.075937  -0.001861  0.099055  0.163429  -0.000916  1.020891  -0.001
H  H48  1  0.60000133  0.43730607  0.61733241  1  0.043123  -0.001786  0.088788  0.144101  -0.000803  1.019644  -0.001
H  H49  1  0.59959559  0.06259930  0.88263612  1  0.042696  0.001774  0.088803  0.144465  0.000819  1.019145  0.001
H  H50  1  0.90041519  0.56261380  0.11736752  1  0.043191  -0.001768  0.088795  0.144586  -0.000816  1.019278  -0.001
H  H51  1  0.90049379  0.93736979  0.38263236  1  0.042515  -0.001781  0.088762  0.144518  -0.000799  1.019236  -0.001
H  H52  1  0.40002066  0.56268788  0.38266468  1  0.043051  0.001785  0.088805  0.144212  0.000802  1.019499  0.001
H  H53  1  0.40040136  0.93739856  0.11736675  1  0.043005  -0.001773  0.088791  0.144472  -0.000818  1.019118  -0.001
H  H54  1  0.09958063  0.43739499  0.88264526  1  0.043352  0.00177  0.088824  0.144591  0.000817  1.019319  0.001
H  H55  1  0.09953958  0.06265774  0.61738041  1  0.042713  0.001777  0.0888  0.144643  0.000798  1.019317  0.001
H  H56  1  0.78886956  0.73203864  0.41227115  1  0.133915  5.3e-05  0.11884  0.094028  3.7e-05  1.017794  0.0
H  H57  1  0.78872345  0.76794771  0.08774655  1  0.139  -5.7e-05  0.118725  0.093721  -3e-05  1.017764  0.0
H  H58  1  0.71123260  0.26795062  0.91223979  1  0.140322  5.6e-05  0.118702  0.093601  3e-05  1.017993  0.0
H  H59  1  0.71128540  0.23203945  0.58777574  1  0.139088  5.3e-05  0.118733  0.093741  3.7e-05  1.017702  0.0
H  H60  1  0.21113536  0.26796390  0.58773007  1  0.133987  -5.3e-05  0.118846  0.093974  -3.7e-05  1.017867  0.0
H  H61  1  0.21127920  0.23205249  0.91224930  1  0.138974  5.7e-05  0.118762  0.093785  3e-05  1.017763  0.0
H  H62  1  0.28876436  0.73204567  0.08776143  1  0.140374  -5.6e-05  0.118708  0.093587  -3e-05  1.01804  0.0
H  H63  1  0.28870587  0.76795216  0.41222341  1  0.139093  -5.3e-05  0.118737  0.093728  -3.7e-05  1.017715  0.0
H  H64  1  0.60939910  0.79588876  0.34084317  1  0.129852  9e-05  0.102186  0.11662  8.5e-05  1.045598  0.0
H  H65  1  0.60922908  0.70398272  0.15921374  1  0.129109  5.9e-05  0.102204  0.116562  7.8e-05  1.045053  0.0
H  H66  1  0.89079455  0.20400156  0.84078695  1  0.129295  -5.5e-05  0.102218  0.116687  -7.7e-05  1.044913  0.0
H  H67  1  0.89081230  0.29597298  0.65920918  1  0.12913  9.3e-05  0.102286  0.11689  8.5e-05  1.044806  0.0
H  H68  1  0.39060355  0.20411613  0.65915722  1  0.129927  -9e-05  0.102195  0.116675  -8.5e-05  1.045614  0.0
H  H69  1  0.39077698  0.29601201  0.84078376  1  0.129138  -5.9e-05  0.102212  0.116609  -7.8e-05  1.04513  0.0
H  H70  1  0.10920354  0.79600254  0.15921386  1  0.129247  5.5e-05  0.10222  0.116654  7.7e-05  1.044886  0.0
H  H71  1  0.10917783  0.70402488  0.34078832  1  0.129205  -9.3e-05  0.102317  0.116969  -8.5e-05  1.044654  0.0
H  H72  1  0.59589243  0.47950095  0.27703658  1  0.081922  2.3e-05  0.109123  0.12419  3e-06  0.982663  0.0
H  H73  1  0.59571298  0.02051958  0.22304223  1  0.08105  -5e-05  0.10925  0.124425  -2.2e-05  0.98193  0.0
H  H74  1  0.90428459  0.52051809  0.77697734  1  0.081241  4.8e-05  0.109204  0.124285  2e-05  0.982207  0.0
H  H75  1  0.90426085  0.97947218  0.72300102  1  0.081431  3e-05  0.109222  0.124278  7e-06  0.982127  0.0
H  H76  1  0.40410453  0.52050159  0.72296546  1  0.081863  -2.3e-05  0.109163  0.124248  -3e-06  0.982687  0.0
H  H77  1  0.40429650  0.97948062  0.77695940  1  0.080981  5e-05  0.109293  0.124467  2.2e-05  0.981852  0.0
H  H78  1  0.09571123  0.47948055  0.22302429  1  0.081205  -4.8e-05  0.109202  0.124261  -2e-05  0.982312  0.0
H  H79  1  0.09574180  0.02053427  0.27700020  1  0.081404  -3e-05  0.109206  0.12426  -7e-06  0.982057  0.0
H  H80  1  0.78230965  0.43099934  0.35128781  1  0.123878  2.1e-05  0.118341  0.093859  -1e-05  0.989737  0.0
H  H81  1  0.78215821  0.06896510  0.14872413  1  0.125978  -2.6e-05  0.118308  0.093325  9e-06  0.990363  0.0
H  H82  1  0.71777116  0.56895147  0.85127213  1  0.125733  2.5e-05  0.11834  0.093481  -9e-06  0.990058  0.0
H  H83  1  0.71776958  0.93104566  0.64873100  1  0.125279  2.3e-05  0.118359  0.093512  -9e-06  0.990202  0.0
H  H84  1  0.21768389  0.56900555  0.64871588  1  0.12377  -2e-05  0.118365  0.093926  1e-05  0.989716  0.0
H  H85  1  0.21785013  0.93103901  0.85127461  1  0.126354  2.6e-05  0.118331  0.093325  -9e-06  0.990464  0.0
H  H86  1  0.28222011  0.43105028  0.14872744  1  0.125496  -2.5e-05  0.118338  0.093474  9e-06  0.990154  0.0
H  H87  1  0.28223535  0.06895375  0.35127228  1  0.125332  -2.4e-05  0.118344  0.093478  9e-06  0.990192  0.0
C  C88  1  0.99345882  0.68726535  0.53924964  1  1.534225  -0.000253  0.214847  0.685236  -0.000121  4.103155  0.0
C  C89  1  0.99350950  0.81264992  0.96074197  1  1.535221  0.000246  0.21489  0.684651  0.000126  4.103594  0.0
C  C90  1  0.50648547  0.31264363  0.03925670  1  1.534922  -0.000247  0.214885  0.684694  -0.000126  4.10417  0.0
C  C91  1  0.50650813  0.18734878  0.46073704  1  1.534961  -0.000254  0.214795  0.684758  -0.000126  4.103967  0.0
C  C92  1  0.00655521  0.31273017  0.46074993  1  1.534212  0.000254  0.214895  0.68518  0.000126  4.103421  0.0
C  C93  1  0.00648176  0.18734091  0.03925471  1  1.535319  -0.000246  0.214823  0.684553  -0.000126  4.103729  0.0
C  C94  1  0.49353083  0.68735422  0.96073998  1  1.53486  0.000247  0.214795  0.684408  0.000124  4.104083  0.0
C  C95  1  0.49347517  0.81263814  0.53925922  1  1.535134  0.000254  0.215022  0.68509  0.000128  4.103792  0.0
C  C96  1  0.99486348  0.79784400  0.56106852  1  -0.057007  0.000608  -0.241805  -0.510465  0.000323  3.852303  0.001
C  C97  1  0.99490213  0.70209643  0.93890855  1  -0.058441  -0.000656  -0.241548  -0.509593  -0.000378  3.852516  -0.001
C  C98  1  0.50509598  0.20210031  0.06108787  1  -0.058126  0.000658  -0.241592  -0.509624  0.000378  3.852651  0.001
C  C99  1  0.50510717  0.29790130  0.43891751  1  -0.057989  0.000617  -0.241423  -0.509385  0.00033  3.852734  0.001
C  C100  1  0.00513006  0.20215854  0.43892402  1  -0.056938  -0.000598  -0.241886  -0.510532  -0.000316  3.85238  -0.001
C  C101  1  0.00509824  0.29790377  0.06108317  1  -0.05836  0.000657  -0.241465  -0.509372  0.000378  3.852374  0.001
C  C102  1  0.49491122  0.79790379  0.93891582  1  -0.057899  -0.000656  -0.241567  -0.509608  -0.000377  3.852654  -0.001
C  C103  1  0.49489206  0.70209265  0.56108783  1  -0.05822  -0.000623  -0.241422  -0.509468  -0.000335  3.852262  -0.001
C  C104  1  0.74460349  0.45807944  0.54686868  1  1.547163  -0.000323  0.211789  0.679591  -0.000277  4.108442  0.0
C  C105  1  0.74432664  0.04194983  0.95310234  1  1.546258  0.00032  0.211776  0.679316  0.00028  4.109522  0.0
C  C106  1  0.75567991  0.54197289  0.04689814  1  1.546986  -0.00032  0.212012  0.679988  -0.000283  4.108222  0.0
C  C107  1  0.75570924  0.95802815  0.45310048  1  1.54676  -0.00032  0.212026  0.679489  -0.000281  4.108509  0.0
C  C108  1  0.25541053  0.54191764  0.45313171  1  1.546862  0.000324  0.21207  0.680006  0.000283  4.107945  0.0
C  C109  1  0.25566121  0.95803866  0.04689846  1  1.546229  -0.000321  0.211828  0.679368  -0.000282  4.109657  0.0
C  C110  1  0.24431249  0.45802731  0.95310431  1  1.546823  0.000319  0.21197  0.679818  0.000279  4.108253  0.0
C  C111  1  0.24430023  0.04197361  0.54689867  1  1.546507  0.000321  0.212077  0.679829  0.000285  4.107921  0.0
C  C112  1  0.59329513  0.43079152  0.57238522  1  -0.089057  8e-06  -0.248549  -0.519811  4.2e-05  3.860552  0.0
C  C113  1  0.59305170  0.06918723  0.92758123  1  -0.090056  -0.000266  -0.24867  -0.52067  -0.000203  3.860409  0.0
C  C114  1  0.90700062  0.56922369  0.07243527  1  -0.090871  0.000269  -0.248956  -0.521267  0.000207  3.860599  0.0
C  C115  1  0.90704125  0.93078180  0.42756794  1  -0.089822  1.4e-05  -0.24878  -0.520847  5.3e-05  3.86016  0.0
C  C116  1  0.40670411  0.56921258  0.42761229  1  -0.088665  2e-06  -0.248639  -0.520124  -3.6e-05  3.86063  0.0
C  C117  1  0.40693387  0.93080594  0.07242123  1  -0.090441  0.000273  -0.24879  -0.520841  0.000209  3.860388  0.0
C  C118  1  0.09297926  0.43078588  0.92757421  1  -0.090648  -0.000262  -0.248893  -0.520911  -0.000201  3.86051  0.0
C  C119  1  0.09299554  0.06923480  0.57244401  1  -0.090626  -2.4e-05  -0.248752  -0.521108  -6e-05  3.860524  0.0
C  C120  1  0.74602064  0.67905719  0.38074347  1  0.506775  0.000533  0.05278  0.121592  0.000357  3.91342  0.0
C  C121  1  0.74585240  0.82089190  0.11929165  1  0.504306  -0.00049  0.053063  0.122169  -0.000322  3.912146  0.0
C  C122  1  0.75411855  0.32087782  0.88069605  1  0.502264  0.000493  0.053161  0.122577  0.000324  3.912231  0.0
C  C123  1  0.75412170  0.17910265  0.61931485  1  0.502867  0.000525  0.053033  0.122392  0.00035  3.91246  0.0
C  C124  1  0.25397632  0.32094769  0.61925692  1  0.506693  -0.000533  0.052719  0.121623  -0.000357  3.913491  0.0
C  C125  1  0.25415822  0.17911143  0.88070502  1  0.503777  0.00049  0.05309  0.122245  0.000322  3.912051  0.0
C  C126  1  0.24588296  0.67912081  0.11930475  1  0.502263  -0.000493  0.053175  0.12267  -0.000324  3.912157  0.0
C  C127  1  0.24587526  0.82089521  0.38068637  1  0.502803  -0.000526  0.053124  0.122591  -0.000351  3.912584  0.0
C  C128  1  0.64447401  0.71431754  0.34087508  1  -0.021278  5.1e-05  -0.092841  -0.18987  6.7e-05  3.985539  0.0
C  C129  1  0.64428083  0.78559493  0.15917685  1  -0.019896  5.7e-05  -0.092625  -0.189516  3.7e-05  3.983685  0.0
C  C130  1  0.85573556  0.28560324  0.84082481  1  -0.020813  -6.2e-05  -0.092739  -0.189998  -4e-05  3.983936  0.0
C  C131  1  0.85573667  0.21437481  0.65917631  1  -0.018945  5.8e-05  -0.092995  -0.190334  6.9e-05  3.984328  0.0
C  C132  1  0.35552750  0.28568735  0.65912614  1  -0.021077  -5.1e-05  -0.092837  -0.189969  -6.7e-05  3.985684  0.0
C  C133  1  0.35572295  0.21440449  0.84082065  1  -0.019367  -5.7e-05  -0.092748  -0.189829  -3.7e-05  3.984133  0.0
C  C134  1  0.14426481  0.71439774  0.15917641  1  -0.020734  6.1e-05  -0.092714  -0.189944  4e-05  3.983889  0.0
C  C135  1  0.14426143  0.78562851  0.34082367  1  -0.019045  -5.8e-05  -0.093071  -0.190618  -6.9e-05  3.984617  0.0
C  C136  1  0.58735311  0.64211479  0.30293884  1  -0.16033  0.000706  -0.001134  0.08318  0.00047  4.05957  0.0
C  C137  1  0.58726852  0.85781022  0.19713466  1  -0.165702  -0.000731  -0.001226  0.082975  -0.000493  4.058702  0.0
C  C138  1  0.91278031  0.35783832  0.80288628  1  -0.164911  0.000752  -0.001102  0.083505  0.000507  4.058402  0.0
C  C139  1  0.91280238  0.14214671  0.69709904  1  -0.165079  0.000734  -0.000893  0.083352  0.000486  4.059291  0.0
C  C140  1  0.41264384  0.35788696  0.69706196  1  -0.160333  -0.000706  -0.001102  0.083275  -0.00047  4.059554  0.0
C  C141  1  0.41274437  0.14218920  0.80286408  1  -0.166138  0.000731  -0.001103  0.08321  0.000493  4.058629  0.0
C  C142  1  0.08721438  0.64216266  0.19711370  1  -0.164967  -0.000752  -0.001156  0.083401  -0.000507  4.0586  0.0
C  C143  1  0.08719913  0.85785115  0.30290300  1  -0.16507  -0.000735  -0.000843  0.083482  -0.000487  4.059214  0.0
C  C144  1  0.63681025  0.53807892  0.30614826  1  -0.095089  -8.7e-05  -0.09579  -0.197053  -5.4e-05  3.997493  0.0
C  C145  1  0.63665514  0.96190524  0.19392972  1  -0.094794  5.8e-05  -0.09608  -0.197713  1.5e-05  3.995964  0.0
C  C146  1  0.86333652  0.46190704  0.80608349  1  -0.094517  -6e-05  -0.095906  -0.197672  -1.5e-05  3.996612  0.0
C  C147  1  0.86332161  0.03808365  0.69390561  1  -0.09458  -7.4e-05  -0.09596  -0.197434  -4.6e-05  3.996379  0.0
C  C148  1  0.36318557  0.46192362  0.69385378  1  -0.094722  8.7e-05  -0.095894  -0.197241  5.4e-05  3.99757  0.0
C  C149  1  0.36335775  0.03809496  0.80606943  1  -0.094347  -5.8e-05  -0.096136  -0.197809  -1.5e-05  3.995728  0.0
C  C150  1  0.13666043  0.53809316  0.19391979  1  -0.09452  6e-05  -0.095878  -0.197577  1.5e-05  3.996423  0.0
C  C151  1  0.13668104  0.96191889  0.30609685  1  -0.09448  7.4e-05  -0.095892  -0.197301  4.6e-05  3.996303  0.0
C  C152  1  0.74033897  0.51087498  0.34717486  1  0.529263  0.000546  0.046801  0.099275  0.000364  3.97148  0.0
C  C153  1  0.74016740  0.98908670  0.15286225  1  0.529077  -0.000551  0.047235  0.100605  -0.000366  3.971232  0.0
C  C154  1  0.75977557  0.48907789  0.84713477  1  0.530034  0.000553  0.047062  0.100442  0.000368  3.971679  0.0
C  C155  1  0.75977444  0.01092123  0.65285557  1  0.530261  0.000541  0.047175  0.100489  0.00036  3.971961  0.0
C  C156  1  0.25965571  0.48912913  0.65282636  1  0.529015  -0.000546  0.046783  0.099234  -0.000364  3.971564  0.0
C  C157  1  0.25984435  0.01091585  0.84713690  1  0.528174  0.000551  0.047237  0.100674  0.000366  3.971178  0.0
C  C158  1  0.24022481  0.51092387  0.15286356  1  0.530439  -0.000553  0.047118  0.100486  -0.000368  3.97171  0.0
C  C159  1  0.24021910  0.98907819  0.34714524  1  0.530115  -0.000542  0.047159  0.100396  -0.00036  3.971859  0.0
S  S160  1  0.44763274  0.67083345  0.25255257  1  0.111634  9.9e-05  0.059632  0.029465  7.4e-05  2.841321  0.0
S  S161  1  0.44761460  0.82903544  0.24756437  1  0.051514  -0.000136  0.0598  0.029711  -9.7e-05  2.841293  0.0
S  S162  1  0.05254293  0.32910404  0.75249551  1  0.050864  0.000189  0.059762  0.029507  0.000117  2.84172  0.0
S  S163  1  0.05253375  0.17089529  0.74747972  1  0.111201  0.000206  0.059686  0.029555  0.000139  2.842028  0.0
S  S164  1  0.55237446  0.32916831  0.74744782  1  0.111534  -9.9e-05  0.059584  0.029384  -7.4e-05  2.841192  0.0
S  S165  1  0.55239260  0.17096632  0.75243602  1  0.051876  0.000136  0.059775  0.029685  9.7e-05  2.841324  0.0
S  S166  1  0.94745289  0.67089772  0.24750612  1  0.050827  -0.000189  0.059771  0.029514  -0.000117  2.841738  0.0
S  S167  1  0.94746549  0.82910725  0.25251943  1  0.111173  -0.000206  0.059706  0.029558  -0.000139  2.84189  0.0
N  N168  1  0.79448824  0.57973501  0.38417436  1  -1.228153  0.001416  -0.336036  -0.248782  0.000632  3.492897  0.0
N  N169  1  0.79432120  0.92023562  0.11585415  1  -1.227063  -0.001409  -0.336278  -0.24979  -0.000631  3.490885  0.0
N  N170  1  0.70563915  0.42020870  0.88413210  1  -1.2272  0.001396  -0.336276  -0.25005  0.000622  3.491555  0.0
N  N171  1  0.70564079  0.07976428  0.61586519  1  -1.227936  0.001421  -0.336164  -0.250016  0.000638  3.49165  0.0
N  N172  1  0.20551099  0.42026831  0.61582768  1  -1.228299  -0.001417  -0.335968  -0.248735  -0.000633  3.492993  0.0
N  N173  1  0.20568600  0.07976614  0.88414170  1  -1.2268  0.001409  -0.336285  -0.249849  0.000631  3.490675  0.0
N  N174  1  0.29436009  0.57978759  0.11586706  1  -1.227303  -0.001397  -0.336356  -0.250183  -0.000623  3.491804  0.0
N  N175  1  0.29435503  0.92023045  0.38413603  1  -1.227956  -0.001419  -0.33631  -0.25003  -0.000635  3.491687  0.0
O  O176  1  0.05503218  0.61706201  0.56916656  1  -1.121157  0.085341  -0.320948  -0.54382  0.055872  2.323362  0.077
O  O177  1  0.05510327  0.88289393  0.93082623  1  -1.121087  -0.085609  -0.320942  -0.543514  -0.05605  2.322295  -0.078
O  O178  1  0.44490666  0.38289355  0.06916407  1  -1.121044  0.085588  -0.32092  -0.54355  0.056036  2.322839  0.078
O  O179  1  0.44494508  0.11707415  0.43083335  1  -1.121311  0.085611  -0.320939  -0.543566  0.056043  2.3228  0.078
O  O180  1  0.94493519  0.38291866  0.43082929  1  -1.12064  -0.085359  -0.320977  -0.543812  -0.055885  2.32286  -0.077
O  O181  1  0.94490393  0.11710158  0.06917086  1  -1.121277  0.085577  -0.320855  -0.54338  0.05603  2.322553  0.078
O  O182  1  0.55511419  0.61708635  0.93084003  1  -1.121373  -0.085593  -0.320963  -0.543547  -0.056041  2.32273  -0.078
O  O183  1  0.55503481  0.88288934  0.56916746  1  -1.121005  -0.085595  -0.321024  -0.543768  -0.056033  2.32276  -0.078
O  O184  1  0.06708050  0.32666798  0.50809223  1  -1.12198  0.08382  -0.318086  -0.537662  0.054826  2.321589  0.076
O  O185  1  0.06695568  0.17336358  0.99189328  1  -1.122649  -0.083902  -0.318031  -0.53737  -0.054878  2.320754  -0.076
O  O186  1  0.43308628  0.67338188  0.00810204  1  -1.121898  0.083901  -0.317898  -0.537215  0.054878  2.320666  0.076
O  O187  1  0.43305252  0.82661954  0.49190018  1  -1.12241  0.083852  -0.318042  -0.537693  0.054848  2.320431  0.076
O  O188  1  0.93294378  0.67335096  0.49190032  1  -1.121515  -0.083835  -0.318124  -0.537773  -0.05484  2.321202  -0.076
O  O189  1  0.93303673  0.82664052  0.00810175  1  -1.12247  0.083877  -0.31804  -0.537351  0.05486  2.320756  0.076
O  O190  1  0.56691182  0.32663003  0.99189051  1  -1.12232  -0.08391  -0.318003  -0.537487  -0.054883  2.320769  -0.076
O  O191  1  0.56696037  0.17338534  0.50808618  1  -1.122085  -0.083851  -0.317914  -0.537465  -0.054848  2.320465  -0.076
O  O192  1  0.86345060  0.43891297  0.57535556  1  -1.115114  0.085299  -0.323769  -0.534577  0.05557  2.305909  0.077
O  O193  1  0.86320413  0.06103009  0.92459845  1  -1.113848  -0.085521  -0.323701  -0.534069  -0.055722  2.304496  -0.077
O  O194  1  0.63680967  0.56106787  0.07539805  1  -1.113794  0.085519  -0.323783  -0.534343  0.055719  2.304604  0.077
O  O195  1  0.63681734  0.93895769  0.42460644  1  -1.113479  0.08558  -0.323895  -0.534279  0.055757  2.304264  0.078
O  O196  1  0.13657481  0.56107630  0.42462997  1  -1.11502  -0.085324  -0.32394  -0.534791  -0.055592  2.305145  -0.077
O  O197  1  0.13679397  0.93895840  0.07540235  1  -1.113885  0.08554  -0.323737  -0.534121  0.055732  2.304726  0.077
O  O198  1  0.36320891  0.43894483  0.92461142  1  -1.113892  -0.08549  -0.323784  -0.53435  -0.055701  2.30453  -0.077
O  O199  1  0.36316482  0.06105344  0.57539890  1  -1.113471  -0.085595  -0.323791  -0.534234  -0.055768  2.304154  -0.077
O  O200  1  0.25854007  0.50349977  0.50173418  1  -1.124028  0.083052  -0.317022  -0.542743  0.054245  2.356629  0.075
O  O201  1  0.25869665  0.99642327  0.99828649  1  -1.1222  -0.083313  -0.316638  -0.54243  -0.054426  2.355253  -0.076
O  O202  1  0.24131093  0.49642190  0.00171742  1  -1.122275  0.083313  -0.316646  -0.542706  0.054425  2.355303  0.076
O  O203  1  0.24135760  0.00357870  0.49827854  1  -1.122616  0.083119  -0.316787  -0.542768  0.054281  2.355282  0.075
O  O204  1  0.74142844  0.49651839  0.49826704  1  -1.123791  -0.083081  -0.316921  -0.542626  -0.054266  2.356357  -0.075
O  O205  1  0.74127869  0.00357302  0.00171267  1  -1.12229  0.083327  -0.316666  -0.542513  0.054436  2.355224  0.076
O  O206  1  0.75864620  0.50357048  0.99828214  1  -1.122611  -0.083295  -0.316698  -0.542762  -0.054412  2.355412  -0.075
O  O207  1  0.75867691  0.99640198  0.50171565  1  -1.122377  -0.083137  -0.316626  -0.542537  -0.054292  2.355708  -0.075
