# generated using pymatgen
data_ZnH15C14(NO2)2
_symmetry_space_group_name_H-M   'P 1'
_cell_length_a   9.18038850
_cell_length_b   13.06781513
_cell_length_c   13.06786810
_cell_angle_alpha   97.50087528
_cell_angle_beta   99.52128895
_cell_angle_gamma   99.52118663
_symmetry_Int_Tables_number   1
_chemical_formula_structural   ZnH15C14(NO2)2
_chemical_formula_sum   'Zn4 H60 C56 N8 O16'
_cell_volume   1504.59758609
_cell_formula_units_Z   4
loop_
 _symmetry_equiv_pos_site_id
 _symmetry_equiv_pos_as_xyz
  1  'x, y, z'
loop_
 _atom_site_type_symbol
 _atom_site_label
 _atom_site_symmetry_multiplicity
 _atom_site_fract_x
 _atom_site_fract_y
 _atom_site_fract_z
 _atom_site_occupancy
 _atom_site_pbe_bader_charge
 _atom_site_pbe_bader_spin_density
 _atom_site_pbe_cm5_charge
 _atom_site_pbe_ddec_charge
 _atom_site_pbe_ddec_spin_density
 _atom_site_pbe_ddec_sum_bond_order
 _atom_site_pbe_magmom
Zn  Zn0  1  0.52574215  0.44589197  0.08558799  1  1.280607  0  0.659071  0.807769  0  2.422044  0
Zn  Zn1  1  0.97425410  0.91441200  0.55410615  1  1.280546  0  0.659056  0.807704  0  2.422151  0
Zn  Zn2  1  0.47425632  0.55410635  0.91441154  1  1.280304  0  0.659067  0.807771  0  2.422076  0
Zn  Zn3  1  0.02574414  0.08558945  0.44589531  1  1.280282  0  0.659037  0.807718  0  2.422094  0
H  H4  1  0.99935676  0.40861428  0.01616182  1  0.026813  0  0.10198  0.085794  0  0.98858  0
H  H5  1  0.50064012  0.98383489  0.59138464  1  0.026757  0  0.101973  0.085803  0  0.988638  0
H  H6  1  0.00064303  0.59138482  0.98383797  1  0.02692  0  0.10198  0.085805  0  0.988564  0
H  H7  1  0.49935835  0.01616343  0.40861488  1  0.026902  0  0.101978  0.085804  0  0.988644  0
H  H8  1  0.98829744  0.47015408  0.83952684  1  -0.003357  0  0.085303  0.076826  0  1.041923  0
H  H9  1  0.51170824  0.16047184  0.52984464  1  -0.003434  0  0.08533  0.076827  0  1.041952  0
H  H10  1  0.01170588  0.52984579  0.16047349  1  -0.003388  0  0.085336  0.076862  0  1.041917  0
H  H11  1  0.48829732  0.83952804  0.47015366  1  -0.003352  0  0.085309  0.076817  0  1.041958  0
H  H12  1  0.83498734  0.37298278  0.85021544  1  -0.010907  0  0.086264  0.083879  0  1.005556  0
H  H13  1  0.66501188  0.14978046  0.62701691  1  -0.010873  0  0.086254  0.083948  0  1.005463  0
H  H14  1  0.16501357  0.62701632  0.14978372  1  -0.01093  0  0.086253  0.083884  0  1.005557  0
H  H15  1  0.33498857  0.85021706  0.37298275  1  -0.010916  0  0.086268  0.083945  0  1.005459  0
H  H16  1  0.90797437  0.32961902  0.67994267  1  0.013493  0  0.083423  0.076299  0  1.015439  0
H  H17  1  0.59202872  0.32005435  0.67038053  1  0.013408  0  0.083416  0.076272  0  1.015481  0
H  H18  1  0.09202764  0.67038008  0.32005663  1  0.013362  0  0.08342  0.076287  0  1.015426  0
H  H19  1  0.40797527  0.67994395  0.32961890  1  0.013485  0  0.083438  0.07633  0  1.015426  0
H  H20  1  0.09818002  0.34288702  0.73883607  1  0.025646  0  0.090496  0.093712  0  0.985652  0
H  H21  1  0.40182777  0.26116325  0.65711087  1  0.025765  0  0.09051  0.093749  0  0.9857  0
H  H22  1  0.90182263  0.65711048  0.26116462  1  0.025692  0  0.090497  0.09373  0  0.98566  0
H  H23  1  0.59817778  0.73883662  0.34288820  1  0.025679  0  0.090502  0.093709  0  0.985702  0
H  H24  1  0.83967076  0.17621809  0.77047678  1  0.029966  0  0.097374  0.074944  0  1.000724  0
H  H25  1  0.66032860  0.22952295  0.82378332  1  0.030241  0  0.097371  0.074949  0  1.00072  0
H  H26  1  0.16032749  0.82378337  0.22952391  1  0.030265  0  0.09738  0.074963  0  1.000729  0
H  H27  1  0.33967272  0.77047770  0.17621840  1  0.029974  0  0.097384  0.07494  0  1.000741  0
H  H28  1  0.04036488  0.10246151  0.87010148  1  0.00917  0  0.089393  0.091328  0  0.985333  0
H  H29  1  0.45963517  0.12989673  0.89753749  1  0.009197  0  0.089388  0.091284  0  0.985325  0
H  H30  1  0.95963270  0.89753759  0.12989881  1  0.009201  0  0.089409  0.091367  0  0.985272  0
H  H31  1  0.54036616  0.87010393  0.10246347  1  0.009201  0  0.089397  0.091336  0  0.985294  0
H  H32  1  0.17612474  0.21195397  0.85988186  1  0.017249  0  0.091279  0.089611  0  0.997935  0
H  H33  1  0.32387393  0.14011934  0.78804669  1  0.016907  0  0.091264  0.089556  0  0.997978  0
H  H34  1  0.82387171  0.78804512  0.14011982  1  0.016864  0  0.091269  0.089562  0  0.997993  0
H  H35  1  0.67612697  0.85988368  0.21195454  1  0.017223  0  0.091272  0.089608  0  0.997967  0
H  H36  1  0.09263528  0.23979100  0.03142998  1  0.047554  0  0.085904  0.080914  0  1.022252  0
H  H37  1  0.40735828  0.96856878  0.76020634  1  0.047637  0  0.085901  0.080934  0  1.022337  0
H  H38  1  0.90735852  0.76020653  0.96857117  1  0.047673  0  0.0859  0.080925  0  1.022262  0
H  H39  1  0.59263888  0.03143270  0.23979270  1  0.047506  0  0.08593  0.080968  0  1.022356  0
H  H40  1  0.90302573  0.22283995  0.96506648  1  0.004188  0  0.085854  0.078616  0  0.98734  0
H  H41  1  0.59697175  0.03492904  0.77715826  1  0.004217  0  0.085847  0.078608  0  0.987264  0
H  H42  1  0.09696855  0.77715917  0.03493265  1  0.004259  0  0.085856  0.078627  0  0.987287  0
H  H43  1  0.40302803  0.96507005  0.22284230  1  0.004193  0  0.085863  0.07865  0  0.9873  0
H  H44  1  0.75793869  0.48210217  0.28197847  1  0.146341  0  0.129  0.106292  0  0.998823  0
H  H45  1  0.74206277  0.71801976  0.51789507  1  0.146299  0  0.129054  0.106393  0  0.99872  0
H  H46  1  0.24205841  0.51789926  0.71802515  1  0.146375  0  0.129044  0.106303  0  0.998785  0
H  H47  1  0.25794171  0.28197621  0.48210027  1  0.146357  0  0.129002  0.106276  0  0.99887  0
H  H48  1  0.66460851  0.21365522  0.43769875  1  0.116599  0  0.115556  0.118532  0  1.0089  0
H  H49  1  0.83539233  0.56230556  0.78634394  1  0.116575  0  0.115527  0.118486  0  1.008928  0
H  H50  1  0.33539545  0.78634305  0.56230373  1  0.11665  0  0.115548  0.118552  0  1.008948  0
H  H51  1  0.16460329  0.43769435  0.21365470  1  0.116573  0  0.115511  0.118458  0  1.008911  0
H  H52  1  0.42903344  0.14925729  0.29986510  1  0.129091  0  0.117326  0.125285  0  0.993188  0
H  H53  1  0.07096679  0.70013863  0.85074037  1  0.129124  0  0.117305  0.125273  0  0.993216  0
H  H54  1  0.57097475  0.85074020  0.70013396  1  0.129202  0  0.117335  0.125304  0  0.993165  0
H  H55  1  0.92902482  0.29986286  0.14926029  1  0.129212  0  0.117329  0.12532  0  0.993175  0
H  H56  1  0.37973167  0.25314287  0.15276149  1  0.101811  0  0.125851  0.104107  0  0.978694  0
H  H57  1  0.12026726  0.84724108  0.74685311  1  0.101772  0  0.125819  0.104054  0  0.978694  0
H  H58  1  0.62027210  0.74685464  0.84723781  1  0.101771  0  0.125868  0.104035  0  0.978684  0
H  H59  1  0.87972833  0.15275882  0.25314705  1  0.101752  0  0.125835  0.104062  0  0.978652  0
H  H60  1  0.89209355  0.34484169  0.51238677  1  0.113561  0  0.120621  0.091868  0  1.00242  0
H  H61  1  0.60790517  0.48761484  0.65515848  1  0.113524  0  0.120627  0.091886  0  1.002405  0
H  H62  1  0.10790884  0.65516679  0.48761999  1  0.113199  0  0.120647  0.091901  0  1.002397  0
H  H63  1  0.39209472  0.51238040  0.34483314  1  0.113392  0  0.120628  0.091877  0  1.002422  0
C  C64  1  0.21060083  0.41927959  0.97186817  1  1.558407  0  0.217071  0.6079  0  4.096448  0
C  C65  1  0.28939927  0.02813595  0.58072115  1  1.558488  0  0.217122  0.608015  0  4.096361  0
C  C66  1  0.78940156  0.58072103  0.02813674  1  1.558473  0  0.217139  0.607901  0  4.096438  0
C  C67  1  0.71059652  0.97186865  0.41928198  1  1.558422  0  0.217014  0.607714  0  4.096872  0
C  C68  1  0.04314106  0.36859179  0.95134480  1  -0.009518  0  -0.091705  -0.113711  0  3.859965  0
C  C69  1  0.45685877  0.04865419  0.63140563  1  -0.009152  0  -0.091658  -0.113626  0  3.860082  0
C  C70  1  0.95686071  0.63140651  0.04865589  1  -0.009688  0  -0.091688  -0.113624  0  3.860052  0
C  C71  1  0.54313795  0.95134572  0.36859314  1  -0.009306  0  -0.091673  -0.113588  0  3.860109  0
C  C72  1  0.95571033  0.38731458  0.84719355  1  0.058909  0  -0.169937  -0.165159  0  3.931402  0
C  C73  1  0.54429201  0.15280242  0.61268467  1  0.058514  0  -0.170021  -0.165305  0  3.931507  0
C  C74  1  0.04429102  0.61268608  0.15280665  1  0.05892  0  -0.169996  -0.165296  0  3.931485  0
C  C75  1  0.45570977  0.84719588  0.38731526  1  0.058448  0  -0.16998  -0.165263  0  3.931483  0
C  C76  1  0.98244992  0.31817029  0.75073152  1  -0.025092  0  -0.169835  -0.157221  0  3.926763  0
C  C77  1  0.51755506  0.24926652  0.68182805  1  -0.024734  0  -0.169807  -0.157213  0  3.926973  0
C  C78  1  0.01755231  0.68182958  0.24926868  1  -0.024656  0  -0.169791  -0.157153  0  3.926869  0
C  C79  1  0.48245027  0.75073257  0.31817088  1  -0.024637  0  -0.169841  -0.157257  0  3.926897  0
C  C80  1  0.95751316  0.20202897  0.76226865  1  0.006387  0  -0.091805  -0.111168  0  3.878283  0
C  C81  1  0.54248656  0.23773010  0.79796921  1  0.006187  0  -0.091819  -0.111197  0  3.878348  0
C  C82  1  0.04248640  0.79796934  0.23773177  1  0.006151  0  -0.091859  -0.111256  0  3.878466  0
C  C83  1  0.45751346  0.76226978  0.20203072  1  0.00595  0  -0.091835  -0.111108  0  3.878271  0
C  C84  1  0.05679804  0.18634265  0.86349263  1  0.011277  0  -0.165647  -0.154333  0  3.912785  0
C  C85  1  0.44319954  0.13650466  0.81365530  1  0.011293  0  -0.165605  -0.15421  0  3.912641  0
C  C86  1  0.94319711  0.81365568  0.13650726  1  0.011311  0  -0.165616  -0.154304  0  3.912646  0
C  C87  1  0.55680180  0.86349601  0.18634490  1  0.011308  0  -0.165643  -0.154353  0  3.912639  0
C  C88  1  0.02114452  0.25077758  0.95918551  1  -0.021157  0  -0.166163  -0.162154  0  3.939372  0
C  C89  1  0.47885245  0.04081083  0.74921792  1  -0.021234  0  -0.166193  -0.162255  0  3.939366  0
C  C90  1  0.97885151  0.74921996  0.04081438  1  -0.021275  0  -0.166178  -0.16221  0  3.939403  0
C  C91  1  0.52114560  0.95918987  0.25078035  1  -0.021126  0  -0.166196  -0.162303  0  3.939477  0
C  C92  1  0.97472234  0.12886904  0.66568080  1  1.548863  0  0.216024  0.606236  0  4.123114  0
C  C93  1  0.52527583  0.33431694  0.87112735  1  1.548437  0  0.216091  0.606528  0  4.123196  0
C  C94  1  0.02527548  0.87112692  0.33431756  1  1.548427  0  0.216114  0.606495  0  4.123172  0
C  C95  1  0.47472401  0.66568218  0.12886939  1  1.548703  0  0.216019  0.606258  0  4.123232  0
C  C96  1  0.68899450  0.40774228  0.28841660  1  0.502712  0  0.072082  0.078816  0  3.840596  0
C  C97  1  0.81100454  0.71158354  0.59225435  1  0.502857  0  0.072006  0.078729  0  3.840469  0
C  C98  1  0.31100636  0.59226072  0.71158769  1  0.502631  0  0.072088  0.078866  0  3.840549  0
C  C99  1  0.18899663  0.28841245  0.40774059  1  0.502663  0  0.072124  0.078871  0  3.840595  0
C  C100  1  0.72764341  0.35422954  0.37237620  1  0.024526  0  -0.004101  0.018977  0  4.024205  0
C  C101  1  0.77235543  0.62762524  0.64576914  1  0.024319  0  -0.004096  0.018986  0  4.024191  0
C  C102  1  0.27236100  0.64577424  0.62762710  1  0.024553  0  -0.00406  0.019084  0  4.024154  0
C  C103  1  0.22763820  0.37237546  0.35422936  1  0.024334  0  -0.004069  0.019049  0  4.024151  0
C  C104  1  0.63447199  0.25857701  0.37546814  1  -0.068555  0  -0.049905  -0.054588  0  3.888666  0
C  C105  1  0.86552839  0.62453465  0.74142099  1  -0.068307  0  -0.049898  -0.05454  0  3.88889  0
C  C106  1  0.36553044  0.74142363  0.62453372  1  -0.068495  0  -0.049928  -0.05464  0  3.888988  0
C  C107  1  0.13446812  0.37546447  0.25857688  1  -0.068151  0  -0.049891  -0.054487  0  3.888927  0
C  C108  1  0.50599017  0.22160685  0.29796009  1  0.019479  0  -0.076635  -0.124042  0  3.986566  0
C  C109  1  0.99401070  0.70204261  0.77839155  1  0.019539  0  -0.076585  -0.124036  0  3.986517  0
C  C110  1  0.49401468  0.77839064  0.70204086  1  0.019403  0  -0.076669  -0.124157  0  3.986667  0
C  C111  1  0.00598579  0.29795651  0.22160784  1  0.019396  0  -0.076666  -0.124186  0  3.986761  0
C  C112  1  0.47703408  0.27861877  0.21671942  1  0.428967  0  0.054784  0.089498  0  3.909376  0
C  C113  1  0.02296489  0.78328253  0.72137754  1  0.428991  0  0.054852  0.089685  0  3.909235  0
C  C114  1  0.52297123  0.72138030  0.78328104  1  0.428903  0  0.054772  0.089706  0  3.9093  0
C  C115  1  0.97702961  0.21671738  0.27862172  1  0.428922  0  0.054851  0.089675  0  3.909327  0
C  C116  1  0.86035966  0.39501159  0.45427752  1  0.637988  0  0.077257  0.053906  0  3.922341  0
C  C117  1  0.63963910  0.54572333  0.60498759  1  0.638197  0  0.077251  0.053846  0  3.922298  0
C  C118  1  0.13964300  0.60499771  0.54572633  1  0.638356  0  0.077237  0.053824  0  3.922087  0
C  C119  1  0.36035748  0.45427585  0.39500494  1  0.638027  0  0.07722  0.053771  0  3.92218  0
N  N120  1  0.56829622  0.36957457  0.21208097  1  -1.258718  0  -0.320788  -0.204495  0  3.539091  0
N  N121  1  0.93170378  0.78791935  0.63042238  1  -1.258906  0  -0.320823  -0.204637  0  3.539162  0
N  N122  1  0.43170375  0.63042528  0.78792202  1  -1.258756  0  -0.320833  -0.204656  0  3.539239  0
N  N123  1  0.06829694  0.21207898  0.36957436  1  -1.258787  0  -0.320845  -0.204617  0  3.539257  0
N  N124  1  0.93951418  0.48765021  0.45808936  1  -0.801933  0  -0.210887  -0.173209  0  3.315432  0
N  N125  1  0.56048569  0.54191035  0.51234988  1  -0.801551  0  -0.210886  -0.173192  0  3.31543  0
N  N126  1  0.06048209  0.51235598  0.54191252  1  -0.728761  0  -0.210876  -0.173132  0  3.315085  0
N  N127  1  0.43951726  0.45808800  0.48764484  1  -0.729215  0  -0.210812  -0.17302  0  3.315147  0
O  O128  1  0.29417950  0.39566974  0.04988467  1  -1.180879  0  -0.321681  -0.562143  0  2.344544  0
O  O129  1  0.20582053  0.95011488  0.60432137  1  -1.180885  0  -0.321693  -0.562196  0  2.344589  0
O  O130  1  0.70582312  0.60431988  0.95011493  1  -1.180853  0  -0.321761  -0.562215  0  2.344552  0
O  O131  1  0.79417582  0.04988351  0.39567102  1  -1.180853  0  -0.321661  -0.562085  0  2.344639  0
O  O132  1  0.25401174  0.48290259  0.91233226  1  -1.173299  0  -0.312815  -0.543386  0  2.33839  0
O  O133  1  0.24599315  0.08767892  0.51710420  1  -1.173302  0  -0.312829  -0.543447  0  2.338325  0
O  O134  1  0.74599082  0.51710271  0.08767791  1  -1.173315  0  -0.312826  -0.543387  0  2.338335  0
O  O135  1  0.75400928  0.91233351  0.48290159  1  -1.173298  0  -0.312823  -0.543319  0  2.338582  0
O  O136  1  0.95982738  0.03143157  0.67256088  1  -1.167273  0  -0.330483  -0.565229  0  2.315398  0
O  O137  1  0.54017515  0.32744453  0.96856556  1  -1.167244  0  -0.330562  -0.565413  0  2.315566  0
O  O138  1  0.04017656  0.96856669  0.32744236  1  -1.167174  0  -0.330552  -0.565367  0  2.315473  0
O  O139  1  0.45983111  0.67256166  0.03143218  1  -1.167265  0  -0.330436  -0.56523  0  2.315415  0
O  O140  1  0.99895632  0.16910993  0.58499440  1  -1.175292  0  -0.319524  -0.550247  0  2.332977  0
O  O141  1  0.50103547  0.41500467  0.83088772  1  -1.175127  0  -0.3195  -0.550344  0  2.332985  0
O  O142  1  0.00103531  0.83088763  0.41500419  1  -1.175132  0  -0.319511  -0.550338  0  2.332982  0
O  O143  1  0.49895661  0.58499447  0.16911038  1  -1.17511  0  -0.319545  -0.550288  0  2.333029  0
