# generated using pymatgen
data_AgH4C7NO4
_symmetry_space_group_name_H-M   'P 1'
_cell_length_a   3.60647581
_cell_length_b   8.42254526
_cell_length_c   23.53552811
_cell_angle_alpha   90.00012622
_cell_angle_beta   90.00054306
_cell_angle_gamma   90.00014144
_symmetry_Int_Tables_number   1
_chemical_formula_structural   AgH4C7NO4
_chemical_formula_sum   'Ag4 H16 C28 N4 O16'
_cell_volume   714.90827547
_cell_formula_units_Z   4
loop_
 _symmetry_equiv_pos_site_id
 _symmetry_equiv_pos_as_xyz
  1  'x, y, z'
loop_
 _atom_site_type_symbol
 _atom_site_label
 _atom_site_symmetry_multiplicity
 _atom_site_fract_x
 _atom_site_fract_y
 _atom_site_fract_z
 _atom_site_occupancy
 _atom_site_hle17_bader_spin_density
 _atom_site_hle17_ddec_charge
 _atom_site_hle17_ddec_spin_density
 _atom_site_hle17_ddec_sum_bond_order
 _atom_site_hle17_magmom
 _atom_site_hse06_10hf_bader_spin_density
 _atom_site_hse06_10hf_ddec_charge
 _atom_site_hse06_10hf_ddec_spin_density
 _atom_site_hse06_10hf_ddec_sum_bond_order
 _atom_site_hse06_10hf_magmom
 _atom_site_hse06_bader_spin_density
 _atom_site_hse06_ddec_charge
 _atom_site_hse06_ddec_spin_density
 _atom_site_hse06_ddec_sum_bond_order
 _atom_site_hse06_magmom
 _atom_site_pbe_bader_spin_density
 _atom_site_pbe_cm5_charge
 _atom_site_pbe_ddec_charge
 _atom_site_pbe_ddec_spin_density
 _atom_site_pbe_ddec_sum_bond_order
 _atom_site_pbe_magmom
Ag  Ag0  1  0.88796199  0.85002571  0.22280498  1  0  0.637745  0  1.236695  0  0  0.502456  0  1.658908  0  0  0.537232  0  1.606391  0  0  0.443077  0.477939  0  1.695885  0
Ag  Ag1  1  0.61203313  0.14996678  0.72280688  1  0  0.637742  0  1.236681  0  0  0.502465  0  1.658872  0  0  0.537241  0  1.606354  0  0  0.443065  0.477943  0  1.695842  0
Ag  Ag2  1  0.11204695  0.35002814  0.27719306  1  0  0.637739  0  1.236738  0  0  0.502451  0  1.658927  0  0  0.537226  0  1.606409  0  0  0.443058  0.477935  0  1.695899  0
Ag  Ag3  1  0.38797259  0.64996651  0.77719320  1  0  0.637722  0  1.236705  0  0  0.50245  0  1.65888  0  0  0.537227  0  1.606359  0  0  0.443057  0.477927  0  1.695849  0
H  H4  1  0.38178896  0.30229271  0.08604478  1  0  0.124266  0  0.956126  0  0  0.128246  0  1.023945  0  0  0.133231  0  1.020007  0  0  0.109748  0.124623  0  1.026902  0
H  H5  1  0.11821312  0.69770667  0.58604499  1  0  0.124266  0  0.956158  0  0  0.128235  0  1.023982  0  0  0.133222  0  1.020043  0  0  0.109731  0.124611  0  1.026936  0
H  H6  1  0.61822803  0.80229119  0.41395493  1  0  0.124303  0  0.956161  0  0  0.12828  0  1.023981  0  0  0.133266  0  1.020039  0  0  0.109788  0.124655  0  1.026933  0
H  H7  1  0.88179286  0.19770962  0.91395513  1  0  0.124282  0  0.95616  0  0  0.128259  0  1.023986  0  0  0.133242  0  1.020046  0  0  0.109775  0.124636  0  1.026941  0
H  H8  1  0.18698355  0.12652363  0.00350680  1  0  0.100147  0  0.941455  0  0  0.112376  0  0.998573  0  0  0.114652  0  0.997846  0  0  0.110942  0.11073  0  0.999186  0
H  H9  1  0.31301616  0.87348118  0.50350828  1  0  0.100077  0  0.941332  0  0  0.112309  0  0.998463  0  0  0.114584  0  0.997737  0  0  0.1109  0.11066  0  0.999072  0
H  H10  1  0.81304080  0.62652046  0.49649234  1  0  0.100083  0  0.941371  0  0  0.11231  0  0.998507  0  0  0.114585  0  0.997778  0  0  0.110896  0.110661  0  0.999118  0
H  H11  1  0.68698247  0.37348206  0.99649198  1  0  0.100125  0  0.941351  0  0  0.112359  0  0.998469  0  0  0.114634  0  0.997742  0  0  0.110924  0.110712  0  0.99909  0
H  H12  1  0.24167911  0.83399985  0.01427976  1  0  0.113939  0  0.964757  0  0  0.119727  0  1.033946  0  0  0.12312  0  1.031916  0  0  0.111448  0.117277  0  1.03553  0
H  H13  1  0.25829077  0.16600383  0.51428232  1  0  0.11398  0  0.964861  0  0  0.119806  0  1.03397  0  0  0.1232  0  1.031938  0  0  0.111502  0.117358  0  1.035553  0
H  H14  1  0.75831588  0.33399718  0.48571912  1  0  0.113991  0  0.964807  0  0  0.1198  0  1.033957  0  0  0.123195  0  1.031925  0  0  0.11146  0.117351  0  1.035547  0
H  H15  1  0.74171226  0.66600764  0.98571906  1  0  0.113965  0  0.964811  0  0  0.119797  0  1.03392  0  0  0.12319  0  1.031889  0  0  0.111467  0.117347  0  1.035507  0
H  H16  1  0.62525945  0.50774048  0.16085024  1  0  0.436146  0  0.857779  0  0  0.404751  0  0.925131  0  0  0.417249  0  0.907418  0  0  0.315047  0.395974  0  0.937555  0
H  H17  1  0.87470963  0.49225874  0.66085236  1  0  0.436057  0  0.857789  0  0  0.404606  0  0.92531  0  0  0.417103  0  0.907601  0  0  0.31501  0.395833  0  0.937729  0
H  H18  1  0.37472542  0.00773884  0.33914839  1  0  0.436092  0  0.857794  0  0  0.404642  0  0.925266  0  0  0.417139  0  0.907556  0  0  0.315026  0.395869  0  0.937685  0
H  H19  1  0.12529797  0.99225857  0.83914672  1  0  0.436048  0  0.857826  0  0  0.404596  0  0.92533  0  0  0.417093  0  0.907622  0  0  0.314992  0.395823  0  0.937748  0
C  C20  1  0.69048649  0.20269504  0.18517807  1  0  0.628308  0  3.904966  0  0  0.572415  0  4.190471  0  0  0.606642  0  4.185664  0  0  0.207239  0.549088  0  4.192917  0
C  C21  1  0.80953125  0.79729959  0.68517991  1  0  0.628045  0  3.905371  0  0  0.572096  0  4.190961  0  0  0.606322  0  4.186159  0  0  0.207075  0.548767  0  4.193404  0
C  C22  1  0.30951610  0.70269611  0.31482156  1  0  0.628314  0  3.905057  0  0  0.572456  0  4.190512  0  0  0.606679  0  4.185713  0  0  0.207273  0.549136  0  4.192943  0
C  C23  1  0.19047805  0.29730353  0.81482114  1  0  0.628253  0  3.905232  0  0  0.572328  0  4.190755  0  0  0.606551  0  4.185954  0  0  0.207189  0.549005  0  4.193192  0
C  C24  1  0.56229028  0.10163035  0.13598890  1  0  0.106723  0  3.727674  0  0  0.1111  0  3.969073  0  0  0.111525  0  3.989103  0  0  0.114362  0.110477  0  3.955768  0
C  C25  1  0.93771330  0.89836753  0.63599015  1  0  0.106796  0  3.727519  0  0  0.111179  0  3.96893  0  0  0.111609  0  3.988962  0  0  0.114366  0.110561  0  3.955622  0
C  C26  1  0.43771453  0.60163187  0.36401108  1  0  0.106776  0  3.727547  0  0  0.111132  0  3.96896  0  0  0.111561  0  3.988992  0  0  0.114385  0.110512  0  3.955645  0
C  C27  1  0.06229655  0.39837163  0.86401055  1  0  0.106747  0  3.727561  0  0  0.111194  0  3.968891  0  0  0.111625  0  3.98892  0  0  0.114405  0.110577  0  3.955574  0
C  C28  1  0.41054249  0.17328185  0.08749362  1  0  -0.1056  0  3.66476  0  0  -0.127941  0  3.914299  0  0  -0.131893  0  3.933183  0  0  -0.07213  -0.125268  0  3.901863  0
C  C29  1  0.08946246  0.82671754  0.58749389  1  0  -0.105716  0  3.664726  0  0  -0.128034  0  3.914255  0  0  -0.131985  0  3.933131  0  0  -0.07214  -0.125367  0  3.901821  0
C  C30  1  0.58947380  0.67328266  0.41250683  1  0  -0.105707  0  3.66476  0  0  -0.128054  0  3.914313  0  0  -0.132003  0  3.933189  0  0  -0.072182  -0.125382  0  3.901869  0
C  C31  1  0.91054146  0.32672052  0.91250676  1  0  -0.105635  0  3.664692  0  0  -0.128006  0  3.914239  0  0  -0.131957  0  3.933124  0  0  -0.072149  -0.125333  0  3.901801  0
C  C32  1  0.30149531  0.07684287  0.04245309  1  0  0.001514  0  3.684589  0  0  -0.014612  0  3.93581  0  0  -0.013406  0  3.954634  0  0  -0.062754  -0.015397  0  3.923084  0
C  C33  1  0.19850406  0.92315862  0.54245487  1  0  0.001825  0  3.684241  0  0  -0.014316  0  3.935441  0  0  -0.013108  0  3.954266  0  0  -0.062632  -0.015099  0  3.922715  0
C  C34  1  0.69852045  0.57684052  0.45754559  1  0  0.001683  0  3.684357  0  0  -0.01442  0  3.935565  0  0  -0.013213  0  3.954391  0  0  -0.06268  -0.015203  0  3.922839  0
C  C35  1  0.80149484  0.42315938  0.95754586  1  0  0.001698  0  3.684244  0  0  -0.014434  0  3.935466  0  0  -0.013228  0  3.954289  0  0  -0.062687  -0.015226  0  3.922762  0
C  C36  1  0.33346250  0.91281466  0.04795575  1  0  -0.080213  0  3.671936  0  0  -0.107724  0  3.92472  0  0  -0.110033  0  3.944489  0  0  -0.067629  -0.106233  0  3.911621  0
C  C37  1  0.16652057  0.08719042  0.54795939  1  0  -0.080389  0  3.672156  0  0  -0.107906  0  3.924918  0  0  -0.110216  0  3.944686  0  0  -0.067714  -0.10642  0  3.91183  0
C  C38  1  0.66653847  0.41281049  0.45204318  1  0  -0.080326  0  3.671988  0  0  -0.107877  0  3.9248  0  0  -0.110188  0  3.944567  0  0  -0.067691  -0.106394  0  3.911717  0
C  C39  1  0.83347925  0.58719293  0.95204235  1  0  -0.080357  0  3.672041  0  0  -0.107883  0  3.924813  0  0  -0.110192  0  3.944583  0  0  -0.067681  -0.1064  0  3.91173  0
C  C40  1  0.47965369  0.85023050  0.09810512  1  0  0.077933  0  3.752182  0  0  0.081633  0  3.997788  0  0  0.079919  0  4.019391  0  0  0.10909  0.082558  0  3.983403  0
C  C41  1  0.02032973  0.14976659  0.59810562  1  0  0.07811  0  3.752271  0  0  0.081758  0  3.997821  0  0  0.080045  0  4.019422  0  0  0.10913  0.082677  0  3.983454  0
C  C42  1  0.52033861  0.35023178  0.40189589  1  0  0.078073  0  3.7521  0  0  0.081759  0  3.997698  0  0  0.080044  0  4.0193  0  0  0.109139  0.082681  0  3.983325  0
C  C43  1  0.97967876  0.64977133  0.90189489  1  0  0.078209  0  3.752185  0  0  0.081862  0  3.997759  0  0  0.080146  0  4.019363  0  0  0.109183  0.082791  0  3.983383  0
C  C44  1  0.49082223  0.67251109  0.10531629  1  0  0.627418  0  3.833122  0  0  0.576122  0  4.133301  0  0  0.608827  0  4.124875  0  0  0.231968  0.553866  0  4.138555  0
C  C45  1  0.00910064  0.32748604  0.60531733  1  0  0.627287  0  3.8331  0  0  0.576184  0  4.132956  0  0  0.608898  0  4.124515  0  0  0.231919  0.553929  0  4.138219  0
C  C46  1  0.50912751  0.17251113  0.39468374  1  0  0.627347  0  3.833088  0  0  0.576129  0  4.133102  0  0  0.608845  0  4.124661  0  0  0.231989  0.55387  0  4.138361  0
C  C47  1  0.99090328  0.82748956  0.89468289  1  0  0.627195  0  3.833234  0  0  0.576066  0  4.133138  0  0  0.608777  0  4.124703  0  0  0.231855  0.553796  0  4.138418  0
N  N48  1  0.59886030  0.94343768  0.14092986  1  0  -0.331794  0  3.293228  0  0  -0.274788  0  3.566835  0  0  -0.288789  0  3.583349  0  0  -0.315956  -0.265019  0  3.555725  0
N  N49  1  0.90113527  0.05655786  0.64093211  1  0  -0.331868  0  3.293222  0  0  -0.274885  0  3.566851  0  0  -0.288885  0  3.583362  0  0  -0.315986  -0.265111  0  3.555738  0
N  N50  1  0.40113252  0.44343975  0.35906952  1  0  -0.33188  0  3.293238  0  0  -0.274876  0  3.566865  0  0  -0.288876  0  3.583375  0  0  -0.315978  -0.265105  0  3.555749  0
N  N51  1  0.09887548  0.55655898  0.85906960  1  0  -0.331923  0  3.293269  0  0  -0.27497  0  3.566896  0  0  -0.28897  0  3.583408  0  0  -0.316032  -0.265199  0  3.555776  0
O  O52  1  0.58025467  0.34573369  0.18690947  1  0  -0.645935  0  2.081546  0  0  -0.578229  0  2.327879  0  0  -0.605529  0  2.313291  0  0  -0.318007  -0.558985  0  2.337388  0
O  O53  1  0.91977981  0.65426332  0.68691008  1  0  -0.645831  0  2.08175  0  0  -0.578081  0  2.328124  0  0  -0.60538  0  2.313536  0  0  -0.317906  -0.558841  0  2.337634  0
O  O54  1  0.41975425  0.84573606  0.31309154  1  0  -0.645957  0  2.081553  0  0  -0.578247  0  2.327902  0  0  -0.605544  0  2.313315  0  0  -0.318059  -0.559012  0  2.337411  0
O  O55  1  0.08022593  0.15426594  0.81309043  1  0  -0.645922  0  2.08171  0  0  -0.578188  0  2.328075  0  0  -0.605484  0  2.313486  0  0  -0.317943  -0.558953  0  2.337584  0
O  O56  1  0.65077753  0.62712718  0.15316277  1  0  -0.552618  0  2.192467  0  0  -0.494596  0  2.431398  0  0  -0.518293  0  2.410323  0  0  -0.320993  -0.478058  0  2.445575  0
O  O57  1  0.84918553  0.37287080  0.65316604  1  0  -0.55248  0  2.192633  0  0  -0.494473  0  2.431582  0  0  -0.518172  0  2.410504  0  0  -0.320882  -0.477935  0  2.445759  0
O  O58  1  0.34920523  0.12712912  0.34683382  1  0  -0.552538  0  2.192575  0  0  -0.494472  0  2.431533  0  0  -0.518174  0  2.410454  0  0  -0.320911  -0.477937  0  2.445713  0
O  O59  1  0.15082696  0.87287071  0.84683422  1  0  -0.55247  0  2.192697  0  0  -0.49446  0  2.43165  0  0  -0.518162  0  2.410577  0  0  -0.320883  -0.477909  0  2.445804  0
O  O60  1  0.35606604  0.58259390  0.06951411  1  0  -0.541736  0  1.922623  0  0  -0.497258  0  2.136098  0  0  -0.518128  0  2.129536  0  0  -0.286218  -0.48278  0  2.140297  0
O  O61  1  0.14378805  0.41741132  0.56950862  1  0  -0.54179  0  1.922345  0  0  -0.497398  0  2.135747  0  0  -0.518281  0  2.129192  0  0  -0.28625  -0.482917  0  2.139945  0
O  O62  1  0.64382497  0.08258838  0.43049052  1  0  -0.541764  0  1.922449  0  0  -0.497317  0  2.135865  0  0  -0.518199  0  2.129309  0  0  -0.286287  -0.482835  0  2.140059  0
O  O63  1  0.85621082  0.91741728  0.93048997  1  0  -0.541774  0  1.922425  0  0  -0.497343  0  2.135793  0  0  -0.518212  0  2.129225  0  0  -0.286237  -0.482863  0  2.139996  0
O  O64  1  0.89858260  0.14059884  0.22262881  1  0  -0.596247  0  2.123322  0  0  -0.513705  0  2.400194  0  0  -0.546352  0  2.387421  0  0  -0.309242  -0.490811  0  2.408408  0
O  O65  1  0.60143470  0.85939365  0.72262870  1  0  -0.596087  0  2.123539  0  0  -0.513518  0  2.400423  0  0  -0.546169  0  2.387658  0  0  -0.309167  -0.490621  0  2.408619  0
O  O66  1  0.10142242  0.64060182  0.27737119  1  0  -0.596249  0  2.123476  0  0  -0.513703  0  2.400309  0  0  -0.546353  0  2.387545  0  0  -0.30924  -0.490811  0  2.408508  0
O  O67  1  0.39857771  0.35939521  0.77737155  1  0  -0.596166  0  2.123555  0  0  -0.51362  0  2.400444  0  0  -0.546269  0  2.387681  0  0  -0.309231  -0.490731  0  2.408648  0
