# generated using pymatgen
data_ZnH14C16Cl2O7
_symmetry_space_group_name_H-M   'P 1'
_cell_length_a   4.89463606
_cell_length_b   6.65295855
_cell_length_c   27.72669896
_cell_angle_alpha   90.00007293
_cell_angle_beta   90.91471162
_cell_angle_gamma   90.00008205
_symmetry_Int_Tables_number   1
_chemical_formula_structural   ZnH14C16Cl2O7
_chemical_formula_sum   'Zn2 H28 C32 Cl4 O14'
_cell_volume   902.77192097
_cell_formula_units_Z   2
loop_
 _symmetry_equiv_pos_site_id
 _symmetry_equiv_pos_as_xyz
  1  'x, y, z'
loop_
 _atom_site_type_symbol
 _atom_site_label
 _atom_site_symmetry_multiplicity
 _atom_site_fract_x
 _atom_site_fract_y
 _atom_site_fract_z
 _atom_site_occupancy
 _atom_site_hle17_bader_spin_density
 _atom_site_hle17_ddec_charge
 _atom_site_hle17_ddec_spin_density
 _atom_site_hle17_ddec_sum_bond_order
 _atom_site_hle17_magmom
 _atom_site_hse06_10hf_bader_spin_density
 _atom_site_hse06_10hf_ddec_charge
 _atom_site_hse06_10hf_ddec_spin_density
 _atom_site_hse06_10hf_ddec_sum_bond_order
 _atom_site_hse06_10hf_magmom
 _atom_site_hse06_bader_spin_density
 _atom_site_hse06_ddec_charge
 _atom_site_hse06_ddec_spin_density
 _atom_site_hse06_ddec_sum_bond_order
 _atom_site_hse06_magmom
 _atom_site_pbe_bader_spin_density
 _atom_site_pbe_cm5_charge
 _atom_site_pbe_ddec_charge
 _atom_site_pbe_ddec_spin_density
 _atom_site_pbe_ddec_sum_bond_order
 _atom_site_pbe_magmom
Zn  Zn0  1  0.50973477  0.87178365  0.49852710  1  0  1.205016  0  1.683502  0  0  1.027947  0  2.166859  0  0  1.078283  0  2.100347  0  0  0.701309  0.992273  0  2.213056  0
Zn  Zn1  1  0.50973689  0.12821954  0.99853024  1  0  1.204986  0  1.683652  0  0  1.027846  0  2.16704  0  0  1.078193  0  2.100515  0  0  0.701238  0.992167  0  2.213247  0
H  H2  1  0.16274526  0.58090088  0.50654346  1  0  0.446145  0  0.806285  0  0  0.427381  0  0.858144  0  0  0.435813  0  0.848756  0  0  0.32738  0.421388  0  0.864858  0
H  H3  1  0.16275030  0.41910086  0.00654562  1  0  0.446052  0  0.806431  0  0  0.427229  0  0.858366  0  0  0.435657  0  0.84899  0  0  0.327316  0.421235  0  0.865077  0
H  H4  1  0.45556666  0.46368403  0.51617128  1  0  0.454428  0  0.845153  0  0  0.419283  0  0.913043  0  0  0.431446  0  0.895704  0  0  0.294861  0.410727  0  0.925211  0
H  H5  1  0.45557805  0.53631355  0.01617494  1  0  0.454522  0  0.844996  0  0  0.419321  0  0.912989  0  0  0.431487  0  0.895647  0  0  0.294878  0.410763  0  0.925156  0
H  H6  1  0.39667568  0.76835545  0.31987987  1  0  0.105766  0  0.974096  0  0  0.112752  0  1.043442  0  0  0.115969  0  1.042379  0  0  0.098723  0.110458  0  1.044356  0
H  H7  1  0.39667395  0.23164067  0.81988158  1  0  0.105813  0  0.974058  0  0  0.112774  0  1.04341  0  0  0.115993  0  1.042345  0  0  0.098745  0.110474  0  1.044342  0
H  H8  1  0.52095440  0.06795571  0.27343887  1  0  0.102189  0  0.953223  0  0  0.10956  0  1.018828  0  0  0.113065  0  1.016003  0  0  0.096608  0.107057  0  1.020855  0
H  H9  1  0.52096432  0.93204178  0.77344228  1  0  0.102245  0  0.953068  0  0  0.109599  0  1.018704  0  0  0.113096  0  1.015886  0  0  0.096633  0.107101  0  1.020717  0
H  H10  1  0.11061681  0.23054061  0.38379669  1  0  0.114803  0  0.965483  0  0  0.127174  0  1.025158  0  0  0.129796  0  1.023693  0  0  0.109164  0.125255  0  1.026309  0
H  H11  1  0.11061003  0.76946608  0.88380144  1  0  0.114905  0  0.965415  0  0  0.127235  0  1.025127  0  0  0.129858  0  1.02366  0  0  0.109166  0.125322  0  1.026259  0
H  H12  1  0.41632264  0.40958300  0.41683265  1  0  0.111742  0  0.925122  0  0  0.130271  0  0.982613  0  0  0.131639  0  0.981252  0  0  0.109037  0.129194  0  0.98371  0
H  H13  1  0.41632779  0.59041816  0.91683377  1  0  0.111863  0  0.925147  0  0  0.130389  0  0.982615  0  0  0.131761  0  0.981249  0  0  0.109068  0.129309  0  0.983718  0
H  H14  1  0.47408769  0.46285089  0.35419494  1  0  0.068202  0  0.984222  0  0  0.079459  0  1.064616  0  0  0.079312  0  1.065247  0  0  0.08471  0.079431  0  1.064351  0
H  H15  1  0.47409070  0.53715450  0.85419568  1  0  0.068208  0  0.984287  0  0  0.079459  0  1.064681  0  0  0.079325  0  1.0653  0  0  0.084687  0.079429  0  1.064419  0
H  H16  1  0.22290508  0.60322299  0.38673452  1  0  0.084115  0  0.950464  0  0  0.09744  0  1.02301  0  0  0.097861  0  1.022779  0  0  0.093966  0.097086  0  1.023211  0
H  H17  1  0.22289960  0.39678383  0.88673663  1  0  0.084152  0  0.950416  0  0  0.097456  0  1.022964  0  0  0.097879  0  1.022731  0  0  0.093993  0.0971  0  1.02317  0
H  H18  1  0.71782243  0.66230901  0.68332232  1  0  0.104734  0  0.971761  0  0  0.115398  0  1.033342  0  0  0.118588  0  1.032006  0  0  0.101651  0.113058  0  1.034527  0
H  H19  1  0.71783342  0.33768520  0.18332520  1  0  0.104703  0  0.971804  0  0  0.115407  0  1.033332  0  0  0.118592  0  1.032006  0  0  0.101687  0.113106  0  1.034482  0
H  H20  1  0.40037499  0.50758987  0.73985284  1  0  0.09364  0  0.975189  0  0  0.099406  0  1.047047  0  0  0.102722  0  1.044107  0  0  0.090002  0.097036  0  1.049141  0
H  H21  1  0.40037201  0.49240132  0.23985536  1  0  0.093632  0  0.975237  0  0  0.099416  0  1.047095  0  0  0.102733  0  1.044155  0  0  0.090031  0.097043  0  1.049187  0
H  H22  1  0.21681422  0.04422723  0.63577896  1  0  0.115177  0  0.957495  0  0  0.127704  0  1.016857  0  0  0.13055  0  1.01504  0  0  0.108463  0.125655  0  1.018189  0
H  H23  1  0.21683674  0.95576623  0.13578025  1  0  0.115225  0  0.9574  0  0  0.12775  0  1.016766  0  0  0.130598  0  1.014942  0  0  0.108454  0.125702  0  1.018106  0
H  H24  1  0.11686499  0.73051719  0.58020986  1  0  0.0994  0  0.967248  0  0  0.111092  0  1.040239  0  0  0.11287  0  1.038154  0  0  0.100919  0.10971  0  1.041835  0
H  H25  1  0.11688609  0.26948639  0.08021058  1  0  0.099487  0  0.967182  0  0  0.111126  0  1.040215  0  0  0.112906  0  1.03813  0  0  0.100907  0.109744  0  1.041807  0
H  H26  1  0.09911519  0.66036811  0.64228434  1  0  0.075283  0  0.970854  0  0  0.091381  0  1.040437  0  0  0.090507  0  1.042538  0  0  0.089807  0.091905  0  1.039073  0
H  H27  1  0.09913437  0.33963278  0.14228652  1  0  0.075475  0  0.970754  0  0  0.091568  0  1.040329  0  0  0.090696  0  1.042428  0  0  0.089854  0.092088  0  1.038972  0
H  H28  1  0.84283177  0.82463969  0.61568795  1  0  0.089501  0  0.954175  0  0  0.1031  0  1.023565  0  0  0.104011  0  1.022651  0  0  0.094211  0.102395  0  1.024248  0
H  H29  1  0.84285060  0.17536181  0.11569044  1  0  0.089505  0  0.954167  0  0  0.103129  0  1.023516  0  0  0.10404  0  1.022601  0  0  0.094252  0.102424  0  1.024202  0
C  C30  1  0.87714504  0.96530737  0.39769175  1  0  -0.166423  0  3.72899  0  0  -0.150751  0  3.973304  0  0  -0.162207  0  3.992853  0  0  -0.027228  -0.143311  0  3.960236  0
C  C31  1  0.87713882  0.03469415  0.89769267  1  0  -0.166617  0  3.729014  0  0  -0.150841  0  3.973358  0  0  -0.162293  0  3.992899  0  0  -0.02724  -0.143403  0  3.960301  0
C  C32  1  0.67900802  0.82996292  0.37915704  1  0  0.27242  0  3.786379  0  0  0.251831  0  4.046561  0  0  0.266407  0  4.06108  0  0  0.091587  0.241954  0  4.036679  0
C  C33  1  0.67900411  0.17004130  0.87915909  1  0  0.27245  0  3.786138  0  0  0.251668  0  4.046596  0  0  0.266257  0  4.061116  0  0  0.091445  0.241758  0  4.036715  0
C  C34  1  0.55209782  0.86927007  0.33445786  1  0  -0.179451  0  3.748461  0  0  -0.200743  0  4.007926  0  0  -0.208253  0  4.029043  0  0  -0.108267  -0.195898  0  3.993948  0
C  C35  1  0.55209996  0.13073680  0.83446028  1  0  -0.179612  0  3.748588  0  0  -0.200788  0  4.008096  0  0  -0.208296  0  4.029207  0  0  -0.10834  -0.195948  0  3.994123  0
C  C36  1  0.62327596  0.03845019  0.30788660  1  0  -0.095385  0  3.778193  0  0  -0.11996  0  4.032853  0  0  -0.118218  0  4.051429  0  0  -0.096959  -0.120877  0  4.020355  0
C  C37  1  0.62327982  0.96155361  0.80788928  1  0  -0.095318  0  3.777993  0  0  -0.119881  0  4.032633  0  0  -0.118132  0  4.051212  0  0  -0.096904  -0.120796  0  4.020136  0
C  C38  1  0.82564970  0.16786945  0.32560803  1  0  0.099464  0  3.827847  0  0  0.111971  0  4.096093  0  0  0.111475  0  4.118107  0  0  -0.005103  0.111925  0  4.081383  0
C  C39  1  0.82565739  0.83213615  0.82561031  1  0  0.099384  0  3.827943  0  0  0.111887  0  4.096199  0  0  0.11139  0  4.118211  0  0  -0.005152  0.111839  0  4.081493  0
C  C40  1  0.95225041  0.13115814  0.36992318  1  0  -0.097168  0  3.732416  0  0  -0.13034  0  3.975737  0  0  -0.127533  0  3.994717  0  0  -0.087246  -0.131957  0  3.962969  0
C  C41  1  0.95224796  0.86884631  0.86992509  1  0  -0.097222  0  3.732593  0  0  -0.130358  0  3.975885  0  0  -0.127552  0  3.994864  0  0  -0.087202  -0.131971  0  3.963116  0
C  C42  1  0.02067243  0.93291396  0.44497347  1  0  0.70261  0  3.829418  0  0  0.64943  0  4.118681  0  0  0.687006  0  4.107859  0  0  0.228909  0.623751  0  4.125513  0
C  C43  1  0.02066223  0.06709597  0.94497186  1  0  0.702893  0  3.829035  0  0  0.649636  0  4.118377  0  0  0.687212  0  4.107548  0  0  0.228906  0.623954  0  4.125213  0
C  C44  1  0.42232537  0.52748386  0.38936914  1  0  -0.079089  0  3.633338  0  0  -0.178586  0  3.905077  0  0  -0.171141  0  3.907722  0  0  -0.147139  -0.183447  0  3.903255  0
C  C45  1  0.42232620  0.47252017  0.88936985  1  0  -0.079345  0  3.633507  0  0  -0.178775  0  3.905295  0  0  -0.171327  0  3.907933  0  0  -0.14717  -0.183667  0  3.903467  0
C  C46  1  0.50135604  0.26864626  0.61289282  1  0  -0.15428  0  3.710043  0  0  -0.137231  0  3.953583  0  0  -0.148034  0  3.973161  0  0  -0.025569  -0.130293  0  3.940555  0
C  C47  1  0.50136786  0.73134886  0.11289474  1  0  -0.153964  0  3.709725  0  0  -0.136969  0  3.953275  0  0  -0.147767  0  3.972847  0  0  -0.025501  -0.130029  0  3.940256  0
C  C48  1  0.64578847  0.44546395  0.62613937  1  0  0.273626  0  3.761912  0  0  0.254426  0  4.020719  0  0  0.268397  0  4.036665  0  0  0.094754  0.244975  0  4.009794  0
C  C49  1  0.64581215  0.55453891  0.12614379  1  0  0.273469  0  3.761926  0  0  0.254324  0  4.020719  0  0  0.268298  0  4.036662  0  0  0.094725  0.244867  0  4.009812  0
C  C50  1  0.60692878  0.52821520  0.67215906  1  0  -0.19312  0  3.773096  0  0  -0.212612  0  4.0279  0  0  -0.219738  0  4.04829  0  0  -0.110219  -0.207919  0  4.01427  0
C  C51  1  0.60694617  0.47177733  0.17216271  1  0  -0.193136  0  3.773106  0  0  -0.212641  0  4.027905  0  0  -0.219772  0  4.048302  0  0  -0.110302  -0.207989  0  4.014262  0
C  C52  1  0.42698707  0.44081649  0.70438439  1  0  -0.106287  0  3.806967  0  0  -0.133195  0  4.066896  0  0  -0.131087  0  4.084845  0  0  -0.100022  -0.134172  0  4.054415  0
C  C53  1  0.42700669  0.55917303  0.20438772  1  0  -0.106276  0  3.807223  0  0  -0.133212  0  4.067176  0  0  -0.131105  0  4.08513  0  0  -0.100044  -0.134172  0  4.054664  0
C  C54  1  0.28476031  0.26734168  0.69107611  1  0  0.104227  0  3.82601  0  0  0.115333  0  4.09824  0  0  0.115065  0  4.120516  0  0  -0.005784  0.115127  0  4.083278  0
C  C55  1  0.28477827  0.73264162  0.19107804  1  0  0.104444  0  3.826285  0  0  0.115538  0  4.098496  0  0  0.115272  0  4.120771  0  0  -0.00571  0.11534  0  4.083531  0
C  C56  1  0.32398449  0.18117541  0.64605808  1  0  -0.108757  0  3.740114  0  0  -0.144875  0  3.989128  0  0  -0.141737  0  4.006755  0  0  -0.090348  -0.146751  0  3.97732  0
C  C57  1  0.32400873  0.81882273  0.14606186  1  0  -0.109072  0  3.740217  0  0  -0.145176  0  3.989244  0  0  -0.142038  0  4.00687  0  0  -0.090426  -0.147041  0  3.977397  0
C  C58  1  0.52932500  0.16704774  0.56516473  1  0  0.673868  0  3.873684  0  0  0.621629  0  4.164712  0  0  0.657518  0  4.155524  0  0  0.214792  0.597238  0  4.170292  0
C  C59  1  0.52936157  0.83294415  0.06516604  1  0  0.673864  0  3.873781  0  0  0.621651  0  4.16478  0  0  0.657541  0  4.155587  0  0  0.214712  0.597253  0  4.170369  0
C  C60  1  0.97868132  0.69587747  0.60959452  1  0  -0.085304  0  3.619343  0  0  -0.182598  0  3.888321  0  0  -0.175746  0  3.891679  0  0  -0.151348  -0.18706  0  3.885908  0
C  C61  1  0.97870451  0.30412112  0.10959670  1  0  -0.085598  0  3.619333  0  0  -0.182872  0  3.888423  0  0  -0.176015  0  3.891764  0  0  -0.151445  -0.187336  0  3.886024  0
Cl  Cl62  1  0.91835720  0.37796842  0.29230056  1  0  -0.104135  0  1.381442  0  0  -0.083352  0  1.623078  0  0  -0.087352  0  1.618816  0  0  0.006967  -0.080419  0  1.626269  0
Cl  Cl63  1  0.91836441  0.62203259  0.79230531  1  0  -0.104099  0  1.38144  0  0  -0.083307  0  1.623063  0  0  -0.08731  0  1.61881  0  0  0.006971  -0.080371  0  1.626255  0
Cl  Cl64  1  0.06152652  0.15548618  0.73121520  1  0  -0.101978  0  1.374315  0  0  -0.078934  0  1.608313  0  0  -0.084306  0  1.606562  0  0  -0.001848  -0.075053  0  1.609687  0
Cl  Cl65  1  0.06153045  0.84450312  0.23121424  1  0  -0.102053  0  1.374354  0  0  -0.079006  0  1.608358  0  0  -0.084379  0  1.606608  0  0  -0.001908  -0.075134  0  1.609725  0
O  O66  1  0.35990038  0.59212304  0.50382030  1  0  -0.862074  0  1.902982  0  0  -0.790049  0  2.129714  0  0  -0.812834  0  2.094581  0  0  -0.568655  -0.774049  0  2.154007  0
O  O67  1  0.35990333  0.40787587  0.00382389  1  0  -0.862032  0  1.903048  0  0  -0.789858  0  2.129823  0  0  -0.812672  0  2.094743  0  0  -0.568593  -0.773853  0  2.154118  0
O  O68  1  0.27236620  0.98291290  0.44661104  1  0  -0.6344  0  2.073612  0  0  -0.561357  0  2.343509  0  0  -0.591354  0  2.329102  0  0  -0.302866  -0.540467  0  2.352801  0
O  O69  1  0.27235790  0.01709128  0.94661194  1  0  -0.634482  0  2.073373  0  0  -0.561418  0  2.343311  0  0  -0.591421  0  2.328906  0  0  -0.302813  -0.540531  0  2.35261  0
O  O70  1  0.90070288  0.85678295  0.48136604  1  0  -0.658368  0  2.060374  0  0  -0.590731  0  2.340431  0  0  -0.618226  0  2.319695  0  0  -0.314372  -0.571629  0  2.354301  0
O  O71  1  0.90069081  0.14322655  0.98136336  1  0  -0.658516  0  2.060326  0  0  -0.590814  0  2.340381  0  0  -0.6183  0  2.319632  0  0  -0.314398  -0.571714  0  2.354261  0
O  O72  1  0.63021607  0.66340399  0.40589660  1  0  -0.254602  0  2.398595  0  0  -0.17582  0  2.637858  0  0  -0.194881  0  2.640865  0  0  -0.182548  -0.162366  0  2.63535  0
O  O73  1  0.63021864  0.33660334  0.90589872  1  0  -0.254391  0  2.398309  0  0  -0.175641  0  2.637687  0  0  -0.194739  0  2.640724  0  0  -0.182435  -0.162103  0  2.635125  0
O  O74  1  0.49496773  0.97443589  0.56534824  1  0  -0.654546  0  2.038398  0  0  -0.578475  0  2.304954  0  0  -0.609205  0  2.290164  0  0  -0.316627  -0.556993  0  2.31443  0
O  O75  1  0.49499035  0.02555146  0.06534997  1  0  -0.654631  0  2.038781  0  0  -0.578495  0  2.305201  0  0  -0.609231  0  2.290422  0  0  -0.31654  -0.557014  0  2.314679  0
O  O76  1  0.57866273  0.26184008  0.52675837  1  0  -0.618402  0  1.979222  0  0  -0.566175  0  2.196044  0  0  -0.589719  0  2.182416  0  0  -0.312494  -0.549807  0  2.204996  0
O  O77  1  0.57868071  0.73815316  0.02675922  1  0  -0.618426  0  1.979117  0  0  -0.566192  0  2.195954  0  0  -0.589734  0  2.182322  0  0  -0.312474  -0.549823  0  2.204911  0
O  O78  1  0.82223055  0.52423041  0.59401162  1  0  -0.242585  0  2.345843  0  0  -0.168185  0  2.584297  0  0  -0.186727  0  2.587428  0  0  -0.183164  -0.155137  0  2.581614  0
O  O79  1  0.82224182  0.47577095  0.09401489  1  0  -0.242488  0  2.345679  0  0  -0.168161  0  2.584149  0  0  -0.186704  0  2.587275  0  0  -0.183085  -0.155115  0  2.581475  0
