# generated using pymatgen
data_Tb2CoH28(C8O9)2
_symmetry_space_group_name_H-M   'P 1'
_cell_length_a   8.86825239
_cell_length_b   9.01563141
_cell_length_c   10.39351831
_cell_angle_alpha   82.24083810
_cell_angle_beta   69.65059454
_cell_angle_gamma   77.97284647
_symmetry_Int_Tables_number   1
_chemical_formula_structural   Tb2CoH28(C8O9)2
_chemical_formula_sum   'Tb2 Co1 H28 C16 O18'
_cell_volume   760.25178932
_cell_formula_units_Z   1
loop_
 _symmetry_equiv_pos_site_id
 _symmetry_equiv_pos_as_xyz
  1  'x, y, z'
loop_
 _atom_site_type_symbol
 _atom_site_label
 _atom_site_symmetry_multiplicity
 _atom_site_fract_x
 _atom_site_fract_y
 _atom_site_fract_z
 _atom_site_occupancy
 _atom_site_hse06_10hf_ddec_charge
 _atom_site_hse06_10hf_ddec_spin_density
 _atom_site_hse06_10hf_ddec_sum_bond_order
 _atom_site_hse06_10hf_magmom
 _atom_site_hse06_ddec_charge
 _atom_site_hse06_ddec_spin_density
 _atom_site_hse06_ddec_sum_bond_order
 _atom_site_hse06_magmom
 _atom_site_pbe_cm5_charge
 _atom_site_pbe_ddec_charge
 _atom_site_pbe_ddec_spin_density
 _atom_site_pbe_ddec_sum_bond_order
 _atom_site_pbe_magmom
Tb  Tb0  1  0.91452717  0.07532995  0.68918543  1  2.052474  0.000425  2.146989  0.0  2.104202  0.000519  2.102851  0.0  1.513762  2.012851  0.000457  2.182494  0.0
Tb  Tb1  1  0.08547320  0.92466859  0.31081474  1  2.052537  0.000425  2.14688  0.0  2.104262  0.000518  2.102746  0.0  1.513762  2.012877  0.000457  2.182448  0.0
Co  Co2  1  0.00000256  0.99999540  0.99999845  1  0.979743  -1.007626  2.616378  -0.936  1.0744  -1.004445  2.523683  -0.942  0.613143  0.908234  -1.006494  2.689374  -0.926
H  H3  1  0.85257094  0.34358617  0.08038861  1  0.170589  0.000136  0.990982  0.0  0.173443  0.000111  0.98958  0.0  0.105709  0.168466  0.000162  0.992177  0.0
H  H4  1  0.14743481  0.65640535  0.91960436  1  0.170536  0.000136  0.991016  0.0  0.173391  0.000111  0.989616  0.0  0.105693  0.168417  0.000162  0.992209  0.0
H  H5  1  0.66392197  0.43188322  0.04992136  1  0.159899  0.000337  0.98702  0.0  0.162526  0.000274  0.985685  0.0  0.103799  0.157844  0.000366  0.988217  0.0
H  H6  1  0.33608355  0.56810741  0.95007855  1  0.159847  0.000337  0.986981  0.0  0.162476  0.000275  0.985644  0.0  0.103774  0.157791  0.000367  0.988176  0.0
H  H7  1  0.85027955  0.49278824  0.94988562  1  0.166039  0.0002  0.985996  0.0  0.167517  0.000107  0.986435  0.0  0.108871  0.164861  0.000317  0.985861  0.0
H  H8  1  0.14972157  0.50720214  0.05010967  1  0.166059  0.0002  0.985916  0.0  0.167536  0.000107  0.98636  0.0  0.108886  0.164874  0.000317  0.985783  0.0
H  H9  1  0.73581776  0.73939514  0.09207411  1  0.162058  7.9e-05  0.980673  0.0  0.164972  7.3e-05  0.979139  0.0  0.100469  0.159813  8.8e-05  0.982058  0.0
H  H10  1  0.26418042  0.26060224  0.90792677  1  0.162093  7.9e-05  0.980729  0.0  0.165008  7.3e-05  0.979192  0.0  0.100479  0.159846  8.8e-05  0.982112  0.0
H  H11  1  0.59582607  0.72189144  0.00623643  1  0.160777  -0.000141  0.992498  0.0  0.163292  -8.1e-05  0.991698  0.0  0.103103  0.158845  -0.000225  0.993232  0.0
H  H12  1  0.40417016  0.27811041  0.99376242  1  0.160763  -0.000141  0.99252  0.0  0.163279  -8e-05  0.99172  0.0  0.103098  0.158831  -0.000225  0.993258  0.0
H  H13  1  0.55650570  0.88183907  0.09944231  1  0.180591  -0.000224  1.020597  0.0  0.185022  -0.000143  1.017794  0.0  0.106988  0.177166  -0.000333  1.022944  0.0
H  H14  1  0.44349072  0.11816064  0.90056064  1  0.180608  -0.000224  1.020581  0.0  0.185036  -0.000143  1.017784  0.0  0.107015  0.177185  -0.000333  1.022926  0.0
H  H15  1  0.50268758  0.87805342  0.58146982  1  0.146319  0.000169  1.006101  0.0  0.148295  9.1e-05  1.005669  0.0  0.096257  0.145089  0.000198  1.006215  0.0
H  H16  1  0.49732245  0.12195767  0.41852423  1  0.146335  0.000169  1.006163  0.0  0.148307  9.1e-05  1.005734  0.0  0.096251  0.145106  0.000198  1.006275  0.0
H  H17  1  0.44904401  0.72104695  0.69974678  1  0.162137  0.000197  0.981028  0.0  0.16423  9.1e-05  0.98082  0.0  0.106603  0.160453  0.000368  0.981401  0.0
H  H18  1  0.55097447  0.27895374  0.30023975  1  0.162197  0.000197  0.981042  0.0  0.164286  9.1e-05  0.980837  0.0  0.10663  0.160514  0.000368  0.981417  0.0
H  H19  1  0.51850358  0.86809880  0.75040577  1  0.176518  6.6e-05  1.024673  0.0  0.180005  4.7e-05  1.02318  0.0  0.104021  0.173932  9.4e-05  1.025868  0.0
H  H20  1  0.48150697  0.13190322  0.24959034  1  0.17651  6.6e-05  1.024782  0.0  0.18  4.7e-05  1.023281  0.0  0.104031  0.173926  9.4e-05  1.025978  0.0
H  H21  1  0.18206428  0.32282885  0.24477148  1  0.148141  -0.000141  1.037808  0.0  0.149783  -9.4e-05  1.038025  0.0  0.097349  0.146883  -0.000203  1.037816  0.0
H  H22  1  0.81792990  0.67718019  0.75523754  1  0.148209  -0.000141  1.037889  0.0  0.149852  -9.4e-05  1.038107  0.0  0.097424  0.146952  -0.000203  1.037894  0.0
H  H23  1  0.25471701  0.40673807  0.35413233  1  0.167825  1.1e-05  0.97812  0.0  0.170576  5e-06  0.976728  0.0  0.107699  0.165796  2.2e-05  0.979268  0.0
H  H24  1  0.74528009  0.59326193  0.64587812  1  0.167897  1.1e-05  0.978116  0.0  0.170648  5e-06  0.976725  0.0  0.107705  0.165866  2.2e-05  0.979266  0.0
H  H25  1  0.05563553  0.47289350  0.35186380  1  0.186153  1.4e-05  0.999307  0.0  0.189777  1.1e-05  0.997396  0.0  0.111199  0.183527  2.3e-05  1.000811  0.0
H  H26  1  0.94436202  0.52711671  0.64814419  1  0.186205  1.4e-05  0.999246  0.0  0.189829  1.1e-05  0.997333  0.0  0.111253  0.183579  2.3e-05  1.000751  0.0
H  H27  1  0.60279800  0.16633912  0.63281228  1  0.427409  9e-06  0.853955  0.0  0.434735  6e-06  0.843513  0.0  0.335908  0.422175  -3e-06  0.861472  0.0
H  H28  1  0.39720662  0.83366281  0.36718440  1  0.427365  9e-06  0.85401  0.0  0.434689  6e-06  0.843572  0.0  0.335897  0.422134  -3e-06  0.861521  0.0
H  H29  1  0.73667302  0.12350353  0.48725049  1  0.401222  -1e-05  0.9364  0.0  0.412945  -9e-06  0.91937  0.0  0.299692  0.393008  -9e-06  0.948299  0.0
H  H30  1  0.26333100  0.87649502  0.51274777  1  0.401206  -1e-05  0.936427  0.0  0.412933  -9e-06  0.919394  0.0  0.299676  0.392992  -9e-06  0.948325  0.0
C  C31  1  0.27138123  0.92238425  0.74612719  1  0.74581  0.003518  4.038463  0.002  0.785384  0.00168  4.028438  0.001  0.237025  0.717154  0.005801  4.044735  0.003
C  C32  1  0.72862115  0.07761656  0.25387119  1  0.745543  0.003519  4.038606  0.002  0.785115  0.00168  4.02859  0.001  0.236937  0.716886  0.005802  4.044875  0.003
C  C33  1  0.79545606  0.39296407  0.00279048  1  -0.527234  0.000555  3.87221  0.0  -0.534064  0.000507  3.874082  0.0  -0.234796  -0.522457  0.000598  3.871515  0.0
C  C34  1  0.20454475  0.60703220  0.99720988  1  -0.527102  0.000556  3.872198  0.0  -0.533937  0.000508  3.874073  0.0  -0.234742  -0.522316  0.000598  3.871503  0.0
C  C35  1  0.65564343  0.80080135  0.03539439  1  -0.537661  0.000447  3.87441  0.0  -0.545414  0.000407  3.874285  0.0  -0.245136  -0.532194  0.000429  3.875258  0.0
C  C36  1  0.34435406  0.19920048  0.96460318  1  -0.537695  0.000447  3.874438  0.0  -0.545446  0.000407  3.874313  0.0  -0.245151  -0.532232  0.000429  3.875286  0.0
C  C37  1  0.82690472  0.28238578  0.89703827  1  0.738687  0.005504  4.069387  0.003  0.775933  0.00374  4.059182  0.002  0.215638  0.711976  0.007185  4.075891  0.004
C  C38  1  0.17309090  0.71760020  0.10296482  1  0.738566  0.005506  4.069257  0.003  0.775812  0.003739  4.059051  0.002  0.215586  0.711858  0.007188  4.075758  0.004
C  C39  1  0.74870820  0.88770213  0.91011538  1  0.721072  -0.006043  4.119988  -0.008  0.757284  -0.004106  4.109055  -0.006  0.202858  0.695444  -0.008413  4.127114  -0.011
C  C40  1  0.25128916  0.11229977  0.08988414  1  0.721097  -0.006043  4.119982  -0.008  0.757307  -0.004106  4.109051  -0.006  0.202847  0.695472  -0.008411  4.127096  -0.011
C  C41  1  0.44694134  0.84448815  0.69060629  1  -0.545532  0.001164  3.879479  0.001  -0.554479  0.000724  3.881987  0.0  -0.243404  -0.53888  0.001523  3.877771  0.001
C  C42  1  0.55305999  0.15551831  0.30939063  1  -0.545526  0.001164  3.879619  0.001  -0.554465  0.000724  3.882132  0.0  -0.243413  -0.53888  0.001523  3.877916  0.001
C  C43  1  0.14924007  0.36991482  0.34414248  1  -0.531823  -0.000107  3.856737  0.0  -0.539469  -8.2e-05  3.859185  0.0  -0.238537  -0.526412  -0.00012  3.855012  0.0
C  C44  1  0.85075457  0.63008722  0.65586254  1  -0.53209  -0.000107  3.856816  0.0  -0.539729  -8.2e-05  3.859246  0.0  -0.238708  -0.526679  -0.000121  3.855095  0.0
C  C45  1  0.08411301  0.25897029  0.46097531  1  0.763005  -2e-06  4.074105  0.0  0.797231  1e-06  4.064208  0.0  0.221034  0.739807  8.6e-05  4.079752  0.0
C  C46  1  0.91588340  0.74103619  0.53902480  1  0.763169  -2e-06  4.073953  0.0  0.797394  2e-06  4.064052  0.0  0.221127  0.739971  8.7e-05  4.079596  0.0
O  O47  1  0.18960486  0.96051649  0.66281199  1  -0.681486  0.001464  2.283328  0.001  -0.708638  0.000942  2.271283  0.001  -0.378624  -0.662464  0.002199  2.291615  0.002
O  O48  1  0.81040126  0.03947753  0.33718634  1  -0.681439  0.001464  2.283272  0.001  -0.708586  0.000942  2.271228  0.001  -0.378629  -0.66241  0.0022  2.291557  0.002
O  O49  1  0.04996583  0.29047875  0.58398665  1  -0.638051  8.2e-05  2.151698  0.0  -0.662246  5.9e-05  2.143166  0.0  -0.368703  -0.621278  7.3e-05  2.157311  0.0
O  O50  1  0.95002215  0.70952664  0.41601964  1  -0.638133  8.2e-05  2.151851  0.0  -0.662325  5.9e-05  2.143315  0.0  -0.368751  -0.621354  7.3e-05  2.157465  0.0
O  O51  1  0.90397379  0.88183430  0.87947755  1  -0.706755  -0.013322  2.351025  -0.019  -0.738411  -0.01131  2.336884  -0.016  -0.379953  -0.683297  -0.015481  2.360788  -0.021
O  O52  1  0.09602776  0.11815853  0.12052212  1  -0.706776  -0.013324  2.351126  -0.019  -0.738438  -0.011312  2.336997  -0.016  -0.379979  -0.683318  -0.015483  2.360893  -0.021
O  O53  1  0.95484774  0.17363592  0.87528575  1  -0.705173  -9.9e-05  2.477282  -0.007  -0.745878  0.000586  2.463259  -0.007  -0.396483  -0.674302  -0.000851  2.486173  -0.007
O  O54  1  0.04514594  0.82636025  0.12471550  1  -0.70514  -9.8e-05  2.477175  -0.007  -0.745841  0.000587  2.463147  -0.007  -0.396462  -0.674269  -0.000851  2.486086  -0.007
O  O55  1  0.67630206  0.96901374  0.83115236  1  -0.664813  -0.005731  2.210307  -0.01  -0.690456  -0.004208  2.201331  -0.008  -0.379064  -0.646553  -0.007484  2.215991  -0.013
O  O56  1  0.32369324  0.03099165  0.16885012  1  -0.664819  -0.005731  2.210242  -0.01  -0.69047  -0.004208  2.201283  -0.008  -0.379075  -0.646558  -0.007484  2.215927  -0.013
O  O57  1  0.73998122  0.29551728  0.82130331  1  -0.617278  0.004344  2.104221  0.003  -0.644162  0.003538  2.096623  0.003  -0.350651  -0.597554  0.004502  2.10892  0.003
O  O58  1  0.26001420  0.70447556  0.17869987  1  -0.617237  0.004344  2.104062  0.003  -0.644117  0.003539  2.096462  0.003  -0.350618  -0.597508  0.004502  2.108759  0.003
O  O59  1  0.05659018  0.13037389  0.43880574  1  -0.785866  -8e-06  2.349153  0.0  -0.813709  -1.6e-05  2.339079  0.0  -0.460076  -0.765563  -4.2e-05  2.355148  0.0
O  O60  1  0.94340448  0.86963388  0.56119947  1  -0.785898  -8e-06  2.349066  0.0  -0.813758  -1.6e-05  2.339028  0.0  -0.460106  -0.765595  -4.2e-05  2.355058  0.0
O  O61  1  0.71423660  0.17290137  0.57478829  1  -0.84208  -4e-06  2.001873  0.0  -0.859441  -3e-06  1.972126  0.0  -0.624831  -0.829573  -1e-05  2.022707  0.0
O  O62  1  0.28576486  0.82710502  0.42520668  1  -0.842012  -4e-06  2.001968  0.0  -0.859382  -3e-06  1.972228  0.0  -0.624791  -0.8295  -1e-05  2.022811  0.0
O  O63  1  0.21652799  0.94062342  0.87455571  1  -0.542885  0.010926  2.391956  0.009  -0.588013  0.008756  2.382887  0.007  -0.284294  -0.508721  0.01193  2.396712  0.009
O  O64  1  0.78347932  0.05937061  0.12544231  1  -0.542708  0.010925  2.392165  0.009  -0.587837  0.008756  2.383102  0.007  -0.284216  -0.508533  0.011929  2.396898  0.009
