# generated using pymatgen
data_Al2H13C50N6Cl9O20
_symmetry_space_group_name_H-M   'P 1'
_cell_length_a   6.82226067
_cell_length_b   28.05430934
_cell_length_c   31.75965766
_cell_angle_alpha   78.27280875
_cell_angle_beta   89.39829855
_cell_angle_gamma   89.24689949
_symmetry_Int_Tables_number   1
_chemical_formula_structural   Al2H13C50N6Cl9O20
_chemical_formula_sum   'Al4 H26 C100 N12 Cl18 O40'
_cell_volume   5951.01554360
_cell_formula_units_Z   2
loop_
 _symmetry_equiv_pos_site_id
 _symmetry_equiv_pos_as_xyz
  1  'x, y, z'
loop_
 _atom_site_type_symbol
 _atom_site_label
 _atom_site_symmetry_multiplicity
 _atom_site_fract_x
 _atom_site_fract_y
 _atom_site_fract_z
 _atom_site_occupancy
 _atom_site_pbe_bader_charge
 _atom_site_pbe_bader_spin_density
 _atom_site_pbe_cm5_charge
 _atom_site_pbe_ddec_charge
 _atom_site_pbe_ddec_spin_density
 _atom_site_pbe_ddec_sum_bond_order
 _atom_site_pbe_magmom
Al  Al0  1  0.10944354  0.49988064  0.50116770  1  2.505063  0  0.404748  1.644396  0  2.556144  0
Al  Al1  1  0.60558446  0.50111849  0.49930230  1  2.500174  0  0.405521  1.643629  0  2.555393  0
Al  Al2  1  0.69718245  0.00167587  0.99981008  1  2.503226  0  0.401708  1.644859  0  2.550405  0
Al  Al3  1  0.19815928  0.99756970  0.99813164  1  2.502725  0  0.402108  1.641493  0  2.548861  0
H  H4  1  0.59235608  0.63449018  0.40899781  1  0.128693  0  0.113776  0.130959  0  0.998699  0
H  H5  1  0.21145664  0.85442896  0.71154644  1  0.162689  0  0.123816  0.143357  0  0.967975  0
H  H6  1  0.18910779  0.94358034  0.88549680  1  0.121754  0  0.118717  0.139829  0  0.976941  0
H  H7  1  0.83440650  0.32531299  0.24017672  1  0.122157  0  0.124666  0.136628  0  0.969408  0
H  H8  1  0.09691335  0.38643159  0.43742343  1  0.123344  0  0.11385  0.1286  0  0.993  0
H  H9  1  0.70685203  0.10967728  0.16220607  1  0.11992  0  0.11876  0.13508  0  0.968715  0
H  H10  1  0.70269098  0.05868092  0.10647927  1  0.120026  0  0.115509  0.119819  0  0.986741  0
H  H11  1  0.15369347  0.17412576  0.11450292  1  0.125337  0  0.118778  0.145109  0  0.975118  0
H  H12  1  0.65262240  0.42014030  0.61745047  1  0.100944  0  0.113339  0.129775  0  0.993963  0
H  H13  1  0.11617172  0.30216752  0.66173960  1  0.133029  0  0.116334  0.125124  0  0.992433  0
H  H14  1  0.31908820  0.58256233  0.40437552  1  0.086641  0  0.106469  0.045142  0  0.979143  0
H  H15  1  0.56386626  0.60908706  0.77204404  1  0.129928  0  0.113066  0.063847  0  0.978103  0
H  H16  1  0.98906692  0.63257893  0.50196667  1  0.084797  0  0.110697  0.049763  0  0.947247  0
H  H17  1  0.43405039  0.59770517  0.66861824  1  0.111821  0  0.108204  0.055712  0  0.992828  0
H  H18  1  0.89745519  0.15544834  0.23628540  1  0.114895  0  0.111087  0.059787  0  0.997472  0
H  H19  1  0.01520724  0.17868917  0.36702621  1  0.106456  0  0.118035  0.063229  0  0.938562  0
H  H20  1  0.83014390  0.28970305  0.13820441  1  0.079539  0  0.116347  0.063638  0  0.949576  0
H  H21  1  0.57404459  0.50742841  0.37914209  1  0.077317  0  0.101743  0.043595  0  1.00322  0
H  H22  1  0.06052643  0.37689922  0.55194719  1  0.073553  0  0.103582  0.042267  0  0.986294  0
H  H23  1  0.06998100  0.10050095  0.93852542  1  0.146586  0  0.107412  0.064686  0  1.04549  0
H  H24  1  0.54453621  0.90683120  0.06623638  1  0.165756  0  0.108788  0.066562  0  1.055811  0
H  H25  1  0.59339703  0.82053356  0.22322760  1  0.069434  0  0.098921  0.044298  0  1.00451  0
H  H26  1  0.35384134  0.56223145  0.50687147  1  0.625052  0  0.339488  0.424403  0  0.873269  0
H  H27  1  0.85898176  0.44010585  0.49474571  1  0.620609  0  0.352952  0.430965  0  0.850286  0
H  H28  1  0.46249765  0.94117417  0.98833155  1  0.61331  0  0.33585  0.411475  0  0.892507  0
H  H29  1  0.95657935  0.05641134  0.01175162  1  0.6097  0  0.326136  0.398885  0  0.918262  0
C  C30  1  0.36538900  0.45164682  0.44676388  1  1.565543  0  0.277889  0.663457  0  4.057862  0
C  C31  1  0.35772054  0.43589753  0.56256376  1  1.569357  0  0.27095  0.643459  0  4.088342  0
C  C32  1  0.84367719  0.55149847  0.55243499  1  1.591848  0  0.269754  0.655517  0  4.097773  0
C  C33  1  0.86375271  0.56518312  0.43742739  1  1.591244  0  0.272546  0.642452  0  4.088244  0
C  C34  1  0.03895301  0.60555021  0.37037436  1  0.0179  0  -0.005825  -0.038515  0  3.915298  0
C  C35  1  0.04283960  0.64108972  0.33245279  1  0.085542  0  0.03091  0.099709  0  3.993634  0
C  C36  1  0.89165132  0.67604904  0.32257667  1  0.072038  0  -0.003909  -0.08786  0  3.961662  0
C  C37  1  0.73075660  0.67379350  0.35090390  1  0.031727  0  0.024348  0.135161  0  4.03588  0
C  C38  1  0.71821849  0.63676856  0.38735964  1  0.029835  0  -0.086336  -0.165368  0  3.969957  0
C  C39  1  0.87264501  0.60332849  0.39715888  1  0.020021  0  -0.002166  -0.037175  0  3.951791  0
C  C40  1  0.92208369  0.78326238  0.21637404  1  0.972007  0  0.247689  0.257508  0  3.989488  0
C  C41  1  0.90344714  0.71510269  0.28351750  1  1.033851  0  0.241692  0.262307  0  4.024031  0
C  C42  1  0.10780042  0.83853574  0.15781983  1  0.108708  0  0.023117  0.055702  0  4.018337  0
C  C43  1  0.10967922  0.88353333  0.12849457  1  0.156426  0  0.029747  0.085236  0  4.004512  0
C  C44  1  0.93736069  0.89897077  0.10481243  1  -0.044289  0  -0.00797  -0.124826  0  3.888852  0
C  C45  1  0.75873518  0.87724684  0.11994234  1  0.052289  0  0.003773  0.026725  0  3.82608  0
C  C46  1  0.75510195  0.84727417  0.16194080  1  -0.010063  0  -0.006311  -0.018265  0  3.88361  0
C  C47  1  0.92837608  0.82271644  0.17755777  1  0.065719  0  0.004273  -0.049213  0  3.953577  0
C  C48  1  0.87784614  0.64945207  0.71957851  1  1.308979  0  0.251592  0.46554  0  4.038937  0
C  C49  1  0.09775327  0.70390462  0.67370972  1  1.307371  0  0.240861  0.451346  0  4.041201  0
C  C50  1  0.07266633  0.74064983  0.70086219  1  0.041411  0  -0.008276  -0.122434  0  3.938792  0
C  C51  1  0.94025907  0.73045611  0.73653479  1  0.073099  0  0.006231  0.046233  0  3.994014  0
C  C52  1  0.84146255  0.68536777  0.74725192  1  -0.003674  0  0.009094  -0.06592  0  3.940441  0
C  C53  1  0.17289402  0.78481112  0.69314023  1  0.048512  0  0.035073  0.149521  0  4.005068  0
C  C54  1  0.13759470  0.81950679  0.71903845  1  0.063216  0  -0.065879  -0.134028  0  3.904394  0
C  C55  1  0.01103676  0.80943621  0.75385376  1  -0.096631  0  0.001303  -0.029757  0  3.978892  0
C  C56  1  0.91295825  0.76427052  0.76370632  1  0.03678  0  0.005483  0.042103  0  4.007726  0
C  C57  1  0.77775134  0.75503300  0.79847729  1  0.051494  0  -0.008209  -0.118827  0  3.973015  0
C  C58  1  0.68340052  0.71028236  0.80851332  1  0.08417  0  0.040755  0.114258  0  3.979739  0
C  C59  1  0.72328394  0.67398163  0.78390194  1  0.043164  0  0.007786  -0.012428  0  3.864345  0
C  C60  1  0.97381419  0.84642248  0.78044060  1  1.307875  0  0.241023  0.437181  0  4.054874  0
C  C61  1  0.73649261  0.79613438  0.82037249  1  1.291132  0  0.241131  0.45389  0  4.042508  0
C  C62  1  0.82141664  0.83861488  0.89711322  1  0.152274  0  0.010445  0.012139  0  3.981328  0
C  C63  1  0.81537133  0.86996772  0.92654689  1  0.125287  0  0.010529  0.064565  0  4.032948  0
C  C64  1  0.93926398  0.91035790  0.92051205  1  -0.003098  0  -0.018754  -0.080991  0  3.996946  0
C  C65  1  0.07708970  0.91594882  0.88731676  1  0.028478  0  -0.086339  -0.150616  0  3.997239  0
C  C66  1  0.07769297  0.88670366  0.85687381  1  0.121291  0  0.016733  0.075198  0  4.019382  0
C  C67  1  0.92970462  0.85109189  0.85760790  1  0.449066  0  0.100079  0.115387  0  3.918797  0
C  C68  1  0.97125243  0.66073020  0.59953498  1  0.161789  0  0.023966  0.030429  0  3.966027  0
C  C69  1  0.96245462  0.62691117  0.57273401  1  -0.015571  0  -0.005045  -0.016927  0  3.940797  0
C  C70  1  0.84140139  0.58578522  0.58279043  1  0.080001  0  -0.016493  -0.137625  0  3.958936  0
C  C71  1  0.71863266  0.58133425  0.61885119  1  0.067068  0  0.037243  0.126418  0  4.005413  0
C  C72  1  0.73362646  0.61362015  0.64752874  1  0.064544  0  -0.023092  -0.130375  0  3.951033  0
C  C73  1  0.88665614  0.64899426  0.64162035  1  0.437236  0  0.130799  0.188187  0  3.903417  0
C  C74  1  0.58192351  0.20717915  0.17316655  1  1.359453  0  0.249422  0.440851  0  4.103147  0
C  C75  1  0.27493853  0.16588245  0.20459424  1  1.326658  0  0.25439  0.449271  0  4.05711  0
C  C76  1  0.26900938  0.19734627  0.23675749  1  -0.017518  0  0.012254  -0.06984  0  3.932805  0
C  C77  1  0.41843655  0.23197172  0.23637011  1  0.036772  0  0.015314  0.054168  0  3.993812  0
C  C78  1  0.57018623  0.23855312  0.20504459  1  -0.007979  0  0.002859  -0.097446  0  3.962986  0
C  C79  1  0.12226375  0.19184447  0.26855101  1  0.054974  0  0.013002  -0.000411  0  3.887491  0
C  C80  1  0.13263447  0.21716037  0.30306581  1  -0.031991  0  0.023191  0.021376  0  3.838555  0
C  C81  1  0.27867713  0.25140832  0.30252886  1  0.018638  0  0.014444  -0.066419  0  3.922602  0
C  C82  1  0.41763982  0.26033972  0.26858209  1  0.031631  0  0.018219  0.05117  0  3.978338  0
C  C83  1  0.56847460  0.29407856  0.26939467  1  0.018369  0  0.010561  -0.025993  0  3.967381  0
C  C84  1  0.71676137  0.29980103  0.23870078  1  0.032916  0  -0.049289  -0.088899  0  3.867848  0
C  C85  1  0.71637034  0.27292989  0.20568833  1  -0.04098  0  0.009087  0.032743  0  3.923807  0
C  C86  1  0.30553477  0.27637735  0.33903074  1  1.315549  0  0.250872  0.450679  0  4.022884  0
C  C87  1  0.57437493  0.32206466  0.30413623  1  1.29713  0  0.243156  0.432357  0  4.045856  0
C  C88  1  0.47589715  0.40376183  0.34561835  1  0.137985  0  0.034145  0.068067  0  3.933066  0
C  C89  1  0.49194081  0.43190743  0.37713459  1  0.011185  0  -0.013345  -0.043471  0  3.930904  0
C  C90  1  0.36040297  0.42321951  0.41223317  1  0.016624  0  -0.008459  -0.050887  0  3.975421  0
C  C91  1  0.21337878  0.38916581  0.41345529  1  0.0662  0  -0.084417  -0.146975  0  3.993915  0
C  C92  1  0.21078796  0.35822507  0.38431685  1  0.089275  0  0.023963  0.082025  0  4.013458  0
C  C93  1  0.36327552  0.35996217  0.35291290  1  0.395463  0  0.10431  0.102444  0  3.89299  0
C  C94  1  0.58516850  0.11228376  0.13994622  1  0.030657  0  -0.079883  -0.152753  0  3.955814  0
C  C95  1  0.58225385  0.08382656  0.10898749  1  -0.015929  0  -0.068638  -0.053044  0  3.963639  0
C  C96  1  0.42553932  0.08593490  0.08028123  1  0.018856  0  -0.013817  -0.111736  0  3.94054  0
C  C97  1  0.27009401  0.11890794  0.08269015  1  0.049003  0  0.030434  0.15606  0  3.999459  0
C  C98  1  0.27352587  0.14845738  0.11309274  1  0.048801  0  -0.083672  -0.219176  0  3.937293  0
C  C99  1  0.42952641  0.14459194  0.14155683  1  0.293924  0  0.09795  0.220648  0  4.003971  0
C  C100  1  0.53548019  0.39420813  0.62733026  1  0.05058  0  -0.079565  -0.147912  0  3.946365  0
C  C101  1  0.55159126  0.35937653  0.66534783  1  0.08812  0  0.037348  0.145325  0  3.997136  0
C  C102  1  0.40017136  0.32576946  0.67818912  1  0.03342  0  0.002447  -0.028284  0  3.965454  0
C  C103  1  0.23381227  0.32827177  0.65256755  1  0.015688  0  -0.060976  -0.101527  0  3.903081  0
C  C104  1  0.21591639  0.36261404  0.61411229  1  -0.051412  0  -0.012289  0.000941  0  3.961585  0
C  C105  1  0.36881675  0.39622375  0.60184243  1  0.041301  0  0.002176  -0.039224  0  3.919187  0
C  C106  1  0.42484962  0.21813768  0.78399396  1  1.027203  0  0.242031  0.266919  0  4.001471  0
C  C107  1  0.41225114  0.28694550  0.71725799  1  1.009486  0  0.247422  0.263664  0  3.981941  0
C  C108  1  0.60610281  0.16671883  0.84562681  1  0.153812  0  0.024942  0.07305  0  4.025147  0
C  C109  1  0.61577550  0.12090528  0.87424435  1  0.098074  0  0.015256  0.06845  0  3.993837  0
C  C110  1  0.44121606  0.10261877  0.89533955  1  0.052691  0  -0.013899  -0.119496  0  3.909477  0
C  C111  1  0.25999046  0.12367481  0.87954886  1  -0.000126  0  -0.023983  -0.046977  0  3.883659  0
C  C112  1  0.26400689  0.15181261  0.83698890  1  0.100343  0  0.032349  0.121157  0  3.977871  0
C  C113  1  0.43122656  0.17861376  0.82260556  1  0.03999  0  -0.013721  -0.10007  0  3.998949  0
C  C114  1  0.44429599  0.06292130  0.93519272  1  1.614932  0  0.26989  0.658005  0  4.075879  0
C  C115  1  0.43638704  0.05263789  0.04926660  1  1.58676  0  0.273535  0.665784  0  4.076778  0
C  C116  1  0.94588141  0.93687847  0.06359142  1  1.611699  0  0.270102  0.657005  0  4.081058  0
C  C117  1  0.94373598  0.94563098  0.94979718  1  1.610577  0  0.275266  0.670219  0  4.072543  0
C  C118  1  0.21272235  0.57150554  0.38186774  1  0.989602  0  0.109201  0.302531  0  3.955597  0
C  C119  1  0.63990448  0.62342470  0.79743311  1  0.973324  0  0.106234  0.284926  0  3.926514  0
C  C120  1  0.07736332  0.63420540  0.53099037  1  1.010122  0  0.112264  0.302628  0  3.951745  0
C  C121  1  0.56323788  0.61842868  0.67509563  1  0.919228  0  0.097408  0.286108  0  3.930544  0
C  C122  1  0.94571894  0.16123408  0.26793684  1  0.947962  0  0.105506  0.268753  0  3.930585  0
C  C123  1  0.98037075  0.20813161  0.33906148  1  0.997428  0  0.109908  0.288634  0  3.963142  0
C  C124  1  0.87601306  0.28301472  0.17228947  1  0.997653  0  0.108478  0.282272  0  3.940638  0
C  C125  1  0.63588616  0.47291361  0.37253927  1  1.018384  0  0.098091  0.293869  0  3.952497  0
C  C126  1  0.04568162  0.35848789  0.58623146  1  0.940641  0  0.098281  0.274805  0  3.954835  0
C  C127  1  0.10701928  0.13143993  0.91255537  1  0.924323  0  0.074178  0.243948  0  4.012461  0
C  C128  1  0.59654727  0.87386520  0.08819172  1  0.927988  0  0.080434  0.238616  0  3.976188  0
C  C129  1  0.61363766  0.85285546  0.19703019  1  0.969248  0  0.076981  0.239154  0  4.056815  0
N  N130  1  0.77254694  0.71412387  0.25223799  1  -0.545297  0  -0.155501  -0.14212  0  3.175505  0
N  N131  1  0.78286402  0.74912142  0.21738714  1  -0.533783  0  -0.148513  -0.129846  0  3.170921  0
N  N132  1  0.04927377  0.78484846  0.24841646  1  -0.534132  0  -0.150792  -0.134665  0  3.192347  0
N  N133  1  0.04046118  0.74953698  0.28296056  1  -0.538184  0  -0.152897  -0.139925  0  3.185946  0
N  N134  1  0.92872678  0.67275180  0.67475463  1  -1.097919  0  -0.232191  -0.238294  0  3.488943  0
N  N135  1  0.90950624  0.82554164  0.82396332  1  -1.078387  0  -0.234386  -0.231265  0  3.474767  0
N  N136  1  0.42604896  0.17490436  0.17315770  1  -1.162053  0  -0.22233  -0.212786  0  3.5596  0
N  N137  1  0.39093057  0.32447563  0.32734937  1  -1.086132  0  -0.2239  -0.215156  0  3.476176  0
N  N138  1  0.26354836  0.28469988  0.74594232  1  -0.569801  0  -0.153531  -0.139404  0  3.160642  0
N  N139  1  0.27174129  0.24964032  0.78074166  1  -0.533966  0  -0.150333  -0.130434  0  3.190555  0
N  N140  1  0.56925853  0.21919579  0.75434596  1  -0.530891  0  -0.153365  -0.140938  0  3.198815  0
N  N141  1  0.56446240  0.25510002  0.72024231  1  -0.552668  0  -0.152007  -0.135314  0  3.177015  0
Cl  Cl142  1  0.51579218  0.69840427  0.84982272  1  -0.127053  0  0.035223  -0.00937  0  1.54851  0
Cl  Cl143  1  0.72043663  0.78209137  0.91347121  1  -0.146785  0  0.023794  -0.01836  0  1.680085  0
Cl  Cl144  1  0.67254036  0.85503898  0.97228057  1  -0.162788  0  0.023105  -0.026662  0  1.590246  0
Cl  Cl145  1  0.28148989  0.89183282  0.82405372  1  -0.141247  0  0.02976  -0.002834  0  1.634529  0
Cl  Cl146  1  0.05366910  0.71806261  0.57692954  1  -0.139068  0  0.028012  -0.01336  0  1.591516  0
Cl  Cl147  1  0.55508521  0.53407723  0.63110053  1  -0.148585  0  0.048679  -0.012603  0  1.549573  0
Cl  Cl148  1  0.23613320  0.64220574  0.29680885  1  -0.151204  0  0.026289  -0.029133  0  1.548584  0
Cl  Cl149  1  0.55994192  0.42972821  0.29477694  1  -0.142121  0  0.025858  -0.016372  0  1.582369  0
Cl  Cl150  1  0.00113691  0.32501252  0.38542569  1  -0.117849  0  0.045897  0.018815  0  1.686713  0
Cl  Cl151  1  0.54986601  0.71809673  0.34169201  1  -0.154224  0  0.008878  -0.054976  0  1.521945  0
Cl  Cl152  1  0.07342187  0.12782232  0.04779747  1  -0.181872  0  0.029942  -0.041858  0  1.511164  0
Cl  Cl153  1  0.75444231  0.35942933  0.69699151  1  -0.16461  0  0.023224  -0.048319  0  1.521086  0
Cl  Cl154  1  0.78600449  0.20884362  0.83968541  1  -0.083999  0  0.058081  0.028246  0  1.76939  0
Cl  Cl155  1  0.82382524  0.08575710  0.87820597  1  -0.132069  0  0.06725  0.023081  0  1.803886  0
Cl  Cl156  1  0.08338525  0.14958112  0.80046114  1  -0.13908  0  0.026921  -0.043328  0  1.723837  0
Cl  Cl157  1  0.31111363  0.80250296  0.16978111  1  -0.111274  0  0.07677  0.027434  0  1.778245  0
Cl  Cl158  1  0.30505996  0.92098760  0.12609831  1  -0.104568  0  0.091909  0.061017  0  1.792832  0
Cl  Cl159  1  0.33649695  0.80099660  0.65134605  1  -0.144697  0  0.019541  -0.038121  0  1.476454  0
O  O160  1  0.51978266  0.44895847  0.54383286  1  -1.254949  0  -0.231324  -0.587487  0  2.354929  0
O  O161  1  0.20354211  0.45780919  0.46556892  1  -1.269608  0  -0.233016  -0.59969  0  2.345689  0
O  O162  1  0.02936424  0.54752932  0.45148789  1  -1.239727  0  -0.218293  -0.576966  0  2.3911  0
O  O163  1  0.18830846  0.45361958  0.55137306  1  -1.256228  0  -0.233664  -0.600075  0  2.360782  0
O  O164  1  0.01255808  0.54197221  0.53827713  1  -1.234649  0  -0.222336  -0.577815  0  2.347309  0
O  O165  1  0.53188258  0.46712635  0.45598080  1  -1.25149  0  -0.228271  -0.596763  0  2.349189  0
O  O166  1  0.35496333  0.53110976  0.49787602  1  -1.429621  0  -0.451113  -0.988119  0  2.143963  0
O  O167  1  0.68043027  0.53686596  0.54179404  1  -1.248607  0  -0.224936  -0.5781  0  2.39732  0
O  O168  1  0.69672177  0.55443854  0.45459533  1  -1.257748  0  -0.230199  -0.580198  0  2.334077  0
O  O169  1  0.85841545  0.47183706  0.50244503  1  -1.4237  0  -0.448039  -0.98076  0  2.138457  0
O  O170  1  0.89643569  0.60568514  0.73226260  1  -1.063571  0  -0.237531  -0.380362  0  2.096451  0
O  O171  1  0.24413262  0.69836359  0.65291300  1  -1.054557  0  -0.235147  -0.387672  0  2.269375  0
O  O172  1  0.98878062  0.89006702  0.76677738  1  -1.068709  0  -0.245596  -0.3878  0  2.146898  0
O  O173  1  0.57413694  0.80734545  0.83134171  1  -1.057565  0  -0.239087  -0.394586  0  2.267067  0
O  O174  1  0.72218422  0.20813444  0.14814563  1  -1.098661  0  -0.252905  -0.424198  0  2.116825  0
O  O175  1  0.16096853  0.13221281  0.20483550  1  -1.080728  0  -0.252116  -0.411159  0  2.104573  0
O  O176  1  0.26737034  0.25675974  0.37600407  1  -1.054011  0  -0.22577  -0.372438  0  2.167763  0
O  O177  1  0.72338344  0.34126841  0.31276126  1  -1.056957  0  -0.233415  -0.391078  0  2.296805  0
O  O178  1  0.27664068  0.03850807  0.03581831  1  -1.261699  0  -0.234569  -0.610011  0  2.411539  0
O  O179  1  0.60686328  0.05233202  0.95410863  1  -1.258395  0  -0.234908  -0.592911  0  2.406272  0
O  O180  1  0.78042199  0.96151200  0.96115412  1  -1.258536  0  -0.232712  -0.603823  0  2.385656  0
O  O181  1  0.60798919  0.04020275  0.03910214  1  -1.252066  0  -0.231033  -0.585562  0  2.34788  0
O  O182  1  0.78165002  0.95491700  0.04940789  1  -1.25877  0  -0.230295  -0.588025  0  2.411509  0
O  O183  1  0.28054334  0.04308452  0.94725629  1  -1.258943  0  -0.234602  -0.590898  0  2.386803  0
O  O184  1  0.45181230  0.96900976  0.00219654  1  -1.418946  0  -0.449126  -0.970376  0  2.142082  0
O  O185  1  0.11163475  0.94745279  0.04591491  1  -1.248428  0  -0.233736  -0.590612  0  2.390015  0
O  O186  1  0.11291056  0.95758887  0.96029272  1  -1.254139  0  -0.227976  -0.576189  0  2.324664  0
O  O187  1  0.94971340  0.02975035  0.99640595  1  -1.418141  0  -0.450573  -0.970079  0  2.146786  0
O  O188  1  0.24151748  0.53589321  0.36612063  1  -1.059595  0  -0.235644  -0.327638  0  2.177114  0
O  O189  1  0.65562669  0.60046335  0.83413919  1  -1.043604  0  -0.244122  -0.319773  0  2.106088  0
O  O190  1  0.25350410  0.64112888  0.52838953  1  -1.089849  0  -0.253485  -0.343634  0  2.114397  0
O  O191  1  0.54953473  0.64559467  0.70101203  1  -1.062397  0  -0.227616  -0.327325  0  2.252283  0
O  O192  1  0.85380413  0.14509774  0.30108287  1  -1.049903  0  -0.233528  -0.31464  0  2.120294  0
O  O193  1  0.83378971  0.23382337  0.33765746  1  -1.075357  0  -0.257209  -0.349694  0  2.187471  0
O  O194  1  0.04740901  0.28648038  0.18233680  1  -1.085203  0  -0.263406  -0.361067  0  2.133015  0
O  O195  1  0.80763433  0.46892079  0.36252304  1  -1.071556  0  -0.258692  -0.342682  0  2.125565  0
O  O196  1  0.89896756  0.33499940  0.59907285  1  -1.081034  0  -0.262008  -0.350918  0  2.134993  0
O  O197  1  0.05268856  0.17315257  0.91263128  1  -1.062429  0  -0.270356  -0.349909  0  2.175953  0
O  O198  1  0.54537709  0.83303178  0.08516951  1  -1.064394  0  -0.267418  -0.348915  0  2.153892  0
O  O199  1  0.55070473  0.89288695  0.20042345  1  -1.063363  0  -0.26759  -0.346672  0  2.172896  0
