# generated using pymatgen
data_CuH14(C3N4)2
_symmetry_space_group_name_H-M   'P 1'
_cell_length_a   6.82190391
_cell_length_b   11.92108845
_cell_length_c   13.29500000
_cell_angle_alpha   94.05712846
_cell_angle_beta   90.00000000
_cell_angle_gamma   90.00000000
_symmetry_Int_Tables_number   1
_chemical_formula_structural   CuH14(C3N4)2
_chemical_formula_sum   'Cu4 H56 C24 N32'
_cell_volume   1078.49998289
_cell_formula_units_Z   4
loop_
 _symmetry_equiv_pos_site_id
 _symmetry_equiv_pos_as_xyz
  1  'x, y, z'
loop_
 _atom_site_type_symbol
 _atom_site_label
 _atom_site_symmetry_multiplicity
 _atom_site_fract_x
 _atom_site_fract_y
 _atom_site_fract_z
 _atom_site_occupancy
 _atom_site_hle17_ddec_charge
 _atom_site_hle17_ddec_spin_density
 _atom_site_hle17_ddec_sum_bond_order
 _atom_site_hle17_magmom
 _atom_site_hse06_10hf_ddec_charge
 _atom_site_hse06_10hf_ddec_spin_density
 _atom_site_hse06_10hf_ddec_sum_bond_order
 _atom_site_hse06_10hf_magmom
 _atom_site_hse06_ddec_charge
 _atom_site_hse06_ddec_spin_density
 _atom_site_hse06_ddec_sum_bond_order
 _atom_site_hse06_magmom
 _atom_site_pbe_bader_charge
 _atom_site_pbe_bader_spin_density
 _atom_site_pbe_cm5_charge
 _atom_site_pbe_ddec_charge
 _atom_site_pbe_ddec_spin_density
 _atom_site_pbe_ddec_sum_bond_order
 _atom_site_pbe_magmom
Cu  Cu0  1  0.84990057  0.02539354  0.09950265  1  0.759468  -0.630861  1.941402  -0.412  0.756782  -0.74759  2.342268  -0.544  0.836553  -0.84293  2.275157  -0.633  0.975959  -0.490171  0.751994  0.71475  -0.683317  2.383676  -0.489
Cu  Cu1  1  0.34990232  0.97459686  0.40050051  1  0.759604  -0.63091  1.941471  -0.412  0.756931  -0.747604  2.342366  -0.544  0.836683  -0.84294  2.275258  -0.633  0.976099  -0.490171  0.752073  0.714882  -0.683316  2.383788  -0.489
Cu  Cu2  1  0.15009593  0.97459433  0.90049508  1  0.759591  0.630859  1.941364  0.412  0.756926  0.747575  2.3423  0.544  0.83662  0.842909  2.27522  0.633  0.97593  0.490147  0.752076  0.71488  0.683294  2.383695  0.489
Cu  Cu3  1  0.65009857  0.02541204  0.59949931  1  0.759653  0.630912  1.941465  0.412  0.756933  0.747601  2.342434  0.544  0.836639  0.84293  2.275347  0.633  0.975884  0.490157  0.752075  0.714882  0.683315  2.383865  0.489
H  H4  1  0.69608574  0.24494471  0.21852755  1  0.046602  0.000199  0.892087  0.0  0.06413  0.000168  0.944492  0.0  0.063457  0.000133  0.945687  0.0  0.015069  5e-05  0.110717  0.064427  0.000186  0.943827  0.0
H  H5  1  0.19607723  0.75505325  0.28147157  1  0.046552  0.000199  0.892123  0.0  0.06411  0.000168  0.944495  0.0  0.063436  0.000133  0.945691  0.0  0.015126  5e-05  0.110702  0.06441  0.000185  0.943829  0.0
H  H6  1  0.30390929  0.75504316  0.78146943  1  0.046586  -0.000198  0.892124  0.0  0.06409  -0.000168  0.944549  0.0  0.063417  -0.000133  0.945745  0.0  0.01509  -5e-05  0.110699  0.064392  -0.000185  0.943884  0.0
H  H7  1  0.80391047  0.24495816  0.71853442  1  0.046372  -0.000199  0.892115  0.0  0.063991  -0.000169  0.944457  0.0  0.063317  -0.000133  0.94565  0.0  0.015101  -4.9e-05  0.110649  0.064292  -0.000185  0.94379  0.0
H  H8  1  0.84098956  0.25459469  0.00245753  1  0.048949  6.6e-05  0.908495  0.0  0.065158  2.8e-05  0.962138  0.0  0.065294  -3.5e-05  0.962528  0.0  0.032842  -0.000131  0.107654  0.064959  8.7e-05  0.961912  0.0
H  H9  1  0.34098692  0.74540075  0.49754444  1  0.048992  6.7e-05  0.908481  0.0  0.065152  2.8e-05  0.962128  0.0  0.065289  -3.4e-05  0.962517  0.0  0.032847  -0.000131  0.107639  0.064952  8.7e-05  0.961902  0.0
H  H10  1  0.15901133  0.74540495  0.99754546  1  0.048982  -6.6e-05  0.908499  0.0  0.065198  -2.8e-05  0.962119  0.0  0.065336  3.5e-05  0.962504  0.0  0.032816  0.000131  0.107653  0.064998  -8.7e-05  0.961894  0.0
H  H11  1  0.65901251  0.25460142  0.50245344  1  0.049016  -6.6e-05  0.908431  0.0  0.065147  -2.8e-05  0.962063  0.0  0.065285  3.5e-05  0.962451  0.0  0.032852  0.000131  0.107636  0.064948  -8.7e-05  0.961836  0.0
H  H12  1  0.08030749  0.39535996  0.07555836  1  0.072627  9.2e-05  0.947837  0.0  0.090958  -9.8e-05  1.008503  0.0  0.091732  -7.3e-05  1.008867  0.0  0.03304  -0.000219  0.090358  0.090345  -0.000119  1.008259  0.0
H  H13  1  0.58031160  0.60464557  0.42443447  1  0.072595  9.1e-05  0.947876  0.0  0.09093  -9.9e-05  1.008538  0.0  0.091695  -7.3e-05  1.008914  0.0  0.033013  -0.00022  0.0903  0.090323  -0.000119  1.008277  0.0
H  H14  1  0.91969487  0.60464137  0.92444999  1  0.072722  -9.1e-05  0.947929  0.0  0.091105  9.9e-05  1.008482  0.0  0.091891  7.3e-05  1.008831  0.0  0.032883  0.00022  0.090431  0.090489  0.000119  1.008231  0.0
H  H15  1  0.41968636  0.39535912  0.57555605  1  0.072587  -9.1e-05  0.947803  0.0  0.090923  9.9e-05  1.008472  0.0  0.091693  7.3e-05  1.008839  0.0  0.033134  0.00022  0.090336  0.09034  0.00012  1.008186  0.0
H  H16  1  0.97748958  0.38535510  0.19663633  1  0.072799  0.00025  0.958671  0.0  0.087151  9.6e-05  1.029464  0.0  0.087923  7.1e-05  1.02943  0.0  0.045221  9.8e-05  0.091173  0.08656  0.00011  1.029473  0.0
H  H17  1  0.47749280  0.61465296  0.30336192  1  0.072808  0.000249  0.958663  0.0  0.087138  9.6e-05  1.02949  0.0  0.087904  7.1e-05  1.02946  0.0  0.045158  9.8e-05  0.091168  0.086544  0.000109  1.0295  0.0
H  H18  1  0.02250105  0.61464623  0.80337052  1  0.072927  -0.00025  0.958661  0.0  0.087195  -9.6e-05  1.029514  0.0  0.087969  -7.1e-05  1.029482  0.0  0.045285  -9.8e-05  0.091162  0.086604  -0.00011  1.029517  0.0
H  H19  1  0.52249490  0.38535257  0.69663166  1  0.072882  -0.000249  0.958598  0.0  0.087222  -9.6e-05  1.029406  0.0  0.087971  -7.1e-05  1.029394  0.0  0.04517  -9.8e-05  0.091187  0.086627  -0.000109  1.029421  0.0
H  H20  1  0.76740160  0.47174997  0.01257601  1  0.053516  5.2e-05  0.941102  0.0  0.074839  1.3e-05  1.000223  0.0  0.075232  1.2e-05  1.000994  0.0  0.001016  1.3e-05  0.08493  0.07443  1.5e-05  0.999835  0.0
H  H21  1  0.26741362  0.52824883  0.48742015  1  0.053529  5.1e-05  0.941144  0.0  0.074865  1.3e-05  1.000222  0.0  0.075264  1.2e-05  1.000992  0.0  0.001136  1.4e-05  0.084941  0.074452  1.5e-05  0.999839  0.0
H  H22  1  0.23259782  0.52825219  0.98742112  1  0.053531  -5.1e-05  0.9411  0.0  0.074866  -1.3e-05  1.000214  0.0  0.075259  -1.2e-05  1.000983  0.0  0.001064  -1.4e-05  0.084964  0.074457  -1.5e-05  0.999827  0.0
H  H23  1  0.73258581  0.47175081  0.51258359  1  0.05353  -5.2e-05  0.941276  0.0  0.074868  -1.3e-05  1.000378  0.0  0.075262  -1.2e-05  1.001149  0.0  0.001153  -1.3e-05  0.084948  0.07446  -1.5e-05  0.999988  0.0
H  H24  1  0.84471580  0.55543529  0.12049197  1  0.067962  -0.000634  0.943131  -0.001  0.083343  -0.000498  1.007869  0.0  0.084082  -0.000325  1.008271  0.0  0.071156  -0.001187  0.086755  0.082739  -0.00063  1.00767  -0.001
H  H25  1  0.34472488  0.44456940  0.37950306  1  0.06807  -0.000633  0.943111  -0.001  0.083449  -0.000497  1.00784  0.0  0.084196  -0.000325  1.008236  0.0  0.070839  -0.001185  0.086789  0.082839  -0.000629  1.007649  -0.001
H  H26  1  0.15528510  0.44456352  0.87950870  1  0.067926  0.000634  0.943131  0.001  0.083311  0.000497  1.00788  0.0  0.08405  0.000325  1.008282  0.0  0.071118  0.001187  0.086745  0.082708  0.000629  1.007681  0.001
H  H27  1  0.65528188  0.55543192  0.62049176  1  0.068023  0.000632  0.943159  0.001  0.083459  0.000497  1.007865  0.0  0.084204  0.000325  1.00826  0.0  0.071123  0.001185  0.086789  0.082849  0.000629  1.007674  0.001
H  H28  1  0.48696963  0.51302835  0.12848390  1  0.061563  -0.000715  0.939316  -0.001  0.078458  -0.000516  1.003344  -0.001  0.07929  -0.000342  1.003229  -0.001  0.038059  -0.001112  0.086863  0.077828  -0.00066  1.003474  -0.001
H  H29  1  0.98698400  0.48696625  0.37150748  1  0.061533  -0.000715  0.939209  -0.001  0.078416  -0.000516  1.003308  -0.001  0.079263  -0.000342  1.003177  -0.001  0.038101  -0.001111  0.086904  0.077781  -0.00066  1.003437  -0.001
H  H30  1  0.51302980  0.48696877  0.87151366  1  0.061533  0.000716  0.93928  0.001  0.078443  0.000516  1.003314  0.001  0.07929  0.000342  1.003183  0.001  0.038064  0.001112  0.086888  0.077811  0.000661  1.003444  0.001
H  H31  1  0.01301250  0.51303255  0.62849320  1  0.061553  0.000715  0.93926  0.001  0.078443  0.000515  1.003335  0.001  0.079287  0.000342  1.003209  0.001  0.038139  0.001111  0.086932  0.077809  0.00066  1.003463  0.001
H  H32  1  0.61538686  0.45648576  0.22834778  1  0.061725  9.3e-05  0.932921  0.0  0.085215  6.1e-05  0.986584  0.0  0.085226  5.2e-05  0.988113  0.0  -0.005614  2.8e-05  0.090056  0.085113  6.5e-05  0.98563  0.0
H  H33  1  0.11539007  0.54351809  0.27165246  1  0.061735  9.3e-05  0.932923  0.0  0.085229  6.1e-05  0.986601  0.0  0.085239  5.2e-05  0.988134  0.0  -0.005647  2.8e-05  0.090053  0.085122  6.5e-05  0.985648  0.0
H  H34  1  0.38461257  0.54351893  0.77165402  1  0.061717  -9.3e-05  0.932917  0.0  0.085216  -6.1e-05  0.98658  0.0  0.085226  -5.2e-05  0.988112  0.0  -0.005547  -2.8e-05  0.090059  0.085114  -6.5e-05  0.985625  0.0
H  H35  1  0.88460642  0.45647904  0.72834510  1  0.061671  -9.3e-05  0.932918  0.0  0.085213  -6.1e-05  0.986556  0.0  0.085223  -5.2e-05  0.988088  0.0  -0.005558  -2.8e-05  0.090073  0.085108  -6.5e-05  0.985603  0.0
H  H36  1  0.38061955  0.31431021  0.15460163  1  0.079474  -0.000172  0.948631  0.0  0.095696  -0.000464  1.012911  0.0  0.096801  -0.000375  1.012513  0.0  0.069639  -0.000632  0.090554  0.094854  -0.000531  1.013219  0.0
H  H37  1  0.88061340  0.68568355  0.34539497  1  0.079504  -0.000172  0.948574  0.0  0.095743  -0.000464  1.012842  0.0  0.09685  -0.000375  1.012439  0.0  0.069591  -0.000632  0.09058  0.094893  -0.000531  1.013157  0.0
H  H38  1  0.61938574  0.68569028  0.84539389  1  0.079419  0.000172  0.948572  0.0  0.095727  0.000464  1.012779  0.0  0.096832  0.000375  1.012381  0.0  0.069588  0.000632  0.090593  0.094885  0.000531  1.013087  0.0
H  H39  1  0.11938309  0.31431441  0.65460566  1  0.079463  0.000173  0.94853  0.0  0.095692  0.000464  1.012839  0.0  0.0968  0.000375  1.012441  0.0  0.069611  0.000633  0.090581  0.094851  0.000532  1.01315  0.0
H  H40  1  0.48432814  0.32433610  0.03295636  1  0.070326  0.000343  0.935507  0.0  0.088681  0.00023  0.996996  0.0  0.089199  0.00018  0.997764  0.0  0.022744  0.000305  0.089144  0.088288  0.000264  0.99642  0.0
H  H41  1  0.98431759  0.67565598  0.46704389  1  0.070415  0.000343  0.935369  0.0  0.088744  0.00023  0.996911  0.0  0.089262  0.00018  0.99768  0.0  0.022752  0.000305  0.089161  0.08835  0.000264  0.996337  0.0
H  H42  1  0.51568448  0.67566439  0.96704442  1  0.070396  -0.000343  0.935365  0.0  0.088722  -0.00023  0.996931  0.0  0.089242  -0.00018  0.997699  0.0  0.022804  -0.000306  0.089166  0.088329  -0.000264  0.996355  0.0
H  H43  1  0.01568477  0.32433862  0.53295652  1  0.070315  -0.000343  0.935421  0.0  0.088653  -0.00023  0.996978  0.0  0.089174  -0.00018  0.997747  0.0  0.022841  -0.000305  0.089165  0.088262  -0.000264  0.996404  0.0
H  H44  1  0.53538573  0.12121723  0.03729284  1  0.290063  0.000566  0.92916  0.001  0.282253  -0.000413  0.98876  0.0  0.289241  -0.000269  0.985441  0.0  0.466735  -4.6e-05  0.284116  0.277597  -0.000499  0.991199  0.0
H  H45  1  0.03541240  0.87878915  0.46271133  1  0.290133  0.000567  0.929104  0.001  0.282421  -0.000411  0.988582  0.0  0.289409  -0.000268  0.985258  0.0  0.466781  -4.5e-05  0.284174  0.277765  -0.000497  0.991024  0.0
H  H46  1  0.46457998  0.87878999  0.96270311  1  0.290158  -0.000566  0.929126  -0.001  0.282422  0.000411  0.988609  0.0  0.289411  0.000269  0.985282  0.0  0.466907  4.5e-05  0.284221  0.277766  0.000498  0.99105  0.0
H  H47  1  0.96455478  0.12120798  0.53729450  1  0.290278  -0.000567  0.929073  -0.001  0.282504  0.00041  0.988594  0.0  0.28949  0.000268  0.985269  0.0  0.46705  4.4e-05  0.284241  0.277849  0.000496  0.991036  0.0
H  H48  1  0.51433882  0.09267262  0.15628077  1  0.285096  0.000759  0.947174  0.002  0.274901  -0.000627  1.011061  0.001  0.281031  -0.000372  1.008272  0.001  0.450263  4.2e-05  0.285135  0.27063  -0.000792  1.013419  0.0
H  H49  1  0.01433617  0.90732702  0.34372221  1  0.285077  0.000759  0.947168  0.002  0.274905  -0.000627  1.011032  0.001  0.281033  -0.000372  1.008245  0.001  0.450471  4.2e-05  0.285129  0.270642  -0.000792  1.013374  0.0
H  H50  1  0.48565328  0.90732618  0.84371464  1  0.285124  -0.00076  0.947152  -0.002  0.274929  0.000627  1.011026  -0.001  0.281058  0.000372  1.008235  -0.001  0.450313  -4.2e-05  0.285156  0.27066  0.000792  1.013382  0.0
H  H51  1  0.98565299  0.09267346  0.65628459  1  0.285085  -0.000759  0.947177  -0.002  0.274922  0.000627  1.011005  -0.001  0.281049  0.000372  1.008215  -0.001  0.450468  -4.2e-05  0.285174  0.270658  0.000792  1.013349  0.0
H  H52  1  0.05978536  0.18933222  0.17937709  1  0.284351  -1e-05  0.938989  0.001  0.272332  -0.00107  1.00885  0.0  0.278514  -0.000679  1.006212  0.0  0.465064  -0.000702  0.284117  0.268089  -0.001361  1.011028  0.0
H  H53  1  0.55977921  0.81066911  0.32062976  1  0.284325  -1.2e-05  0.939176  0.001  0.272381  -0.00107  1.008923  0.0  0.278561  -0.00068  1.006279  0.0  0.465115  -0.000703  0.284176  0.268139  -0.001361  1.011109  0.0
H  H54  1  0.94022433  0.81066154  0.82062477  1  0.28429  1.1e-05  0.939129  -0.001  0.272292  0.00107  1.008955  0.0  0.278467  0.00068  1.006316  0.0  0.464534  0.000703  0.284137  0.268052  0.001361  1.011142  0.0
H  H55  1  0.44022901  0.18933306  0.67937038  1  0.284337  1.2e-05  0.939237  -0.001  0.272367  0.00107  1.008983  0.0  0.278549  0.00068  1.006338  0.0  0.465087  0.000703  0.284191  0.268127  0.001361  1.011171  0.0
H  H56  1  0.11472604  0.16549866  0.05664509  1  0.288644  0.000314  0.929112  0.002  0.278374  -0.000803  0.992491  0.0  0.284855  -0.00057  0.98969  0.001  0.449159  -0.000139  0.286889  0.273869  -0.00095  0.994934  0.0
H  H57  1  0.61471109  0.83450771  0.44335456  1  0.288704  0.000314  0.929102  0.002  0.278386  -0.000802  0.992545  0.0  0.284862  -0.000569  0.989747  0.001  0.449271  -0.000139  0.286859  0.273882  -0.00095  0.994986  0.0
H  H58  1  0.88527779  0.83449678  0.94335086  1  0.288637  -0.000313  0.929215  -0.002  0.278389  0.000803  0.992579  0.0  0.28487  0.00057  0.989771  -0.001  0.449265  0.00014  0.286874  0.273884  0.00095  0.995021  0.0
H  H59  1  0.38528834  0.16549361  0.55664854  1  0.28872  -0.000313  0.929204  -0.002  0.278418  0.000803  0.992573  0.0  0.284897  0.00057  0.989777  -0.001  0.44928  0.000139  0.286889  0.273914  0.00095  0.995016  0.0
C  C60  1  0.66967229  0.24161452  0.13640729  1  0.157128  0.00033  3.578212  0.002  0.140975  -0.001289  3.821447  0.001  0.145223  -0.000581  3.838425  0.001  0.317732  -0.001817  -0.000508  0.138355  -0.001835  3.810133  0.0
C  C61  1  0.16965645  0.75838344  0.36359935  1  0.156959  0.000333  3.578336  0.002  0.140816  -0.00129  3.821522  0.001  0.145063  -0.000581  3.838504  0.001  0.317665  -0.001817  -0.000608  0.138193  -0.001836  3.810209  0.0
C  C62  1  0.33033740  0.75838092  0.86359693  1  0.156913  -0.000334  3.578523  -0.002  0.140819  0.001289  3.821719  -0.001  0.145063  0.000584  3.838702  -0.001  0.317427  0.001817  -0.000546  0.138196  0.001836  3.810404  0.0
C  C63  1  0.83034884  0.24162713  0.63639831  1  0.157037  -0.000329  3.577971  -0.002  0.140815  0.001289  3.821241  -0.001  0.145069  0.000583  3.838221  -0.001  0.317643  0.001817  -0.000618  0.138205  0.001835  3.809907  0.0
C  C64  1  0.86499606  0.26363246  0.08467661  1  0.147027  0.000449  3.586477  0.002  0.13377  -0.001265  3.824138  0.001  0.138178  -0.000655  3.840295  0.001  0.340561  -0.001712  -0.003904  0.13115  -0.001727  3.813169  0.0
C  C65  1  0.36500514  0.73635626  0.41532117  1  0.14706  0.000445  3.586486  0.002  0.133959  -0.001265  3.823935  0.001  0.13837  -0.000655  3.840083  0.001  0.340491  -0.001713  -0.003814  0.131335  -0.001727  3.812967  0.0
C  C66  1  0.13499604  0.73635626  0.91532493  1  0.147097  -0.000446  3.586512  -0.002  0.133874  0.001266  3.824079  -0.001  0.138283  0.000656  3.840236  -0.001  0.340697  0.001713  -0.003847  0.131248  0.001727  3.813113  0.0
C  C67  1  0.63498109  0.26365432  0.58468025  1  0.147026  -0.000448  3.586164  -0.002  0.134026  0.001264  3.82346  -0.001  0.13844  0.000656  3.839605  -0.001  0.340704  0.001713  -0.003805  0.1314  0.001727  3.8125  0.0
C  C68  1  0.94238355  0.38126973  0.11560770  1  -0.171628  -0.004206  3.679548  -0.004  -0.216544  -0.003065  3.93657  -0.003  -0.218126  -0.002203  3.949933  -0.002  -0.067949  -0.004594  -0.168949  -0.215123  -0.003645  3.926995  -0.003
C  C69  1  0.44238090  0.61872824  0.38438766  1  -0.171672  -0.004198  3.679782  -0.004  -0.216613  -0.003061  3.936751  -0.003  -0.218187  -0.002201  3.950119  -0.002  -0.0675  -0.004589  -0.168933  -0.215184  -0.003642  3.927155  -0.003
C  C70  1  0.05761002  0.61872487  0.88439497  1  -0.171943  0.004202  3.679949  0.004  -0.216811  0.003064  3.936921  0.003  -0.218407  0.002202  3.950281  0.002  -0.067522  0.004591  -0.168999  -0.215376  0.003644  3.927332  0.003
C  C71  1  0.55761706  0.38128571  0.61561097  1  -0.171632  0.004197  3.67974  0.004  -0.216597  0.003061  3.936752  0.003  -0.218166  0.002201  3.950131  0.002  -0.067874  0.004589  -0.168933  -0.215183  0.00364  3.927151  0.003
C  C72  1  0.79063705  0.47131015  0.09471133  1  -0.102608  -0.001247  3.693707  -0.001  -0.143191  -0.00111  3.958884  -0.001  -0.14455  -0.000763  3.97448  -0.001  -0.052724  -0.001987  -0.167171  -0.142089  -0.001376  3.948016  -0.001
C  C73  1  0.29064467  0.52868360  0.40528226  1  -0.102738  -0.001246  3.693765  -0.001  -0.143295  -0.00111  3.958919  -0.001  -0.14467  -0.000763  3.974539  -0.001  -0.052811  -0.001986  -0.167195  -0.142195  -0.001375  3.948042  -0.001
C  C74  1  0.20936531  0.52868865  0.90528784  1  -0.102569  0.001245  3.693702  0.001  -0.143189  0.001111  3.958924  0.001  -0.144548  0.000762  3.974531  0.001  -0.05299  0.001987  -0.167212  -0.14209  0.001375  3.948055  0.001
C  C75  1  0.70936209  0.47131772  0.59471482  1  -0.102713  0.001248  3.694012  0.001  -0.143395  0.00111  3.959314  0.001  -0.144756  0.000762  3.97491  0.001  -0.05301  0.001985  -0.167234  -0.142299  0.001374  3.948449  0.001
C  C76  1  0.59513298  0.44867075  0.14584674  1  -0.099386  -0.001664  3.690143  -0.002  -0.138545  -0.001534  3.951536  -0.002  -0.139903  -0.001058  3.967206  -0.001  0.006465  -0.002633  -0.164672  -0.137503  -0.001894  3.940636  -0.002
C  C77  1  0.09514353  0.55132805  0.35415093  1  -0.099255  -0.001663  3.689917  -0.002  -0.138474  -0.001533  3.951463  -0.002  -0.139847  -0.001057  3.967148  -0.001  0.006389  -0.002633  -0.164682  -0.137413  -0.001893  3.940532  -0.002
C  C78  1  0.40486058  0.55132805  0.85415620  1  -0.09926  0.001661  3.690048  0.002  -0.138448  0.001533  3.951552  0.002  -0.139819  0.001056  3.967232  0.001  0.006355  0.002632  -0.164673  -0.137401  0.001893  3.940647  0.002
C  C79  1  0.90485883  0.44867495  0.64584550  1  -0.099136  0.001661  3.68995  0.002  -0.13836  0.001532  3.951544  0.002  -0.139728  0.001056  3.967227  0.001  0.006195  0.002631  -0.164673  -0.137299  0.001892  3.940622  0.002
C  C80  1  0.51737903  0.33082324  0.11447358  1  -0.167835  -0.004934  3.666216  -0.005  -0.211165  -0.003788  3.924039  -0.004  -0.212645  -0.002789  3.937235  -0.003  -0.079399  -0.005622  -0.167584  -0.209839  -0.004456  3.9146  -0.004
C  C81  1  0.01737198  0.66916463  0.38552490  1  -0.167883  -0.004934  3.666112  -0.005  -0.21123  -0.003787  3.92403  -0.004  -0.212709  -0.002789  3.937229  -0.003  -0.079222  -0.005622  -0.167633  -0.209904  -0.004456  3.914589  -0.004
C  C82  1  0.48262626  0.66916716  0.88552656  1  -0.167825  0.004935  3.666128  0.005  -0.211253  0.003787  3.924091  0.004  -0.212736  0.002789  3.937297  0.003  -0.079357  0.005622  -0.167675  -0.209929  0.004456  3.914652  0.004
C  C83  1  0.98262598  0.33084174  0.61447475  1  -0.167779  0.004929  3.666217  0.005  -0.211146  0.003786  3.924226  0.004  -0.212642  0.002788  3.937445  0.003  -0.079394  0.00562  -0.167667  -0.209839  0.004454  3.914801  0.004
N  N84  1  0.60929472  0.12526812  0.10536253  1  -0.621554  -0.092941  3.160122  -0.105  -0.603381  -0.072298  3.427212  -0.086  -0.635009  -0.062337  3.430724  -0.078  -1.114641  -0.108914  -0.639945  -0.585303  -0.076067  3.426597  -0.088
N  N85  1  0.10928181  0.87473069  0.39463965  1  -0.62151  -0.092955  3.159997  -0.105  -0.603471  -0.072304  3.427047  -0.086  -0.635099  -0.062341  3.430555  -0.078  -1.114869  -0.108926  -0.639957  -0.585391  -0.076075  3.426432  -0.088
N  N86  1  0.39070911  0.87472901  0.89463427  1  -0.621545  0.092942  3.160177  0.105  -0.603441  0.072298  3.427243  0.086  -0.635049  0.062337  3.430729  0.078  -1.114741  0.108916  -0.640009  -0.585362  0.076068  3.426622  0.088
N  N87  1  0.89071615  0.12527148  0.60536500  1  -0.621628  0.092951  3.16007  0.105  -0.603537  0.072301  3.427213  0.086  -0.635149  0.062339  3.4307  0.078  -1.115238  0.108919  -0.640036  -0.58546  0.076072  3.426602  0.088
N  N88  1  0.00165789  0.17276369  0.10811012  1  -0.62051  -0.093904  3.156306  -0.106  -0.599779  -0.071295  3.416663  -0.085  -0.631825  -0.060683  3.421509  -0.076  -1.123662  -0.10806  -0.637089  -0.581518  -0.075723  3.415318  -0.087
N  N89  1  0.50166201  0.82723932  0.39188631  1  -0.620592  -0.093893  3.156483  -0.106  -0.599932  -0.071288  3.416837  -0.085  -0.631965  -0.060676  3.421671  -0.076  -1.12384  -0.108048  -0.63717  -0.581677  -0.075714  3.415499  -0.087
N  N90  1  0.99833274  0.82723260  0.89188663  1  -0.620433  0.093905  3.156412  0.106  -0.599808  0.071296  3.416855  0.085  -0.631828  0.060686  3.421678  0.076  -1.123058  0.108063  -0.637121  -0.581554  0.075724  3.415512  0.087
N  N91  1  0.49832423  0.17276453  0.60811619  1  -0.620661  0.093902  3.156621  0.106  -0.599981  0.071292  3.416884  0.085  -0.632017  0.060681  3.421707  0.076  -1.123616  0.108056  -0.637207  -0.58173  0.07572  3.415557  0.087
N  N92  1  0.09643349  0.93187372  0.09936218  1  -0.502609  -0.04811  2.712023  -0.055  -0.535843  -0.026853  3.043738  -0.032  -0.565877  -0.015012  3.048597  -0.02  -0.211367  -0.043801  -0.3027  -0.518602  -0.034852  3.041551  -0.04
N  N93  1  0.59644200  0.06810322  0.40065140  1  -0.502727  -0.048121  2.711844  -0.055  -0.535936  -0.026852  3.043548  -0.032  -0.565974  -0.015012  3.048398  -0.02  -0.210734  -0.043794  -0.302744  -0.518686  -0.034852  3.041364  -0.04
N  N94  1  0.90356887  0.06810827  0.90065698  1  -0.502819  0.048138  2.712287  0.055  -0.536083  0.026856  3.044092  0.032  -0.566113  0.015021  3.048939  0.02  -0.210878  0.043802  -0.302879  -0.518838  0.034858  3.041906  0.04
N  N95  1  0.40356476  0.93191240  0.59932854  1  -0.502784  0.04814  2.712156  0.055  -0.535994  0.026856  3.043916  0.032  -0.566028  0.015015  3.048766  0.02  -0.210965  0.043798  -0.302862  -0.518744  0.034855  3.041732  0.04
N  N96  1  0.21816490  0.95985320  0.16086040  1  0.396321  0.017533  4.177483  0.026  0.452037  -0.000998  4.466943  0.003  0.472253  0.001546  4.497427  0.005  -0.350541  -0.007955  0.078844  0.439598  -0.003445  4.446366  0.001
N  N97  1  0.71817048  0.04013972  0.33913765  1  0.39633  0.017523  4.177604  0.026  0.452012  -0.001004  4.467103  0.003  0.472232  0.00154  4.497579  0.005  -0.351961  -0.007971  0.078773  0.43957  -0.003452  4.446533  0.001
N  N98  1  0.78183306  0.04013720  0.83915178  1  0.396343  -0.017526  4.177619  -0.026  0.452046  0.000999  4.467081  -0.003  0.472256  -0.001543  4.49756  -0.005  -0.351302  0.007968  0.078942  0.439607  0.003449  4.446506  -0.001
N  N99  1  0.28182602  0.95986581  0.66084691  1  0.396189  -0.017508  4.17792  -0.026  0.45187  0.001008  4.467398  -0.003  0.472086  -0.001535  4.497876  -0.005  -0.351077  0.007982  0.078914  0.439428  0.003458  4.446823  -0.001
N  N100  1  0.34091656  0.98624159  0.22014936  1  -0.423458  -0.10143  2.548011  -0.107  -0.441982  -0.052984  2.817498  -0.058  -0.457326  -0.046881  2.824595  -0.054  -0.116819  -0.084253  -0.22064  -0.432753  -0.057679  2.812863  -0.061
N  N101  1  0.84090308  0.01376142  0.27983880  1  -0.423323  -0.101393  2.548488  -0.107  -0.441866  -0.052977  2.81808  -0.058  -0.457199  -0.046875  2.825155  -0.054  -0.116068  -0.084242  -0.220537  -0.432649  -0.057673  2.813454  -0.061
N  N102  1  0.65909166  0.01375469  0.77985793  1  -0.423356  0.101405  2.54811  0.107  -0.441853  0.05299  2.81757  0.058  -0.457187  0.046879  2.824682  0.054  -0.11654  0.084257  -0.220597  -0.432627  0.057681  2.812933  0.061
N  N103  1  0.15910514  0.98623654  0.72014979  1  -0.423192  0.10136  2.548683  0.107  -0.441703  0.052973  2.818194  0.058  -0.45703  0.046872  2.825296  0.054  -0.116758  0.084234  -0.220573  -0.432479  0.057667  2.813545  0.061
N  N104  1  0.69132607  0.88608445  0.06128170  1  -0.526581  -0.05112  2.724314  -0.059  -0.536884  -0.029939  3.034766  -0.037  -0.570022  -0.020002  3.044848  -0.027  -0.26429  -0.045201  -0.311003  -0.517444  -0.03561  3.029539  -0.041
N  N105  1  0.19129997  0.11388829  0.43872334  1  -0.52634  -0.051136  2.723273  -0.059  -0.536688  -0.029942  3.033794  -0.037  -0.569812  -0.020006  3.043847  -0.027  -0.264651  -0.045211  -0.310909  -0.517238  -0.035614  3.02856  -0.041
N  N106  1  0.30869388  0.11389417  0.93871845  1  -0.526243  0.051115  2.723582  0.059  -0.53657  0.029936  3.034111  0.037  -0.569661  0.019999  3.044118  0.027  -0.264832  0.045206  -0.310849  -0.517126  0.035609  3.028875  0.041
N  N107  1  0.80872291  0.88613154  0.56127792  1  -0.526524  0.051126  2.723002  0.059  -0.53689  0.029937  3.033579  0.037  -0.57  0.020001  3.043618  0.027  -0.264853  0.045207  -0.311027  -0.517441  0.035611  3.028352  0.041
N  N108  1  0.68026171  0.81792572  0.12374901  1  0.380645  0.016791  4.221027  0.026  0.420308  -9.3e-05  4.530051  0.005  0.437267  0.002981  4.562451  0.008  -0.334878  -0.007166  0.079157  0.409343  -0.003123  4.508873  0.002
N  N109  1  0.18024587  0.18206047  0.37625463  1  0.380136  0.016776  4.220187  0.026  0.419812  -0.000102  4.529216  0.005  0.436766  0.002972  4.561617  0.008  -0.335352  -0.007179  0.078886  0.408847  -0.003132  4.508042  0.002
N  N110  1  0.31975531  0.18206299  0.87625403  1  0.380151  -0.016791  4.220142  -0.026  0.41982  9.4e-05  4.529186  -0.005  0.436775  -0.002982  4.561583  -0.008  -0.334747  0.007167  0.078907  0.408855  0.003126  4.50801  -0.002
N  N111  1  0.81976968  0.81794843  0.62374067  1  0.380264  -0.016782  4.219785  -0.026  0.419925  0.000101  4.528822  -0.005  0.436873  -0.002975  4.561216  -0.008  -0.335403  0.007182  0.078963  0.408962  0.003133  4.507651  -0.002
N  N112  1  0.66640341  0.75027157  0.18298921  1  -0.388213  -0.092512  2.419445  -0.096  -0.398134  -0.051127  2.66212  -0.055  -0.406168  -0.045647  2.67194  -0.051  -0.078898  -0.080019  -0.194316  -0.39283  -0.054561  2.655796  -0.056
N  N113  1  0.16640809  0.24971378  0.31702039  1  -0.387997  -0.092465  2.419642  -0.096  -0.397859  -0.051111  2.662269  -0.055  -0.405877  -0.04563  2.672076  -0.051  -0.078145  -0.079995  -0.194163  -0.392562  -0.054545  2.655949  -0.056
N  N114  1  0.33360335  0.24972134  0.81701485  1  -0.388024  0.092509  2.419227  0.096  -0.397914  0.051131  2.661861  0.055  -0.405942  0.045655  2.671677  0.051  -0.078479  0.080023  -0.19422  -0.392613  0.054564  2.655539  0.056
N  N115  1  0.83359427  0.75028839  0.68297373  1  -0.387911  0.09248  2.419515  0.096  -0.397753  0.05112  2.662112  0.055  -0.405751  0.045644  2.6719  0.051  -0.077822  0.080006  -0.194088  -0.392459  0.054554  2.655792  0.056
