# generated using pymatgen
data_CoH8(C3N)4
_symmetry_space_group_name_H-M   'P 1'
_cell_length_a   5.33435926
_cell_length_b   13.40977660
_cell_length_c   13.71122305
_cell_angle_alpha   92.08397162
_cell_angle_beta   73.79671171
_cell_angle_gamma   75.41367922
_symmetry_Int_Tables_number   1
_chemical_formula_structural   CoH8(C3N)4
_chemical_formula_sum   'Co2 H16 C24 N8'
_cell_volume   905.46252302
_cell_formula_units_Z   2
loop_
 _symmetry_equiv_pos_site_id
 _symmetry_equiv_pos_as_xyz
  1  'x, y, z'
loop_
 _atom_site_type_symbol
 _atom_site_label
 _atom_site_symmetry_multiplicity
 _atom_site_fract_x
 _atom_site_fract_y
 _atom_site_fract_z
 _atom_site_occupancy
 _atom_site_pbe_cm5_charge
 _atom_site_pbe_ddec_charge
 _atom_site_pbe_ddec_spin_density
 _atom_site_pbe_ddec_sum_bond_order
 _atom_site_pbe_magmom
Co  Co0  1  0.19563461  0.52540510  0.48260227  1  0.672497  0.38979  -1.829755  3.261768  -1.619
Co  Co1  1  0.80445687  0.47457359  0.51739135  1  0.672776  0.389683  -1.826803  3.262528  -1.614
H  H2  1  0.28929887  0.58384549  0.71408449  1  0.12012  0.108762  0.000215  1.028541  0.0
H  H3  1  0.22112361  0.28722020  0.41423538  1  0.115816  0.102103  -0.001129  1.034426  -0.001
H  H4  1  0.71063677  0.41618289  0.28593611  1  0.120206  0.108943  0.000214  1.028141  0.0
H  H5  1  0.77892549  0.71278359  0.58576307  1  0.115828  0.102126  -0.001129  1.034218  -0.001
H  H6  1  0.65887360  0.42147694  0.77687260  1  0.122159  0.113641  3.6e-05  0.999305  0.0
H  H7  1  0.84005046  0.23301057  0.57039970  1  0.119948  0.111404  -0.00048  1.007149  -0.001
H  H8  1  0.34108228  0.57854613  0.22313665  1  0.122298  0.113868  3.6e-05  0.999441  0.0
H  H9  1  0.16006745  0.76691570  0.42957456  1  0.11987  0.111272  -0.000479  1.007565  -0.001
H  H10  1  0.24916308  0.60999377  0.06126452  1  0.101856  0.104528  0.000201  0.999082  0.0
H  H11  1  0.25354355  0.93251266  0.39534039  1  0.100238  0.102543  3.6e-05  0.999309  0.0
H  H12  1  0.75074028  0.39004522  0.93875188  1  0.101846  0.104473  0.000198  0.998955  0.0
H  H13  1  0.74639806  0.06747054  0.60465320  1  0.100216  0.102617  3.3e-05  0.999434  0.0
H  H14  1  0.21759417  0.61391166  0.88691119  1  0.100773  0.102748  0.000167  1.005024  0.0
H  H15  1  0.28521400  0.11077352  0.38854910  1  0.098728  0.10132  5.2e-05  1.005522  0.0
H  H16  1  0.78242356  0.38609168  0.11309897  1  0.100626  0.102618  0.000167  1.00474  0.0
H  H17  1  0.71463308  0.88921817  0.61147210  1  0.098778  0.101182  5e-05  1.005461  0.0
C  C18  1  0.13240418  0.54583691  0.71421115  1  0.017545  -0.042393  -0.002  3.928427  -0.001
C  C19  1  0.37495804  0.29000509  0.45121811  1  0.00579  -0.068668  -0.012148  3.971938  -0.014
C  C20  1  0.86758274  0.45419119  0.28582089  1  0.017347  -0.042685  -0.00203  3.927882  -0.001
C  C21  1  0.62509045  0.70997779  0.54877922  1  0.005782  -0.068878  -0.01215  3.97163  -0.014
C  C22  1  0.81420565  0.46030112  0.74531397  1  0.017678  -0.043246  -0.001629  3.92411  -0.001
C  C23  1  0.68599744  0.26303147  0.53315874  1  0.009903  -0.059682  -0.010674  3.938017  -0.013
C  C24  1  0.18578596  0.53972765  0.25468011  1  0.017592  -0.043403  -0.001594  3.925239  -0.001
C  C25  1  0.31411999  0.73692949  0.46681304  1  0.010087  -0.059191  -0.010656  3.938362  -0.013
C  C26  1  0.97344599  0.50311214  0.79306667  1  -0.03003  -0.038673  -0.016497  4.069332  -0.019
C  C27  1  0.52905319  0.21164949  0.49312227  1  -0.036302  -0.039031  -0.009341  4.088302  -0.011
C  C28  1  0.02653770  0.49694437  0.20694464  1  -0.029912  -0.03852  -0.016502  4.069098  -0.019
C  C29  1  0.47098514  0.78832556  0.50684197  1  -0.036355  -0.039082  -0.009326  4.088028  -0.011
C  C30  1  0.98324524  0.50191411  0.89806326  1  -0.013894  0.074819  -0.005891  4.061608  -0.006
C  C31  1  0.51762213  0.10427587  0.49617562  1  -0.015258  0.074929  -0.003176  4.063171  -0.003
C  C32  1  0.01667002  0.49813414  0.10195141  1  -0.013783  0.074923  -0.00589  4.061127  -0.006
C  C33  1  0.48235305  0.89569706  0.50379954  1  -0.015376  0.07467  -0.003182  4.063399  -0.004
C  C34  1  0.14003632  0.56111266  0.03504923  1  -0.093831  -0.129569  -0.003623  4.002564  -0.004
C  C35  1  0.36144298  0.96136947  0.44195756  1  -0.095991  -0.131001  -0.001855  4.007272  -0.002
C  C36  1  0.85989417  0.43892711  0.96495651  1  -0.093821  -0.129498  -0.003624  4.002509  -0.004
C  C37  1  0.63851263  0.03861530  0.55803084  1  -0.095888  -0.131202  -0.001862  4.007081  -0.002
C  C38  1  0.12276666  0.56312625  0.93595529  1  -0.095922  -0.137425  -0.003733  4.004888  -0.004
C  C39  1  0.37921624  0.06278452  0.43822216  1  -0.09817  -0.139052  -0.001551  4.009334  -0.002
C  C40  1  0.87717078  0.43690986  0.06405194  1  -0.095697  -0.137263  -0.003736  4.004382  -0.004
C  C41  1  0.62071643  0.93719325  0.56177005  1  -0.098271  -0.13867  -0.001549  4.008917  -0.002
N  N42  1  0.07200316  0.52847512  0.62762182  1  -0.290497  -0.132545  -0.010192  3.692117  -0.017
N  N43  1  0.43572631  0.38009975  0.46544894  1  -0.272469  -0.153992  -0.053329  3.600886  -0.076
N  N44  1  0.92802930  0.47152566  0.37239574  1  -0.290459  -0.132417  -0.010146  3.692738  -0.017
N  N45  1  0.56437576  0.61987467  0.53456469  1  -0.272557  -0.153826  -0.053265  3.601276  -0.076
N  N46  1  0.87643607  0.47708537  0.64644711  1  -0.287803  -0.141706  -0.008996  3.665738  -0.015
N  N47  1  0.62632741  0.36351744  0.51610504  1  -0.273055  -0.129533  -0.026218  3.615672  -0.032
N  N48  1  0.12359272  0.52291286  0.35354121  1  -0.287998  -0.142037  -0.009039  3.665759  -0.015
N  N49  1  0.37382275  0.63644921  0.48388928  1  -0.272964  -0.129774  -0.026226  3.615446  -0.032
