# generated using pymatgen
data_K2P2H10C15Cl2O9
_symmetry_space_group_name_H-M   'P 1'
_cell_length_a   6.88285261
_cell_length_b   10.43302008
_cell_length_c   15.57055450
_cell_angle_alpha   73.16487297
_cell_angle_beta   83.21927945
_cell_angle_gamma   70.11198981
_symmetry_Int_Tables_number   1
_chemical_formula_structural   K2P2H10C15Cl2O9
_chemical_formula_sum   'K4 P4 H20 C30 Cl4 O18'
_cell_volume   1006.12148265
_cell_formula_units_Z   2
loop_
 _symmetry_equiv_pos_site_id
 _symmetry_equiv_pos_as_xyz
  1  'x, y, z'
loop_
 _atom_site_type_symbol
 _atom_site_label
 _atom_site_symmetry_multiplicity
 _atom_site_fract_x
 _atom_site_fract_y
 _atom_site_fract_z
 _atom_site_occupancy
 _atom_site_hle17_bader_spin_density
 _atom_site_hle17_ddec_charge
 _atom_site_hle17_ddec_spin_density
 _atom_site_hle17_ddec_sum_bond_order
 _atom_site_hle17_magmom
 _atom_site_hse06_10hf_bader_spin_density
 _atom_site_hse06_10hf_ddec_charge
 _atom_site_hse06_10hf_ddec_spin_density
 _atom_site_hse06_10hf_ddec_sum_bond_order
 _atom_site_hse06_10hf_magmom
 _atom_site_hse06_bader_spin_density
 _atom_site_hse06_ddec_charge
 _atom_site_hse06_ddec_spin_density
 _atom_site_hse06_ddec_sum_bond_order
 _atom_site_hse06_magmom
 _atom_site_pbe_bader_spin_density
 _atom_site_pbe_cm5_charge
 _atom_site_pbe_ddec_charge
 _atom_site_pbe_ddec_spin_density
 _atom_site_pbe_ddec_sum_bond_order
 _atom_site_pbe_magmom
K  K0  1  0.67972587  0.63491325  0.48902858  1  0  0.957937  0  0.398797  0  0  0.928533  0  0.543082  0  0  0.939443  0  0.524237  0  0  0.802285  0.919791  0  0.55709  0
K  K1  1  0.32022458  0.36507253  0.51097453  1  0  0.957934  0  0.398809  0  0  0.928547  0  0.543081  0  0  0.939449  0  0.524247  0  0  0.802323  0.9198  0  0.557115  0
K  K2  1  0.26455766  0.96039809  0.55801179  1  0  0.949875  0  0.520292  0  0  0.906154  0  0.7129  0  0  0.920063  0  0.689858  0  0  0.880091  0.895631  0  0.729256  0
K  K3  1  0.73543328  0.03957591  0.44199424  1  0  0.949885  0  0.520306  0  0  0.906112  0  0.712948  0  0  0.920023  0  0.689901  0  0  0.880065  0.895591  0  0.729305  0
P  P4  1  0.92637421  0.73558945  0.65160654  1  0  1.322988  0  4.809337  0  0  1.164996  0  5.317913  0  0  1.21543  0  5.282215  0  0  0.326912  1.129991  0  5.342294  0
P  P5  1  0.07358591  0.26441319  0.34839671  1  0  1.322905  0  4.809294  0  0  1.164808  0  5.31805  0  0  1.215272  0  5.282272  0  0  0.326936  1.129774  0  5.342526  0
P  P6  1  0.68564426  0.03851329  0.65881169  1  0  1.389304  0  4.888997  0  0  1.237228  0  5.395626  0  0  1.289329  0  5.358138  0  0  0.298323  1.201095  0  5.420492  0
P  P7  1  0.31431746  0.96149565  0.34118512  1  0  1.389622  0  4.888402  0  0  1.237515  0  5.395031  0  0  1.28962  0  5.357543  0  0  0.298566  1.2014  0  5.419855  0
H  H8  1  0.94434385  0.44052977  0.87324467  1  0  0.100656  0  0.945511  0  0  0.109748  0  1.008555  0  0  0.112778  0  1.006641  0  0  0.104763  0.107617  0  1.009909  0
H  H9  1  0.05570720  0.55948512  0.12675060  1  0  0.100607  0  0.945463  0  0  0.109688  0  1.008534  0  0  0.112725  0  1.006592  0  0  0.104718  0.10756  0  1.009887  0
H  H10  1  0.03299317  0.21648641  0.99602962  1  0  0.084384  0  0.964253  0  0  0.095841  0  1.023612  0  0  0.098309  0  1.022968  0  0  0.092603  0.094034  0  1.024246  0
H  H11  1  0.96708590  0.78351250  0.00396098  1  0  0.084348  0  0.964058  0  0  0.095776  0  1.023495  0  0  0.098242  0  1.022857  0  0  0.09259  0.093973  0  1.024122  0
H  H12  1  0.14675350  0.98536035  0.95872900  1  0  0.079303  0  0.982705  0  0  0.091422  0  1.045216  0  0  0.093289  0  1.044986  0  0  0.098616  0.090019  0  1.045445  0
H  H13  1  0.85330013  0.01463657  0.04126448  1  0  0.07921  0  0.982886  0  0  0.091388  0  1.045324  0  0  0.093246  0  1.04511  0  0  0.098635  0.090029  0  1.045498  0
H  H14  1  0.15364902  0.97716266  0.80053365  1  0  0.082615  0  0.991619  0  0  0.086481  0  1.065141  0  0  0.089704  0  1.063398  0  0  0.090417  0.084134  0  1.066592  0
H  H15  1  0.84634109  0.02285143  0.19945954  1  0  0.082664  0  0.991506  0  0  0.086513  0  1.06502  0  0  0.089731  0  1.063284  0  0  0.090431  0.084163  0  1.066469  0
H  H16  1  0.05856577  0.20052391  0.67844092  1  0  0.111271  0  0.939952  0  0  0.120463  0  1.001378  0  0  0.124615  0  0.99797  0  0  0.119683  0.117345  0  1.00405  0
H  H17  1  0.94138229  0.79949249  0.32155445  1  0  0.111348  0  0.939686  0  0  0.120478  0  1.001192  0  0  0.124654  0  0.997752  0  0  0.119677  0.117337  0  1.003891  0
H  H18  1  0.39361294  0.51855327  0.74805036  1  0  0.10972  0  0.958877  0  0  0.112787  0  1.030873  0  0  0.11693  0  1.026985  0  0  0.106448  0.109858  0  1.033576  0
H  H19  1  0.60641664  0.48144383  0.25196671  1  0  0.109757  0  0.958776  0  0  0.112717  0  1.030892  0  0  0.11686  0  1.027004  0  0  0.106423  0.1098  0  1.033579  0
H  H20  1  0.29577829  0.59418606  0.88910714  1  0  0.085521  0  0.960865  0  0  0.093318  0  1.025522  0  0  0.09629  0  1.024437  0  0  0.092068  0.09121  0  1.026366  0
H  H21  1  0.70430113  0.40582666  0.11090519  1  0  0.085671  0  0.960956  0  0  0.0934  0  1.02567  0  0  0.096372  0  1.024585  0  0  0.092078  0.091285  0  1.026524  0
H  H22  1  0.35549137  0.41257173  0.03732488  1  0  0.08329  0  0.960259  0  0  0.091337  0  1.026803  0  0  0.093999  0  1.025583  0  0  0.095169  0.089451  0  1.02759  0
H  H23  1  0.64455997  0.58741680  0.96268318  1  0  0.083392  0  0.960234  0  0  0.091422  0  1.026802  0  0  0.094075  0  1.025578  0  0  0.095206  0.089532  0  1.027594  0
H  H24  1  0.51263103  0.15869854  0.04380132  1  0  0.083428  0  0.974119  0  0  0.089445  0  1.043552  0  0  0.092288  0  1.042672  0  0  0.092302  0.087469  0  1.044181  0
H  H25  1  0.48738970  0.84129327  0.95620050  1  0  0.083205  0  0.974009  0  0  0.089199  0  1.043526  0  0  0.092037  0  1.042653  0  0  0.092204  0.087232  0  1.044127  0
H  H26  1  0.61276859  0.08333983  0.90183453  1  0  0.096931  0  0.952907  0  0  0.104063  0  1.020375  0  0  0.107208  0  1.018291  0  0  0.100486  0.101801  0  1.02187  0
H  H27  1  0.38721110  0.91666800  0.09816614  1  0  0.096922  0  0.952871  0  0  0.103992  0  1.020434  0  0  0.107132  0  1.018348  0  0  0.10046  0.101733  0  1.02192  0
C  C28  1  0.74562780  0.84711084  0.72563638  1  0  -0.283593  0  3.427465  0  0  -0.243557  0  3.701826  0  0  -0.250191  0  3.706776  0  0  0.027647  -0.239595  0  3.699185  0
C  C29  1  0.25432795  0.15290765  0.27436337  1  0  -0.283992  0  3.427933  0  0  -0.243701  0  3.701828  0  0  -0.250352  0  3.706821  0  0  0.027719  -0.239748  0  3.699184  0
C  C30  1  0.96417133  0.46215533  0.69347013  1  0  0.674116  0  3.757982  0  0  0.624692  0  4.048404  0  0  0.659642  0  4.037504  0  0  0.25545  0.600651  0  4.055532  0
C  C31  1  0.03581444  0.53784611  0.30652313  1  0  0.674102  0  3.758071  0  0  0.624671  0  4.048492  0  0  0.659623  0  4.037599  0  0  0.255329  0.600644  0  4.055602  0
C  C32  1  0.00095947  0.33342087  0.76856942  1  0  -0.099811  0  3.788918  0  0  -0.077919  0  4.026231  0  0  -0.089549  0  4.05256  0  0  -0.020744  -0.070161  0  4.008625  0
C  C33  1  0.99903567  0.66658896  0.23141857  1  0  -0.100063  0  3.789272  0  0  -0.078092  0  4.02651  0  0  -0.089729  0  4.05285  0  0  -0.020721  -0.070337  0  4.008898  0
C  C34  1  0.98913570  0.33864923  0.85823015  1  0  -0.042984  0  3.710871  0  0  -0.070489  0  3.959301  0  0  -0.069137  0  3.981391  0  0  -0.076321  -0.071217  0  3.944508  0
C  C35  1  0.01090760  0.66136041  0.14176393  1  0  -0.042789  0  3.711065  0  0  -0.070325  0  3.959528  0  0  -0.068964  0  3.98162  0  0  -0.076216  -0.071054  0  3.944735  0
C  C36  1  0.03948973  0.21328044  0.92638564  1  0  -0.07873  0  3.773478  0  0  -0.085716  0  4.019226  0  0  -0.090637  0  4.042862  0  0  -0.090558  -0.082572  0  4.003414  0
C  C37  1  0.96057553  0.78672910  0.07360870  1  0  -0.078574  0  3.773454  0  0  -0.085569  0  4.019309  0  0  -0.090492  0  4.042947  0  0  -0.090564  -0.082427  0  4.003507  0
C  C38  1  0.10252863  0.08337651  0.90535526  1  0  -0.046413  0  3.734675  0  0  -0.062589  0  3.979984  0  0  -0.062268  0  4.000984  0  0  -0.082361  -0.062404  0  3.96566  0
C  C39  1  0.89749040  0.91662899  0.09463435  1  0  -0.046554  0  3.73489  0  0  -0.062771  0  3.980279  0  0  -0.062447  0  4.001276  0  0  -0.082455  -0.062617  0  3.965925  0
C  C40  1  0.10858533  0.07825887  0.81648120  1  0  -0.065371  0  3.752247  0  0  -0.080444  0  4.011654  0  0  -0.084354  0  4.03252  0  0  -0.09013  -0.078005  0  3.997799  0
C  C41  1  0.89141557  0.92174778  0.18351098  1  0  -0.065571  0  3.751919  0  0  -0.080597  0  4.011319  0  0  -0.084508  0  4.032192  0  0  -0.090277  -0.078165  0  3.997484  0
C  C42  1  0.05710534  0.20307910  0.74792395  1  0  -0.037893  0  3.677586  0  0  -0.067067  0  3.930029  0  0  -0.065128  0  3.948786  0  0  -0.068072  -0.068259  0  3.917606  0
C  C43  1  0.94286864  0.79692874  0.25207121  1  0  -0.037695  0  3.677306  0  0  -0.066824  0  3.929677  0  0  -0.064905  0  3.948429  0  0  -0.067944  -0.068001  0  3.917261  0
C  C44  1  0.55808184  0.25636038  0.73103519  1  0  0.663484  0  3.76066  0  0  0.614091  0  4.052355  0  0  0.648165  0  4.043458  0  0  0.252635  0.590727  0  4.058235  0
C  C45  1  0.44189306  0.74364217  0.26896287  1  0  0.663472  0  3.76093  0  0  0.614062  0  4.052613  0  0  0.648111  0  4.04376  0  0  0.252618  0.590694  0  4.0585  0
C  C46  1  0.50969329  0.29668674  0.81666060  1  0  -0.089158  0  3.782973  0  0  -0.065163  0  4.014731  0  0  -0.076185  0  4.041388  0  0  -0.019927  -0.058013  0  3.997145  0
C  C47  1  0.49031071  0.70330621  0.18334628  1  0  -0.089276  0  3.783088  0  0  -0.065254  0  4.014795  0  0  -0.076266  0  4.041458  0  0  -0.019989  -0.058108  0  3.997219  0
C  C48  1  0.42180347  0.44081315  0.81314998  1  0  -0.048941  0  3.693164  0  0  -0.078929  0  3.94906  0  0  -0.077669  0  3.969344  0  0  -0.078438  -0.079755  0  3.935644  0
C  C49  1  0.57822235  0.55918289  0.18686170  1  0  -0.048935  0  3.692902  0  0  -0.078813  0  3.94873  0  0  -0.07756  0  3.969024  0  0  -0.078303  -0.079643  0  3.935324  0
C  C50  1  0.36663927  0.48229853  0.89231494  1  0  -0.079906  0  3.767063  0  0  -0.09064  0  4.020191  0  0  -0.095175  0  4.042256  0  0  -0.093869  -0.087737  0  4.005332  0
C  C51  1  0.63340381  0.51769848  0.10768995  1  0  -0.080199  0  3.767112  0  0  -0.090879  0  4.02016  0  0  -0.095414  0  4.042222  0  0  -0.094032  -0.087973  0  4.00531  0
C  C52  1  0.39962974  0.38057489  0.97518610  1  0  -0.048648  0  3.750231  0  0  -0.064357  0  3.995555  0  0  -0.064017  0  4.016962  0  0  -0.084217  -0.064057  0  3.980596  0
C  C53  1  0.60042992  0.61941149  0.02482134  1  0  -0.048558  0  3.750154  0  0  -0.064244  0  3.995437  0  0  -0.063889  0  4.016828  0  0  -0.084112  -0.063944  0  3.980475  0
C  C54  1  0.48923007  0.23719275  0.97888921  1  0  -0.094159  0  3.788111  0  0  -0.104232  0  4.039614  0  0  -0.109211  0  4.062474  0  0  -0.096928  -0.100999  0  4.023958  0
C  C55  1  0.51079678  0.76279801  0.02112151  1  0  -0.094114  0  3.787747  0  0  -0.104169  0  4.039247  0  0  -0.109147  0  4.062107  0  0  -0.09694  -0.100933  0  4.023587  0
C  C56  1  0.54422811  0.19481320  0.89995111  1  0  -0.050362  0  3.718714  0  0  -0.075427  0  3.965402  0  0  -0.073681  0  3.986355  0  0  -0.079649  -0.076211  0  3.951096  0
C  C57  1  0.45576806  0.80519351  0.10005413  1  0  -0.05021  0  3.718426  0  0  -0.075215  0  3.965094  0  0  -0.073461  0  3.986039  0  0  -0.079591  -0.075999  0  3.95079  0
Cl  Cl58  1  0.51480428  0.79963644  0.75181742  1  0  -0.054423  0  1.413811  0  0  -0.042785  0  1.660319  0  0  -0.043481  0  1.651844  0  0  0.011969  -0.042422  0  1.666213  0
Cl  Cl59  1  0.48518949  0.20034706  0.24819050  1  0  -0.054398  0  1.413955  0  0  -0.042798  0  1.660346  0  0  -0.043492  0  1.651882  0  0  0.01194  -0.042427  0  1.666242  0
Cl  Cl60  1  0.86831182  0.81588041  0.82885144  1  0  -0.052417  0  1.378672  0  0  -0.038783  0  1.623186  0  0  -0.040365  0  1.614954  0  0  0.005203  -0.037203  0  1.628974  0
Cl  Cl61  1  0.13167401  0.18411785  0.17113986  1  0  -0.05232  0  1.378668  0  0  -0.038735  0  1.623076  0  0  -0.04031  0  1.614841  0  0  0.005182  -0.037147  0  1.628863  0
O  O62  1  0.79284191  0.79320003  0.57025758  1  0  -0.882692  0  1.961008  0  0  -0.830952  0  2.220217  0  0  -0.85488  0  2.203568  0  0  -0.505671  -0.813555  0  2.231205  0
O  O63  1  0.20712854  0.20678989  0.42974506  1  0  -0.8827  0  1.960585  0  0  -0.831015  0  2.21992  0  0  -0.854948  0  2.203267  0  0  -0.505783  -0.813614  0  2.230906  0
O  O64  1  0.13419655  0.75626256  0.67946390  1  0  -0.405038  0  1.85357  0  0  -0.354745  0  2.104743  0  0  -0.371439  0  2.09541  0  0  -0.211537  -0.343456  0  2.111215  0
O  O65  1  0.86577309  0.24371995  0.32053379  1  0  -0.404912  0  1.853217  0  0  -0.35464  0  2.104424  0  0  -0.371335  0  2.095091  0  0  -0.211476  -0.343349  0  2.11089  0
O  O66  1  0.91415591  0.58216226  0.72057829  1  0  -0.524213  0  2.31749  0  0  -0.445423  0  2.5608  0  0  -0.47008  0  2.552349  0  0  -0.169929  -0.42796  0  2.566076  0
O  O67  1  0.08580968  0.41784140  0.27942064  1  0  -0.523942  0  2.31736  0  0  -0.445185  0  2.560749  0  0  -0.469845  0  2.552292  0  0  -0.169795  -0.427729  0  2.566026  0
O  O68  1  0.97850031  0.46293473  0.61363917  1  0  -0.616553  0  1.981424  0  0  -0.578075  0  2.20886  0  0  -0.597515  0  2.198152  0  0  -0.388902  -0.564529  0  2.21605  0
O  O69  1  0.02147368  0.53706360  0.38635718  1  0  -0.61665  0  1.98138  0  0  -0.578176  0  2.208841  0  0  -0.597628  0  2.198141  0  0  -0.388825  -0.564623  0  2.216018  0
O  O70  1  0.49852767  0.08552555  0.60242300  1  0  -0.921334  0  1.983547  0  0  -0.864857  0  2.250023  0  0  -0.889731  0  2.232126  0  0  -0.552241  -0.846808  0  2.261667  0
O  O71  1  0.50141223  0.91446665  0.39759028  1  0  -0.921454  0  1.983268  0  0  -0.864992  0  2.249766  0  0  -0.889867  0  2.231873  0  0  -0.55244  -0.846945  0  2.2614  0
O  O72  1  0.88364306  0.05666562  0.61531034  1  0  -0.854778  0  1.915332  0  0  -0.798954  0  2.169398  0  0  -0.824213  0  2.151314  0  0  -0.468028  -0.780622  0  2.18112  0
O  O73  1  0.11632780  0.94331474  0.38467807  1  0  -0.85479  0  1.915223  0  0  -0.798966  0  2.169323  0  0  -0.824238  0  2.151247  0  0  -0.468088  -0.780633  0  2.181038  0
O  O74  1  0.62054214  0.11354137  0.74383751  1  0  -0.528743  0  2.293441  0  0  -0.445705  0  2.536847  0  0  -0.471502  0  2.528861  0  0  -0.172394  -0.427774  0  2.542079  0
O  O75  1  0.37944994  0.88645265  0.25615817  1  0  -0.528826  0  2.293327  0  0  -0.445804  0  2.536761  0  0  -0.471596  0  2.528788  0  0  -0.172428  -0.427869  0  2.541987  0
O  O76  1  0.54138862  0.34074609  0.65622706  1  0  -0.583478  0  1.932989  0  0  -0.549266  0  2.155451  0  0  -0.567227  0  2.14512  0  0  -0.324629  -0.53681  0  2.162291  0
O  O77  1  0.45858182  0.65925650  0.34377377  1  0  -0.583492  0  1.933008  0  0  -0.549286  0  2.155516  0  0  -0.567221  0  2.145159  0  0  -0.324653  -0.536828  0  2.162355  0
O  O78  1  0.82963416  0.33047209  0.39089161  1  0  -0.385033  0  1.570713  0  0  -0.354283  0  1.802236  0  0  -0.359606  0  1.786517  0  0  -0.17843  -0.350466  0  1.813049  0
O  O79  1  0.17033705  0.66952623  0.60909909  1  0  -0.385183  0  1.570598  0  0  -0.354482  0  1.802127  0  0  -0.359798  0  1.786415  0  0  -0.178562  -0.350672  0  1.81294  0
