# generated using pymatgen
data_CoH16C12N2(ClO2)2
_symmetry_space_group_name_H-M   'P 1'
_cell_length_a   4.94386215
_cell_length_b   10.39317328
_cell_length_c   14.84444420
_cell_angle_alpha   106.22671069
_cell_angle_beta   89.99928942
_cell_angle_gamma   89.99916608
_symmetry_Int_Tables_number   1
_chemical_formula_structural   CoH16C12N2(ClO2)2
_chemical_formula_sum   'Co2 H32 C24 N4 Cl4 O8'
_cell_volume   732.35839343
_cell_formula_units_Z   2
loop_
 _symmetry_equiv_pos_site_id
 _symmetry_equiv_pos_as_xyz
  1  'x, y, z'
loop_
 _atom_site_type_symbol
 _atom_site_label
 _atom_site_symmetry_multiplicity
 _atom_site_fract_x
 _atom_site_fract_y
 _atom_site_fract_z
 _atom_site_occupancy
 _atom_site_hle17_ddec_charge
 _atom_site_hle17_ddec_spin_density
 _atom_site_hle17_ddec_sum_bond_order
 _atom_site_hle17_magmom
 _atom_site_hse06_10hf_bader_charge
 _atom_site_hse06_10hf_bader_spin_density
 _atom_site_hse06_10hf_ddec_charge
 _atom_site_hse06_10hf_ddec_spin_density
 _atom_site_hse06_10hf_ddec_sum_bond_order
 _atom_site_hse06_10hf_magmom
 _atom_site_hse06_ddec_charge
 _atom_site_hse06_ddec_spin_density
 _atom_site_hse06_ddec_sum_bond_order
 _atom_site_hse06_magmom
 _atom_site_pbe_cm5_charge
 _atom_site_pbe_ddec_charge
 _atom_site_pbe_ddec_spin_density
 _atom_site_pbe_ddec_sum_bond_order
 _atom_site_pbe_magmom
Co  Co0  1  0.50000139  0.49999995  0.99999961  1  1.018823  -2.826047  1.928155  -2.553  1.286989  -2.644641  1.014114  -2.835067  2.31249  -2.628  1.089432  -2.884032  2.245757  -2.712  0.527831  0.941928  -2.784388  2.382425  -2.543
Co  Co1  1  0.00000057  0.00000032  0.50000066  1  1.018681  -2.826037  1.928654  -2.553  1.287433  -2.644557  1.01394  -2.835025  2.313022  -2.628  1.089257  -2.883997  2.246292  -2.712  0.527834  0.941769  -2.784333  2.38294  -2.543
H  H2  1  0.91703024  0.34029932  0.98808007  1  0.403879  0.000868  0.881371  0.001  0.613959  -0.000101  0.378964  0.000217  0.956876  0.0  0.389533  0.000341  0.943531  0.0  0.272091  0.371082  0.000105  0.965512  0.0
H  H3  1  0.41701601  0.15970511  0.51191531  1  0.403833  0.000867  0.881478  0.0  0.613937  -0.000103  0.37891  0.000217  0.956997  0.0  0.389479  0.000341  0.943626  0.0  0.27207  0.371024  0.000105  0.965644  0.0
H  H4  1  0.08296936  0.65970093  0.01191937  1  0.403861  0.000867  0.881405  0.001  0.61391  -0.000102  0.378954  0.000217  0.956893  0.0  0.389523  0.000341  0.943546  0.0  0.272085  0.371071  0.000105  0.96553  0.0
H  H5  1  0.58298562  0.84029413  0.48808460  1  0.403838  0.000867  0.881485  0.001  0.61394  -0.000103  0.378916  0.000217  0.957002  0.0  0.389485  0.000341  0.943623  0.0  0.272081  0.371028  0.000105  0.965651  0.0
H  H6  1  0.95110330  0.40689537  0.90834544  1  0.410157  0.000666  0.89595  0.001  0.634362  -0.000257  0.380815  0.00013  0.967736  0.0  0.392054  0.000294  0.951716  0.0  0.286672  0.37257  -1e-05  0.979305  0.0
H  H7  1  0.45107390  0.09311675  0.59165535  1  0.410153  0.000666  0.895974  0.001  0.634473  -0.000258  0.380772  0.00013  0.967804  0.0  0.392011  0.000294  0.951783  0.0  0.286632  0.37251  -1e-05  0.979393  0.0
H  H8  1  0.04889833  0.59310488  0.09165467  1  0.410121  0.000666  0.895899  0.001  0.634362  -0.000258  0.380781  0.00013  0.96776  0.0  0.392019  0.000294  0.951742  0.0  0.286649  0.372527  -1e-05  0.979335  0.0
H  H9  1  0.54892571  0.90688350  0.40834408  1  0.41015  0.000666  0.895945  0.001  0.634465  -0.000258  0.380768  0.00013  0.967805  0.0  0.392006  0.000294  0.951785  0.0  0.286624  0.372507  -1e-05  0.979389  0.0
H  H10  1  0.63044106  0.30515861  0.77697161  1  0.1195  0.000475  0.931352  0.001  0.16533  -0.000177  0.129003  1.2e-05  0.991098  0.0  0.132258  6.8e-05  0.987845  0.0  0.131884  0.126453  -5e-05  0.993794  0.0
H  H11  1  0.13043590  0.19484147  0.72302271  1  0.119444  0.000477  0.931454  0.001  0.165315  -0.000177  0.129011  1.2e-05  0.99114  0.0  0.132266  6.8e-05  0.987889  0.0  0.131879  0.126462  -5e-05  0.993839  0.0
H  H12  1  0.36956057  0.69483965  0.22302608  1  0.119534  0.00048  0.931316  0.001  0.16532  -0.000177  0.129048  1.2e-05  0.991039  0.0  0.132304  6.8e-05  0.987787  0.0  0.131885  0.126497  -5e-05  0.993734  0.0
H  H13  1  0.86956978  0.80515978  0.27697827  1  0.119417  0.000477  0.931481  0.001  0.165326  -0.000177  0.128986  1.2e-05  0.991175  0.0  0.132242  6.8e-05  0.987923  0.0  0.131876  0.126438  -5e-05  0.993874  0.0
H  H14  1  0.79178502  0.33569187  0.62211994  1  0.129724  1e-05  0.947801  0.0  0.142723  -7.7e-05  0.134616  0.000122  1.011581  0.0  0.138577  0.000142  1.009747  0.0  0.1086  0.131764  0.000104  1.013071  0.0
H  H15  1  0.29177084  0.16430471  0.87787439  1  0.129713  1e-05  0.947731  0.0  0.142854  -7.7e-05  0.134626  0.000122  1.011483  0.0  0.138587  0.000142  1.009648  0.0  0.10861  0.131772  0.000104  1.012968  0.0
H  H16  1  0.20821661  0.66430638  0.37787843  1  0.129751  8e-06  0.94778  0.0  0.14274  -7.7e-05  0.134642  0.000122  1.011557  0.0  0.138604  0.000142  1.009721  0.0  0.108622  0.131789  0.000104  1.013046  0.0
H  H17  1  0.70822877  0.83569253  0.12212647  1  0.129702  8e-06  0.947731  0.0  0.142845  -7.6e-05  0.134601  0.000122  1.011495  0.0  0.138561  0.000142  1.009662  0.0  0.108618  0.131747  0.000104  1.01298  0.0
H  H18  1  0.22091181  0.66164505  0.66269818  1  0.122199  -0.000653  0.964761  0.0  0.12976  -0.00101  0.130997  -0.000532  1.023837  0.0  0.134483  -0.000386  1.023158  0.0  0.101027  0.128285  -0.000669  1.024785  0.0
H  H19  1  0.72090961  0.83836141  0.83730463  1  0.122186  -0.000655  0.964747  0.0  0.129822  -0.00101  0.130997  -0.000532  1.023816  0.0  0.134484  -0.000386  1.023138  0.0  0.101048  0.128284  -0.000669  1.024765  0.0
H  H20  1  0.77909184  0.33835619  0.33730347  1  0.122202  -0.000654  0.96479  0.0  0.12981  -0.00101  0.131005  -0.000532  1.023858  0.0  0.134489  -0.000386  1.023175  0.0  0.101051  0.128294  -0.000669  1.024807  0.0
H  H21  1  0.27908393  0.16163984  0.16269500  1  0.122213  -0.000653  0.964776  0.0  0.129827  -0.00101  0.131022  -0.000532  1.023844  0.0  0.13451  -0.000386  1.023163  0.0  0.101035  0.128309  -0.000669  1.024795  0.0
H  H22  1  0.07734983  0.61267147  0.81463072  1  0.112153  0.000388  0.966501  0.001  0.204809  -0.000271  0.116511  -0.000132  1.036215  0.0  0.120441  -4.1e-05  1.032228  0.0  0.115822  0.11335  -0.000224  1.039648  0.0
H  H23  1  0.57733171  0.88733333  0.68536965  1  0.112285  0.000383  0.966402  0.001  0.204901  -0.000271  0.116658  -0.000132  1.036068  0.0  0.120591  -4.2e-05  1.032076  0.0  0.115896  0.113432  -0.000225  1.039567  0.0
H  H24  1  0.92265179  0.38732677  0.18537034  1  0.112163  0.000389  0.966482  0.001  0.204809  -0.000272  0.116543  -0.000132  1.036155  0.0  0.12047  -4.2e-05  1.032178  0.0  0.11585  0.113363  -0.000225  1.039607  0.0
H  H25  1  0.42266992  0.11266492  0.31462804  1  0.112286  0.000386  0.966316  0.001  0.204916  -0.000272  0.116654  -0.000132  1.035986  0.0  0.120581  -4.2e-05  1.032011  0.0  0.115846  0.113428  -0.000225  1.039489  0.0
H  H26  1  0.79715733  0.46952075  0.51550166  1  0.082985  -4.9e-05  0.954295  0.0  0.044192  -0.000264  0.097498  -7.6e-05  1.020198  0.0  0.098977  -5.1e-05  1.019906  0.0  0.0911  0.096254  -0.000112  1.020644  0.0
H  H27  1  0.29715530  0.03047978  0.98449478  1  0.082981  -5e-05  0.95431  0.0  0.044245  -0.000264  0.097502  -7.5e-05  1.020199  0.0  0.098983  -5.1e-05  1.019911  0.0  0.091078  0.096258  -0.000112  1.020644  0.0
H  H28  1  0.20284228  0.53047850  0.48449892  1  0.082915  -5.1e-05  0.954311  0.0  0.044151  -0.000264  0.097445  -7.6e-05  1.020218  0.0  0.098925  -5.2e-05  1.01993  0.0  0.091088  0.096202  -0.000112  1.020663  0.0
H  H29  1  0.70283824  0.96951947  0.01550581  1  0.083067  -4.9e-05  0.954234  0.0  0.044149  -0.000264  0.097547  -7.6e-05  1.020171  0.0  0.099056  -5.1e-05  1.019858  0.0  0.091075  0.096302  -0.000112  1.020614  0.0
H  H30  1  0.64625400  0.63177572  0.54737714  1  0.090798  -0.000419  0.935585  0.0  0.041947  -0.001033  0.104657  -0.00044  0.999749  0.0  0.106706  -0.000315  0.99855  0.0  0.090924  0.102906  -0.000589  1.000991  0.0
H  H31  1  0.14624085  0.86821945  0.95261028  1  0.090924  -0.00042  0.935601  0.0  0.041937  -0.001033  0.104763  -0.00044  0.999766  0.0  0.106856  -0.000315  0.998519  0.0  0.090951  0.103015  -0.000589  1.001006  0.0
H  H32  1  0.35375167  0.36822253  0.45262055  1  0.090781  -0.000421  0.935563  0.0  0.041926  -0.001033  0.104655  -0.00044  0.999721  0.0  0.106715  -0.000315  0.998514  0.0  0.090916  0.102905  -0.000589  1.000964  0.0
H  H33  1  0.85375268  0.13177880  0.04738943  1  0.090852  -0.000418  0.935631  0.0  0.042151  -0.001033  0.104712  -0.00044  0.999777  0.0  0.106798  -0.000315  0.998549  0.0  0.090927  0.102961  -0.000589  1.001018  0.0
C  C34  1  0.55106530  0.38083221  0.74629534  1  0.034998  -0.008384  3.581213  -0.011  0.373733  -0.012079  -0.009965  -0.006119  3.848601  -0.008  -0.000879  -0.00481  3.858426  -0.007  0.043103  -0.016276  -0.007793  3.843006  -0.01
C  C35  1  0.05103296  0.11918362  0.75370981  1  0.034921  -0.008391  3.581332  -0.011  0.373762  -0.012085  -0.010202  -0.006122  3.848857  -0.008  -0.001119  -0.004813  3.858686  -0.007  0.042998  -0.016521  -0.007797  3.843275  -0.01
C  C36  1  0.44893633  0.61916704  0.25370457  1  0.034939  -0.008411  3.58136  -0.011  0.37376  -0.012078  -0.010032  -0.006118  3.848744  -0.008  -0.000949  -0.00481  3.858571  -0.007  0.043075  -0.016342  -0.007792  3.843151  -0.01
C  C37  1  0.94896463  0.88081663  0.24629030  1  0.03495  -0.008391  3.581315  -0.011  0.373552  -0.012087  -0.010204  -0.006123  3.848877  -0.008  -0.00112  -0.004813  3.858704  -0.007  0.042991  -0.016523  -0.007797  3.843294  -0.01
C  C38  1  0.63797635  0.40196926  0.66309696  1  -0.142016  0.010639  3.709874  0.007  0.006256  0.004181  -0.159969  0.00452  3.96389  0.003  -0.1666  0.00497  3.982006  0.003  -0.077744  -0.156186  0.00407  3.952812  0.003
C  C39  1  0.13796575  0.09802874  0.83689962  1  -0.142039  0.010648  3.709625  0.007  0.005948  0.004182  -0.159917  0.004521  3.963656  0.003  -0.166548  0.004975  3.981771  0.003  -0.077759  -0.156127  0.004073  3.952572  0.003
C  C40  1  0.36202933  0.59803199  0.33690267  1  -0.142021  0.010694  3.709899  0.008  0.006252  0.00418  -0.159955  0.004519  3.963914  0.003  -0.166584  0.004971  3.982028  0.003  -0.077732  -0.15617  0.00407  3.952835  0.003
C  C41  1  0.86202779  0.90197251  0.16310136  1  -0.142018  0.010651  3.709554  0.007  0.005997  0.004183  -0.159875  0.004523  3.963579  0.003  -0.166503  0.004975  3.981693  0.003  -0.077774  -0.156088  0.004073  3.952494  0.003
C  C42  1  0.52198312  0.50331912  0.63021062  1  0.154515  -0.009031  3.684476  -0.012  -0.012283  -0.013134  0.168407  -0.006578  3.921295  -0.008  0.174325  -0.005137  3.942705  -0.007  0.013864  0.164377  -0.008363  3.906884  -0.01
C  C43  1  0.02198944  0.99667218  0.86978260  1  0.154732  -0.009039  3.684173  -0.012  -0.012493  -0.01314  0.168556  -0.006581  3.921089  -0.008  0.174471  -0.005141  3.942506  -0.007  0.013905  0.16453  -0.008367  3.906681  -0.01
C  C44  1  0.47801649  0.49667913  0.36978842  1  0.15461  -0.009052  3.684302  -0.012  -0.012274  -0.013134  0.168477  -0.006578  3.921189  -0.008  0.174395  -0.005138  3.942602  -0.007  0.013872  0.164449  -0.008363  3.906784  -0.01
C  C45  1  0.97800612  0.00332907  0.13021837  1  0.154713  -0.009032  3.684196  -0.012  -0.012521  -0.013141  0.16856  -0.006582  3.921069  -0.008  0.174478  -0.00514  3.942497  -0.007  0.013901  0.164533  -0.008367  3.906656  -0.01
C  C46  1  0.31720373  0.58105091  0.68505850  1  -0.146493  0.010313  3.693592  0.007  0.038711  0.003676  -0.158262  0.004005  3.932746  0.003  -0.166489  0.004556  3.953687  0.003  -0.078412  -0.153111  0.003517  3.919306  0.002
C  C47  1  0.81719588  0.91895268  0.81493663  1  -0.146513  0.010325  3.693512  0.007  0.039101  0.003677  -0.158305  0.004005  3.93268  0.003  -0.166537  0.00456  3.953624  0.003  -0.078441  -0.153151  0.00352  3.919227  0.002
C  C48  1  0.68280194  0.41895034  0.31494248  1  -0.146565  0.010354  3.693661  0.007  0.038622  0.003675  -0.158343  0.004004  3.932826  0.003  -0.166564  0.004555  3.953761  0.003  -0.078492  -0.153191  0.003516  3.919385  0.002
C  C49  1  0.18280170  0.08104757  0.18506348  1  -0.146552  0.010307  3.693664  0.007  0.039105  0.003679  -0.158348  0.004008  3.932809  0.003  -0.166578  0.004559  3.953748  0.003  -0.078389  -0.153194  0.003519  3.919357  0.002
C  C50  1  0.23474471  0.55749905  0.76807669  1  0.025889  -0.008701  3.612539  -0.012  0.300807  -0.012072  -0.016318  -0.00622  3.873362  -0.008  -0.008727  -0.004963  3.886199  -0.007  0.041322  -0.021493  -0.007793  3.86562  -0.01
C  C51  1  0.73470896  0.94252133  0.73192612  1  0.025742  -0.008699  3.612356  -0.012  0.300614  -0.012078  -0.0164  -0.006223  3.873094  -0.008  -0.008808  -0.004966  3.88593  -0.007  0.04129  -0.021523  -0.007798  3.865392  -0.01
C  C52  1  0.76525894  0.44250220  0.23192496  1  0.025911  -0.00872  3.612468  -0.012  0.300789  -0.012071  -0.016277  -0.006219  3.873234  -0.008  -0.008688  -0.004963  3.886069  -0.007  0.041382  -0.021433  -0.007794  3.865506  -0.01
C  C53  1  0.26528862  0.05747892  0.26807399  1  0.025709  -0.008698  3.612396  -0.012  0.300605  -0.012081  -0.016414  -0.006224  3.87311  -0.008  -0.008824  -0.004967  3.885943  -0.007  0.041291  -0.02154  -0.007798  3.865415  -0.01
C  C54  1  0.60860912  0.52459733  0.53849068  1  -0.152812  -0.000539  3.670764  0.0  0.04609  -0.001773  -0.196268  -0.001112  3.921637  -0.001  -0.198035  -0.00075  3.931954  -0.001  -0.157963  -0.194715  -0.001563  3.914577  -0.001
C  C55  1  0.10860855  0.97540017  0.96150611  1  -0.153011  -0.000531  3.670769  0.0  0.021635  -0.001812  -0.196459  -0.001113  3.921672  -0.001  -0.198256  -0.00075  3.931975  -0.001  -0.157978  -0.194918  -0.001564  3.914622  -0.001
C  C56  1  0.39139250  0.47540192  0.46150923  1  -0.152691  -0.000527  3.670605  0.0  0.021686  -0.001811  -0.196208  -0.001112  3.921555  -0.001  -0.197991  -0.000749  3.931876  -0.001  -0.157928  -0.19466  -0.001563  3.914496  -0.001
C  C57  1  0.89138499  0.02459907  0.03849380  1  -0.153  -0.000542  3.670746  0.0  0.046001  -0.001775  -0.196465  -0.001113  3.921685  -0.001  -0.198301  -0.000751  3.932017  -0.001  -0.157942  -0.194911  -0.001564  3.914629  -0.001
N  N58  1  0.35138931  0.45749919  0.79685468  1  0.257449  0.012451  3.690172  0.012  -0.717661  0.003194  0.31057  0.006106  3.954906  0.006  0.309198  0.007124  3.977045  0.006  -0.124688  0.310212  0.004657  3.938841  0.005
N  N59  1  0.85136283  0.04251887  0.70314701  1  0.257442  0.012451  3.689889  0.012  -0.717886  0.003191  0.31056  0.006105  3.954651  0.006  0.309189  0.007127  3.97679  0.006  -0.124691  0.310203  0.004657  3.938581  0.005
N  N60  1  0.64861232  0.54250006  0.20314590  1  0.25738  0.012482  3.690161  0.012  -0.717479  0.003193  0.310489  0.006105  3.954906  0.006  0.309117  0.007124  3.977045  0.006  -0.124753  0.310132  0.004657  3.938843  0.005
N  N61  1  0.14863678  0.95748038  0.29685290  1  0.257461  0.012448  3.689884  0.012  -0.717824  0.003194  0.310577  0.006108  3.954647  0.006  0.309205  0.007129  3.976783  0.006  -0.124694  0.31022  0.004657  3.938576  0.005
Cl  Cl62  1  0.29351135  0.32610980  0.06083042  1  -0.613031  -0.035186  0.897521  -0.062  -0.715886  -0.054843  -0.580387  -0.027542  1.14338  -0.042  -0.601453  -0.020586  1.121214  -0.032  -0.297551  -0.561066  -0.034362  1.16111  -0.051
Cl  Cl63  1  0.79351837  0.17387909  0.43916591  1  -0.613037  -0.035185  0.897591  -0.062  -0.715962  -0.054844  -0.580416  -0.027543  1.143497  -0.042  -0.601476  -0.020587  1.121315  -0.032  -0.297563  -0.561081  -0.034362  1.161222  -0.051
Cl  Cl64  1  0.70648826  0.67389145  0.93916989  1  -0.613036  -0.035186  0.897535  -0.062  -0.715898  -0.054843  -0.580387  -0.027541  1.143387  -0.042  -0.601457  -0.020586  1.121229  -0.032  -0.297554  -0.561072  -0.034362  1.161122  -0.051
Cl  Cl65  1  0.20648123  0.82611916  0.56083313  1  -0.613027  -0.035185  0.897588  -0.062  -0.715949  -0.054844  -0.580398  -0.027543  1.143489  -0.042  -0.601465  -0.020588  1.12131  -0.032  -0.297557  -0.561067  -0.034363  1.161213  -0.051
O  O66  1  0.80818666  0.36839777  0.94066571  1  -0.829268  -0.028158  2.038219  -0.049  -1.233171  -0.047243  -0.79855  -0.025123  2.26017  -0.039  -0.827135  -0.020227  2.229814  -0.032  -0.581975  -0.774087  -0.029461  2.281207  -0.045
O  O67  1  0.30816541  0.13160266  0.55932662  1  -0.829198  -0.028156  2.038344  -0.049  -1.233225  -0.047242  -0.798426  -0.025124  2.260278  -0.039  -0.827008  -0.020229  2.229901  -0.032  -0.581914  -0.773947  -0.029461  2.281362  -0.045
O  O68  1  0.19181496  0.63160248  0.05933372  1  -0.829248  -0.028157  2.038182  -0.049  -1.233113  -0.047241  -0.798539  -0.025123  2.260219  -0.039  -0.827123  -0.020227  2.229862  -0.032  -0.581963  -0.774065  -0.029462  2.281286  -0.045
O  O69  1  0.69183420  0.86839759  0.44067281  1  -0.829212  -0.028156  2.038316  -0.049  -1.233219  -0.047241  -0.79843  -0.025124  2.260258  -0.039  -0.827011  -0.020228  2.229875  -0.032  -0.581914  -0.77395  -0.029461  2.281346  -0.045
O  O70  1  0.27170549  0.43456794  0.87713130  1  -0.570049  -0.031689  1.967713  -0.057  -0.694958  -0.044376  -0.53937  -0.023711  2.232913  -0.039  -0.571945  -0.018219  2.231864  -0.03  -0.241975  -0.511281  -0.029276  2.232312  -0.047
O  O71  1  0.77172789  0.06543685  0.62286136  1  -0.569897  -0.031692  1.967441  -0.057  -0.69485  -0.044397  -0.539199  -0.023714  2.232658  -0.039  -0.571777  -0.018222  2.231607  -0.03  -0.241945  -0.511101  -0.02928  2.232054  -0.047
O  O72  1  0.72829412  0.56542931  0.12286889  1  -0.570013  -0.031684  1.967716  -0.057  -0.695103  -0.044376  -0.539348  -0.02371  2.232941  -0.039  -0.571921  -0.018219  2.231889  -0.03  -0.241961  -0.511255  -0.029275  2.232335  -0.047
O  O73  1  0.22827576  0.93456440  0.37713894  1  -0.569885  -0.031691  1.967395  -0.057  -0.694903  -0.044394  -0.539191  -0.023712  2.232631  -0.039  -0.571771  -0.018221  2.231585  -0.03  -0.241922  -0.511096  -0.029278  2.232025  -0.047
