# generated using pymatgen
data_CaH9C2(ClO2)2
_symmetry_space_group_name_H-M   'P 1'
_cell_length_a   5.76896175
_cell_length_b   6.26821020
_cell_length_c   21.79814472
_cell_angle_alpha   88.32425667
_cell_angle_beta   90.00022171
_cell_angle_gamma   89.99955477
_symmetry_Int_Tables_number   1
_chemical_formula_structural   CaH9C2(ClO2)2
_chemical_formula_sum   'Ca4 H36 C8 Cl8 O16'
_cell_volume   787.90701794
_cell_formula_units_Z   4
loop_
 _symmetry_equiv_pos_site_id
 _symmetry_equiv_pos_as_xyz
  1  'x, y, z'
loop_
 _atom_site_type_symbol
 _atom_site_label
 _atom_site_symmetry_multiplicity
 _atom_site_fract_x
 _atom_site_fract_y
 _atom_site_fract_z
 _atom_site_occupancy
 _atom_site_hle17_bader_spin_density
 _atom_site_hle17_ddec_charge
 _atom_site_hle17_ddec_spin_density
 _atom_site_hle17_ddec_sum_bond_order
 _atom_site_hle17_magmom
 _atom_site_hse06_10hf_bader_spin_density
 _atom_site_hse06_10hf_ddec_charge
 _atom_site_hse06_10hf_ddec_spin_density
 _atom_site_hse06_10hf_ddec_sum_bond_order
 _atom_site_hse06_10hf_magmom
 _atom_site_hse06_bader_spin_density
 _atom_site_hse06_ddec_charge
 _atom_site_hse06_ddec_spin_density
 _atom_site_hse06_ddec_sum_bond_order
 _atom_site_hse06_magmom
 _atom_site_pbe_bader_spin_density
 _atom_site_pbe_cm5_charge
 _atom_site_pbe_ddec_charge
 _atom_site_pbe_ddec_spin_density
 _atom_site_pbe_ddec_sum_bond_order
 _atom_site_pbe_magmom
Ca  Ca0  1  0.24819276  0.95439659  0.65314658  1  0  1.497017  0  1.110671  0  0  1.36701  0  1.451738  0  0  1.404419  0  1.414496  0  0  0.693323  1.338699  0  1.478387  0
Ca  Ca1  1  0.25179976  0.95438434  0.15314804  1  0  1.497024  0  1.110654  0  0  1.366944  0  1.451823  0  0  1.404355  0  1.414577  0  0  0.6933  1.338662  0  1.478457  0
Ca  Ca2  1  0.75180298  0.04560785  0.34685379  1  0  1.497068  0  1.110643  0  0  1.367039  0  1.451743  0  0  1.404452  0  1.414496  0  0  0.693361  1.338738  0  1.478405  0
Ca  Ca3  1  0.74820811  0.04560747  0.84685139  1  0  1.496966  0  1.110694  0  0  1.366939  0  1.451788  0  0  1.40435  0  1.414545  0  0  0.693293  1.338645  0  1.478436  0
H  H4  1  0.76045316  0.03610664  0.51057486  1  0  0.053979  0  0.912598  0  0  0.061198  0  0.979226  0  0  0.062188  0  0.977908  0  0  0.114496  0.060379  0  0.980412  0
H  H5  1  0.73953583  0.03609830  0.01057847  1  0  0.053973  0  0.91261  0  0  0.061218  0  0.979221  0  0  0.062211  0  0.977887  0  0  0.114503  0.06039  0  0.980423  0
H  H6  1  0.23952004  0.96389118  0.48942733  1  0  0.053859  0  0.912637  0  0  0.061176  0  0.979162  0  0  0.062166  0  0.977847  0  0  0.114498  0.060361  0  0.980341  0
H  H7  1  0.26043218  0.96389874  0.98942969  1  0  0.053954  0  0.912869  0  0  0.061146  0  0.979505  0  0  0.062137  0  0.978173  0  0  0.114538  0.060329  0  0.980677  0
H  H8  1  0.65170992  0.33164830  0.57233222  1  0  0.059127  0  0.946755  0  0  0.068466  0  1.018391  0  0  0.069947  0  1.01615  0  0  0.09467  0.067252  0  1.020199  0
H  H9  1  0.84827019  0.33165408  0.07232899  1  0  0.059145  0  0.946633  0  0  0.06857  0  1.018196  0  0  0.070046  0  1.015968  0  0  0.094686  0.067356  0  1.019998  0
H  H10  1  0.34828235  0.66835395  0.42767273  1  0  0.059055  0  0.946877  0  0  0.068472  0  1.018446  0  0  0.069957  0  1.016205  0  0  0.094629  0.067262  0  1.020252  0
H  H11  1  0.15173595  0.66835994  0.92767141  1  0  0.059129  0  0.946653  0  0  0.068556  0  1.018222  0  0  0.070028  0  1.015983  0  0  0.094685  0.067345  0  1.020029  0
H  H12  1  0.48762279  0.35809215  0.50279289  1  0  0.057244  0  0.976978  0  0  0.070462  0  1.043254  0  0  0.071008  0  1.042649  0  0  0.103544  0.06993  0  1.043879  0
H  H13  1  0.01236547  0.35807626  0.00279488  1  0  0.057254  0  0.977035  0  0  0.070383  0  1.043446  0  0  0.070985  0  1.042775  0  0  0.10353  0.06984  0  1.044086  0
H  H14  1  0.51238855  0.64191543  0.49720795  1  0  0.057147  0  0.977079  0  0  0.070399  0  1.043314  0  0  0.070945  0  1.042715  0  0  0.103521  0.069873  0  1.043936  0
H  H15  1  0.98763027  0.64189795  0.99720496  1  0  0.057184  0  0.977029  0  0  0.070405  0  1.04333  0  0  0.070961  0  1.042705  0  0  0.103562  0.069861  0  1.04397  0
H  H16  1  0.68949346  0.80862482  0.58552563  1  0  0.377144  0  0.909281  0  0  0.349548  0  0.989576  0  0  0.35957  0  0.978149  0  0  0.282903  0.342453  0  0.997607  0
H  H17  1  0.81049420  0.80860284  0.08552557  1  0  0.37699  0  0.90933  0  0  0.349442  0  0.989511  0  0  0.359466  0  0.978082  0  0  0.282868  0.342345  0  0.99754  0
H  H18  1  0.31050055  0.19139644  0.41448030  1  0  0.377104  0  0.909172  0  0  0.349533  0  0.989412  0  0  0.359559  0  0.97798  0  0  0.282863  0.342441  0  0.997433  0
H  H19  1  0.18949114  0.19137395  0.91447887  1  0  0.377012  0  0.909546  0  0  0.349446  0  0.989773  0  0  0.359469  0  0.978348  0  0  0.282909  0.342354  0  0.997802  0
H  H20  1  0.22036457  0.38207244  0.57781302  1  0  0.370902  0  0.90858  0  0  0.348635  0  0.978205  0  0  0.358108  0  0.967806  0  0  0.285356  0.341903  0  0.985562  0
H  H21  1  0.27962111  0.38206966  0.07781333  1  0  0.371045  0  0.90842  0  0  0.348717  0  0.978159  0  0  0.358181  0  0.967762  0  0  0.285381  0.341981  0  0.985525  0
H  H22  1  0.77963116  0.61794623  0.42218831  1  0  0.371013  0  0.908614  0  0  0.348732  0  0.978251  0  0  0.358206  0  0.967846  0  0  0.285379  0.342002  0  0.9856  0
H  H23  1  0.72038330  0.61791950  0.92218195  1  0  0.371007  0  0.908443  0  0  0.348684  0  0.978203  0  0  0.358138  0  0.967817  0  0  0.285364  0.34195  0  0.985571  0
H  H24  1  0.80819371  0.19870697  0.69053876  1  0  0.412685  0  0.891192  0  0  0.380897  0  0.958144  0  0  0.390714  0  0.943776  0  0  0.28337  0.373905  0  0.968377  0
H  H25  1  0.69179645  0.19869199  0.19053897  1  0  0.41275  0  0.891089  0  0  0.380957  0  0.958067  0  0  0.390774  0  0.943698  0  0  0.28339  0.373964  0  0.9683  0
H  H26  1  0.19180202  0.80130133  0.30945658  1  0  0.412619  0  0.891262  0  0  0.380824  0  0.958245  0  0  0.390641  0  0.943876  0  0  0.283317  0.373827  0  0.968485  0
H  H27  1  0.30821315  0.80129410  0.80945539  1  0  0.412677  0  0.891188  0  0  0.380889  0  0.958158  0  0  0.390704  0  0.943792  0  0  0.283364  0.373896  0  0.968393  0
H  H28  1  0.94489540  0.35374782  0.64540738  1  0  0.411199  0  0.885228  0  0  0.381711  0  0.952934  0  0  0.391808  0  0.938014  0  0  0.282117  0.374436  0  0.963698  0
H  H29  1  0.55509713  0.35373119  0.14540645  1  0  0.411247  0  0.885245  0  0  0.381758  0  0.952892  0  0  0.391853  0  0.937974  0  0  0.28217  0.374484  0  0.963656  0
H  H30  1  0.05510727  0.64626342  0.35458980  1  0  0.411273  0  0.885209  0  0  0.38176  0  0.952873  0  0  0.391857  0  0.937953  0  0  0.282135  0.374486  0  0.963635  0
H  H31  1  0.44490554  0.64625485  0.85458837  1  0  0.411219  0  0.885193  0  0  0.381728  0  0.952911  0  0  0.391824  0  0.937991  0  0  0.282108  0.374453  0  0.963675  0
H  H32  1  0.46878019  0.53413330  0.70748021  1  0  0.418916  0  0.877676  0  0  0.389099  0  0.94011  0  0  0.399121  0  0.925437  0  0  0.278932  0.381854  0  0.950726  0
H  H33  1  0.03120903  0.53412346  0.20747945  1  0  0.419008  0  0.877582  0  0  0.389149  0  0.940054  0  0  0.399168  0  0.925387  0  0  0.278965  0.381908  0  0.950666  0
H  H34  1  0.53121728  0.46586182  0.29251830  1  0  0.418959  0  0.877598  0  0  0.389141  0  0.940035  0  0  0.399164  0  0.925359  0  0  0.278962  0.381898  0  0.950649  0
H  H35  1  0.96879365  0.46587141  0.79252090  1  0  0.418981  0  0.877554  0  0  0.389125  0  0.940031  0  0  0.399143  0  0.925363  0  0  0.27896  0.381881  0  0.950645  0
H  H36  1  0.64478555  0.72115535  0.71518784  1  0  0.409918  0  0.894534  0  0  0.378257  0  0.961638  0  0  0.388067  0  0.947284  0  0  0.280309  0.371221  0  0.971936  0
H  H37  1  0.85521487  0.72114487  0.21518943  1  0  0.40988  0  0.8946  0  0  0.378204  0  0.961701  0  0  0.388019  0  0.947351  0  0  0.280285  0.371172  0  0.971991  0
H  H38  1  0.35521538  0.27883535  0.28480791  1  0  0.409921  0  0.894529  0  0  0.378252  0  0.961643  0  0  0.388063  0  0.94729  0  0  0.280285  0.371217  0  0.971939  0
H  H39  1  0.14479473  0.27885651  0.78481001  1  0  0.409861  0  0.894623  0  0  0.378195  0  0.961733  0  0  0.388004  0  0.947379  0  0  0.280254  0.371163  0  0.972024  0
C  C40  1  0.57884452  0.03815461  0.52608921  1  0  0.164209  0  3.598108  0  0  0.135842  0  3.855803  0  0  0.141233  0  3.864938  0  0  -0.001557  0.131972  0  3.849889  0
C  C41  1  0.92115371  0.03814739  0.02607813  1  0  0.164184  0  3.598451  0  0  0.135815  0  3.856084  0  0  0.141203  0  3.86524  0  0  -0.001623  0.131949  0  3.850159  0
C  C42  1  0.42115296  0.96184119  0.47391619  1  0  0.16415  0  3.597918  0  0  0.135719  0  3.855658  0  0  0.141112  0  3.864798  0  0  -0.001625  0.131857  0  3.849738  0
C  C43  1  0.07884722  0.96186238  0.97391812  1  0  0.164105  0  3.599169  0  0  0.135795  0  3.856816  0  0  0.141174  0  3.865964  0  0  -0.001618  0.131948  0  3.850866  0
C  C44  1  0.51448501  0.26055308  0.54460121  1  0  0.084475  0  3.625949  0  0  0.017264  0  3.900268  0  0  0.024859  0  3.903437  0  0  -0.079042  0.012132  0  3.89824  0
C  C45  1  0.98547768  0.26053037  0.04459810  1  0  0.084454  0  3.625859  0  0  0.017189  0  3.900239  0  0  0.02474  0  3.903394  0  0  -0.079084  0.012062  0  3.898208  0
C  C46  1  0.48551073  0.73944480  0.45540053  1  0  0.084617  0  3.626159  0  0  0.017333  0  3.900429  0  0  0.024913  0  3.903625  0  0  -0.079045  0.012192  0  3.898402  0
C  C47  1  0.01453193  0.73947354  0.95540640  1  0  0.084653  0  3.625453  0  0  0.017339  0  3.899846  0  0  0.024946  0  3.902972  0  0  -0.079085  0.012209  0  3.89782  0
Cl  Cl48  1  0.97612979  0.79778354  0.75935668  1  0  -0.685658  0  0.851541  0  0  -0.610582  0  1.080851  0  0  -0.628136  0  1.059076  0  0  -0.223768  -0.597345  0  1.096138  0
Cl  Cl49  1  0.52388007  0.79778431  0.25935751  1  0  -0.685655  0  0.851489  0  0  -0.6106  0  1.080815  0  0  -0.628154  0  1.05905  0  0  -0.223776  -0.59736  0  1.096109  0
Cl  Cl50  1  0.02387115  0.20220710  0.24063952  1  0  -0.685665  0  0.851497  0  0  -0.610605  0  1.080838  0  0  -0.628156  0  1.059063  0  0  -0.223779  -0.597366  0  1.096129  0
Cl  Cl51  1  0.47613301  0.20221577  0.74063964  1  0  -0.685629  0  0.851509  0  0  -0.610585  0  1.080868  0  0  -0.628141  0  1.059092  0  0  -0.223771  -0.597352  0  1.096153  0
Cl  Cl52  1  0.00746053  0.65222582  0.58952288  1  0  -0.647228  0  0.783061  0  0  -0.586762  0  1.000943  0  0  -0.602844  0  0.979981  0  0  -0.261696  -0.574772  0  1.015629  0
Cl  Cl53  1  0.49253371  0.65221144  0.08951962  1  0  -0.64719  0  0.783029  0  0  -0.586737  0  1.000949  0  0  -0.602828  0  0.979977  0  0  -0.261692  -0.574748  0  1.015634  0
Cl  Cl54  1  0.99254561  0.34779316  0.41047615  1  0  -0.647197  0  0.78304  0  0  -0.586769  0  1.000958  0  0  -0.602861  0  0.979993  0  0  -0.261671  -0.574781  0  1.015644  0
Cl  Cl55  1  0.50746722  0.34778263  0.91047476  1  0  -0.647244  0  0.782992  0  0  -0.586743  0  1.000919  0  0  -0.602839  0  0.979942  0  0  -0.261697  -0.574752  0  1.015608  0
O  O56  1  0.54972369  0.89877888  0.57915267  1  0  -0.624746  0  2.148277  0  0  -0.564925  0  2.387914  0  0  -0.584976  0  2.377912  0  0  -0.43446  -0.550427  0  2.394573  0
O  O57  1  0.95024960  0.89878311  0.07915006  1  0  -0.624716  0  2.14822  0  0  -0.564845  0  2.387818  0  0  -0.584877  0  2.377772  0  0  -0.434384  -0.550351  0  2.394465  0
O  O58  1  0.45028418  0.10123225  0.42084543  1  0  -0.624739  0  2.147957  0  0  -0.564906  0  2.387593  0  0  -0.58494  0  2.377551  0  0  -0.43439  -0.550414  0  2.394248  0
O  O59  1  0.04975307  0.10121025  0.92086176  1  0  -0.62448  0  2.148792  0  0  -0.564739  0  2.388548  0  0  -0.584748  0  2.378464  0  0  -0.434382  -0.55025  0  2.3952  0
O  O60  1  0.30224261  0.24329848  0.57905283  1  0  -0.602023  0  2.14082  0  0  -0.535644  0  2.375954  0  0  -0.555234  0  2.365193  0  0  -0.44495  -0.521526  0  2.383104  0
O  O61  1  0.19773658  0.24330264  0.07905523  1  0  -0.602132  0  2.14048  0  0  -0.535661  0  2.375652  0  0  -0.555247  0  2.36493  0  0  -0.444917  -0.52154  0  2.382803  0
O  O62  1  0.69773926  0.75670774  0.42094617  1  0  -0.602083  0  2.140975  0  0  -0.535702  0  2.376142  0  0  -0.555289  0  2.365381  0  0  -0.444919  -0.521586  0  2.383294  0
O  O63  1  0.80225916  0.75669733  0.92094283  1  0  -0.60225  0  2.140097  0  0  -0.535799  0  2.37528  0  0  -0.55539  0  2.364555  0  0  -0.444967  -0.521674  0  2.382442  0
O  O64  1  0.93867413  0.20513102  0.66146598  1  0  -0.878139  0  1.896053  0  0  -0.825558  0  2.081639  0  0  -0.845097  0  2.051745  0  0  -0.624956  -0.81146  0  2.102704  0
O  O65  1  0.56130964  0.20512102  0.16146537  1  0  -0.878249  0  1.895997  0  0  -0.825677  0  2.081577  0  0  -0.845218  0  2.051685  0  0  -0.625017  -0.811579  0  2.102639  0
O  O66  1  0.06133027  0.79488010  0.33853211  1  0  -0.87814  0  1.896069  0  0  -0.825515  0  2.081694  0  0  -0.845057  0  2.051802  0  0  -0.624903  -0.81141  0  2.102758  0
O  O67  1  0.43869303  0.79486979  0.83852946  1  0  -0.878129  0  1.895973  0  0  -0.825556  0  2.081623  0  0  -0.845101  0  2.051736  0  0  -0.624933  -0.811458  0  2.102688  0
O  O68  1  0.49803223  0.68402574  0.69496587  1  0  -0.878963  0  1.886915  0  0  -0.824867  0  2.063257  0  0  -0.844701  0  2.034255  0  0  -0.6286  -0.810574  0  2.083822  0
O  O69  1  0.00196874  0.68402225  0.19496678  1  0  -0.879032  0  1.886854  0  0  -0.824839  0  2.063385  0  0  -0.844693  0  2.034346  0  0  -0.628612  -0.810554  0  2.083952  0
O  O70  1  0.50196177  0.31596778  0.30503264  1  0  -0.879011  0  1.886828  0  0  -0.824898  0  2.063185  0  0  -0.84474  0  2.034174  0  0  -0.628599  -0.810604  0  2.083759  0
O  O71  1  0.99805300  0.31597226  0.80503632  1  0  -0.879004  0  1.886866  0  0  -0.824846  0  2.063323  0  0  -0.844688  0  2.034333  0  0  -0.628568  -0.810556  0  2.083881  0
