# generated using pymatgen
data_CuH11C8N3Cl2
_symmetry_space_group_name_H-M   'P 1'
_cell_length_a   7.28632743
_cell_length_b   11.49412982
_cell_length_c   13.18987115
_cell_angle_alpha   106.66397278
_cell_angle_beta   90.00046291
_cell_angle_gamma   90.00001752
_symmetry_Int_Tables_number   1
_chemical_formula_structural   CuH11C8N3Cl2
_chemical_formula_sum   'Cu4 H44 C32 N12 Cl8'
_cell_volume   1058.25956350
_cell_formula_units_Z   4
loop_
 _symmetry_equiv_pos_site_id
 _symmetry_equiv_pos_as_xyz
  1  'x, y, z'
loop_
 _atom_site_type_symbol
 _atom_site_label
 _atom_site_symmetry_multiplicity
 _atom_site_fract_x
 _atom_site_fract_y
 _atom_site_fract_z
 _atom_site_occupancy
 _atom_site_hle17_ddec_charge
 _atom_site_hle17_ddec_spin_density
 _atom_site_hle17_ddec_sum_bond_order
 _atom_site_hle17_magmom
 _atom_site_hse06_10hf_ddec_charge
 _atom_site_hse06_10hf_ddec_spin_density
 _atom_site_hse06_10hf_ddec_sum_bond_order
 _atom_site_hse06_10hf_magmom
 _atom_site_hse06_ddec_charge
 _atom_site_hse06_ddec_spin_density
 _atom_site_hse06_ddec_sum_bond_order
 _atom_site_hse06_magmom
 _atom_site_pbe_cm5_charge
 _atom_site_pbe_ddec_charge
 _atom_site_pbe_ddec_spin_density
 _atom_site_pbe_ddec_sum_bond_order
 _atom_site_pbe_magmom
Cu  Cu0  1  0.28707300  0.26917777  0.51257559  1  0.736238  0.640448  1.93703  0.436  0.717434  0.73767  2.335523  0.555  0.802362  0.827366  2.268176  0.644  0.625806  0.671419  0.674759  2.378593  0.5
Cu  Cu1  1  0.21292236  0.76916822  0.01257349  1  0.736108  -0.640484  1.937484  -0.436  0.717326  -0.73767  2.335891  -0.555  0.802239  -0.827379  2.268552  -0.644  0.625727  0.671324  -0.674767  2.378981  -0.5
Cu  Cu2  1  0.71292259  0.73083042  0.48742394  1  0.736113  -0.640435  1.937331  -0.436  0.717398  -0.737688  2.335773  -0.555  0.802314  -0.827387  2.268439  -0.644  0.625734  0.671383  -0.674774  2.378862  -0.5
Cu  Cu3  1  0.78707186  0.23082274  0.98742635  1  0.736161  0.640437  1.937143  0.436  0.71739  0.737676  2.335673  0.555  0.802312  0.827376  2.268326  0.644  0.625754  0.671375  0.674769  2.378744  0.5
H  H4  1  0.30633563  0.53936171  0.57439332  1  0.113571  0.000662  0.948946  0.001  0.116612  0.000382  1.017893  0.001  0.118482  0.0003  1.017024  0.001  0.122072  0.11534  0.000424  1.018593  0.001
H  H5  1  0.19366328  0.03935792  0.07438654  1  0.11369  -0.000662  0.948856  -0.001  0.116752  -0.000383  1.01775  -0.001  0.118623  -0.0003  1.01688  -0.001  0.12212  0.115478  -0.000424  1.018456  -0.001
H  H6  1  0.69366408  0.46063746  0.42561384  1  0.113543  -0.000663  0.948928  -0.001  0.116534  -0.000383  1.017916  -0.001  0.118405  -0.000301  1.017048  -0.001  0.122022  0.115261  -0.000424  1.018619  -0.001
H  H7  1  0.80633094  0.96063666  0.92561116  1  0.113551  0.000662  0.948887  0.001  0.116532  0.000382  1.017903  0.001  0.118404  0.0003  1.017033  0.001  0.122022  0.115259  0.000424  1.018605  0.001
H  H8  1  0.95738343  0.20803377  0.35059569  1  0.132825  0.000502  0.956353  -0.001  0.15481  0.000917  1.018433  0.0  0.156006  0.000612  1.01875  0.0  0.091852  0.153897  0.001131  1.018422  0.0
H  H9  1  0.54261174  0.70803158  0.85059074  1  0.13279  -0.000503  0.956404  0.001  0.154791  -0.000917  1.01846  0.0  0.155987  -0.000612  1.018777  0.0  0.09186  0.15388  -0.001131  1.018449  0.0
H  H10  1  0.04261765  0.79196720  0.64940965  1  0.132779  -0.000502  0.95641  0.001  0.15478  -0.000917  1.018472  0.0  0.155977  -0.000612  1.018788  0.0  0.09184  0.153868  -0.001131  1.018458  0.0
H  H11  1  0.45737974  0.29196480  0.14940589  1  0.132837  0.000502  0.956359  -0.001  0.154826  0.000917  1.018418  0.0  0.156022  0.000612  1.018735  0.0  0.091872  0.153914  0.001131  1.018403  0.0
H  H12  1  0.73470238  0.24990482  0.40414363  1  0.131929  -0.00035  0.986623  0.0  0.149036  -0.000181  1.051893  0.0  0.151888  -0.000165  1.050994  0.0  0.083123  0.147146  -0.000182  1.052386  0.0
H  H13  1  0.76529634  0.74990031  0.90413834  1  0.13197  0.00035  0.986537  0.0  0.149077  0.000181  1.051811  0.0  0.15193  0.000165  1.050913  0.0  0.083163  0.147187  0.000182  1.052304  0.0
H  H14  1  0.26529733  0.75009615  0.59586171  1  0.131936  0.00035  0.986529  0.0  0.14903  0.000181  1.051824  0.0  0.151883  0.000165  1.050924  0.0  0.083112  0.147138  0.000182  1.052317  0.0
H  H15  1  0.23470062  0.25009425  0.09585632  1  0.131978  -0.00035  0.986574  0.0  0.149062  -0.000181  1.051866  0.0  0.151916  -0.000165  1.05097  0.0  0.083121  0.147168  -0.000182  1.052362  0.0
H  H16  1  0.90910630  0.20556230  0.48275450  1  0.11961  -0.000792  0.982457  0.0  0.134052  -0.000438  1.055938  0.0  0.135076  -0.000475  1.056269  0.0  0.08373  0.133146  -0.000386  1.056031  0.0
H  H17  1  0.59088943  0.70555838  0.98274858  1  0.119551  0.000792  0.982493  0.0  0.134005  0.000438  1.055965  0.0  0.135027  0.000475  1.056295  0.0  0.083718  0.133099  0.000386  1.056058  0.0
H  H18  1  0.09089340  0.79443594  0.51725017  1  0.119544  0.000792  0.982455  0.0  0.134006  0.000438  1.055937  0.0  0.135029  0.000475  1.056268  0.0  0.083721  0.133103  0.000386  1.056028  0.0
H  H19  1  0.40910342  0.29443437  0.01724716  1  0.119566  -0.000792  0.982393  0.0  0.133993  -0.000438  1.05591  0.0  0.135017  -0.000475  1.056241  0.0  0.083699  0.133087  -0.000386  1.056002  0.0
H  H20  1  0.59184463  0.18979748  0.62493228  1  0.105759  0.001226  0.961596  0.001  0.111091  0.001105  1.028534  0.001  0.113008  0.000853  1.027689  0.001  0.118645  0.109803  0.001261  1.029284  0.001
H  H21  1  0.90814584  0.68978648  0.12493373  1  0.105787  -0.001226  0.961552  -0.001  0.111093  -0.001105  1.028526  -0.001  0.113009  -0.000853  1.027688  -0.001  0.11862  0.109806  -0.001262  1.029265  -0.001
H  H22  1  0.40814135  0.81021885  0.37506318  1  0.105745  -0.001227  0.961574  -0.001  0.111028  -0.001105  1.028559  -0.001  0.112946  -0.000853  1.027719  -0.001  0.118578  0.109732  -0.001262  1.029325  -0.001
H  H23  1  0.09185250  0.31020269  0.87507022  1  0.105814  0.001227  0.961438  0.001  0.111122  0.001106  1.028416  0.001  0.113037  0.000854  1.027575  0.001  0.118645  0.10984  0.001262  1.02915  0.001
H  H24  1  0.07360658  0.01920913  0.40400616  1  0.123027  -0.000744  0.948771  -0.001  0.144029  -0.000334  1.012854  0.0  0.144685  -0.000355  1.013323  0.0  0.093238  0.143445  -0.000305  1.012744  0.0
H  H25  1  0.42639030  0.51919407  0.90400961  1  0.122976  0.000743  0.948874  0.001  0.144011  0.000334  1.012948  0.0  0.144667  0.000355  1.013418  0.0  0.093256  0.143418  0.000305  1.012846  0.0
H  H26  1  0.92638764  0.98080538  0.59598886  1  0.122925  0.000743  0.948932  0.001  0.143974  0.000334  1.013008  0.0  0.14463  0.000355  1.013477  0.0  0.093235  0.143378  0.000305  1.01291  0.0
H  H27  1  0.57361216  0.48079686  0.09598568  1  0.123  -0.000743  0.948861  -0.001  0.144008  -0.000335  1.012973  0.0  0.144663  -0.000355  1.013443  0.0  0.093274  0.143417  -0.000305  1.012867  0.0
H  H28  1  0.19273326  0.91364883  0.29964341  1  0.13226  -0.000493  0.978472  0.0  0.148802  -0.000559  1.043266  0.0  0.151474  -0.000445  1.042469  0.0  0.085286  0.147087  -0.000628  1.043613  0.0
H  H29  1  0.30725678  0.41363034  0.79965160  1  0.132243  0.000494  0.978412  0.0  0.148796  0.000559  1.043231  0.0  0.151472  0.000445  1.042426  0.0  0.085329  0.147081  0.000629  1.043578  0.0
H  H30  1  0.80726095  0.08637200  0.70034785  1  0.132224  0.000494  0.978419  0.0  0.148766  0.000559  1.043253  0.0  0.151441  0.000445  1.042449  0.0  0.085322  0.147049  0.000629  1.043598  0.0
H  H31  1  0.69273332  0.58635973  0.20035106  1  0.132251  -0.000494  0.978405  0.0  0.148758  -0.000559  1.043263  0.0  0.151431  -0.000445  1.042464  0.0  0.085296  0.147038  -0.000629  1.043609  0.0
H  H32  1  0.22191115  0.07401897  0.32054322  1  0.129877  -0.000702  0.973109  -0.001  0.146765  -0.00037  1.041012  0.0  0.148543  -0.000393  1.040309  0.0  0.086819  0.145403  -0.000331  1.041731  0.0
H  H33  1  0.27807355  0.57399913  0.82054938  1  0.129723  0.000702  0.973145  0.001  0.146648  0.00037  1.04104  0.0  0.148421  0.000393  1.040338  0.0  0.0868  0.145286  0.000331  1.041754  0.0
H  H34  1  0.77807484  0.92600279  0.67945130  1  0.129675  0.000702  0.973069  0.001  0.146614  0.00037  1.040963  0.0  0.148388  0.000393  1.040263  0.0  0.086799  0.145254  0.000331  1.041674  0.0
H  H35  1  0.72190969  0.42598913  0.17945283  1  0.129779  -0.000701  0.97311  -0.001  0.146669  -0.00037  1.041033  0.0  0.148446  -0.000393  1.04033  0.0  0.086782  0.145304  -0.000331  1.04175  0.0
H  H36  1  0.90459544  0.42270545  0.70611334  1  0.156207  -0.000187  0.952846  0.0  0.171491  -4.8e-05  1.016482  0.0  0.174598  -5.8e-05  1.015231  0.0  0.100036  0.16938  -3.8e-05  1.017288  0.0
H  H37  1  0.59543065  0.92269372  0.20608517  1  0.15636  0.000187  0.952834  0.0  0.171707  4.8e-05  1.016413  0.0  0.17481  5.8e-05  1.015163  0.0  0.100118  0.169594  3.8e-05  1.017222  0.0
H  H38  1  0.09541937  0.57729835  0.29391013  1  0.156385  0.000187  0.952657  0.0  0.171703  4.8e-05  1.016308  0.0  0.174803  5.8e-05  1.015064  0.0  0.100139  0.16959  3.8e-05  1.017121  0.0
H  H39  1  0.40457866  0.07729346  0.79389025  1  0.156297  -0.000186  0.952892  0.0  0.171553  -4.8e-05  1.016575  0.0  0.174655  -5.8e-05  1.015329  0.0  0.100081  0.169447  -3.8e-05  1.017379  0.0
H  H40  1  0.75179910  0.48528599  0.81317939  1  0.152802  -0.000122  0.926236  0.0  0.174507  -6.5e-05  0.978228  0.0  0.176558  -6.7e-05  0.978095  0.0  0.108531  0.17311  -6.2e-05  0.978273  0.0
H  H41  1  0.74821487  0.98527187  0.31316041  1  0.153005  0.000122  0.926011  0.0  0.174662  6.6e-05  0.978099  0.0  0.176716  6.7e-05  0.977964  0.0  0.108609  0.173268  6.2e-05  0.978143  0.0
H  H42  1  0.24820747  0.51471957  0.18683541  1  0.153011  0.000122  0.926016  0.0  0.174736  6.6e-05  0.978021  0.0  0.176791  6.7e-05  0.977883  0.0  0.108645  0.173338  6.2e-05  0.978064  0.0
H  H43  1  0.25178347  0.01471628  0.68682434  1  0.152774  -0.000122  0.926326  0.0  0.174545  -6.6e-05  0.978255  0.0  0.176594  -6.7e-05  0.978123  0.0  0.108554  0.173149  -6.2e-05  0.978297  0.0
H  H44  1  0.81317920  0.57452889  0.72619274  1  0.158541  -0.000127  0.943115  0.0  0.173513  -0.000236  1.005757  0.0  0.176731  -0.000169  1.00416  0.0  0.104068  0.17137  -0.000283  1.00672  0.0
H  H45  1  0.68684152  0.07451868  0.22617525  1  0.15854  0.000127  0.943178  0.0  0.173545  0.000236  1.005783  0.0  0.176764  0.000169  1.004186  0.0  0.10406  0.171403  0.000283  1.006749  0.0
H  H46  1  0.18684247  0.42547486  0.27382313  1  0.158673  0.000127  0.943011  0.0  0.173653  0.000236  1.005649  0.0  0.176872  0.000169  1.00405  0.0  0.104104  0.171508  0.000283  1.006613  0.0
H  H47  1  0.31315956  0.92547491  0.77380932  1  0.158546  -0.000127  0.943173  0.0  0.173543  -0.000236  1.005804  0.0  0.176761  -0.000169  1.004204  0.0  0.104064  0.1714  -0.000283  1.006769  0.0
C  C48  1  0.94442441  0.38135901  0.46359807  1  0.278763  -0.017371  3.682409  -0.018  0.287646  -0.004632  3.92911  -0.006  0.294316  -0.005748  3.948791  -0.007  0.130778  0.283304  -0.003644  3.915972  -0.005
C  C49  1  0.55557113  0.88135503  0.96359197  1  0.278873  0.017363  3.682382  0.018  0.287743  0.004632  3.929066  0.006  0.294409  0.005748  3.948745  0.007  0.130766  0.283404  0.003643  3.91593  0.005
C  C50  1  0.05557255  0.61864288  0.53641129  1  0.278903  0.017368  3.682257  0.018  0.287826  0.004632  3.928866  0.006  0.294499  0.005748  3.948539  0.007  0.130753  0.283483  0.003644  3.915733  0.005
C  C51  1  0.44442309  0.11863954  0.03640497  1  0.278862  -0.017367  3.682263  -0.018  0.28773  -0.004633  3.928986  -0.006  0.294403  -0.005749  3.948665  -0.007  0.130832  0.283387  -0.003645  3.91585  -0.005
C  C52  1  0.16847444  0.52183065  0.54153616  1  0.043118  -0.019313  3.601029  -0.02  0.011285  -0.005938  3.851761  -0.007  0.015247  -0.00696  3.869332  -0.009  0.059568  0.008738  -0.004992  3.840355  -0.006
C  C53  1  0.33152123  0.02182438  0.04152937  1  0.043055  0.019308  3.601123  0.02  0.011216  0.005939  3.85188  0.007  0.015172  0.006961  3.869446  0.009  0.059523  0.008668  0.004992  3.840477  0.006
C  C54  1  0.83152664  0.47817125  0.45847472  1  0.043327  0.019311  3.601164  0.02  0.011591  0.005937  3.851825  0.007  0.015557  0.00696  3.869385  0.009  0.059684  0.009042  0.004991  3.840416  0.006
C  C55  1  0.66847298  0.97816566  0.95846873  1  0.043293  -0.019306  3.600935  -0.02  0.011577  -0.005937  3.851589  -0.007  0.015546  -0.00696  3.869145  -0.009  0.059678  0.009026  -0.004991  3.840182  -0.006
C  C56  1  0.88139233  0.25348595  0.42324212  1  -0.404195  0.001834  3.720621  0.003  -0.491508  0.00153  3.959758  0.002  -0.496276  0.001011  3.967898  0.002  -0.254571  -0.48806  0.001898  3.954338  0.002
C  C57  1  0.61860667  0.75348027  0.92323741  1  -0.404238  -0.001832  3.720618  -0.003  -0.491553  -0.001531  3.959746  -0.002  -0.496322  -0.001011  3.967888  -0.002  -0.254635  -0.488104  -0.001899  3.954312  -0.002
C  C58  1  0.11861012  0.74651503  0.57676549  1  -0.404126  -0.001833  3.720504  -0.003  -0.491476  -0.001531  3.959638  -0.002  -0.496246  -0.001012  3.967778  -0.002  -0.254531  -0.488031  -0.001899  3.954218  -0.002
C  C59  1  0.38138755  0.24651249  0.07676060  1  -0.404219  0.001833  3.720456  0.003  -0.491493  0.00153  3.959587  0.002  -0.496266  0.001011  3.967728  0.002  -0.254575  -0.488046  0.001898  3.954167  0.002
C  C60  1  0.55178698  0.10477489  0.56798266  1  0.042029  -0.018572  3.613537  -0.019  0.008007  -0.005432  3.864968  -0.007  0.012251  -0.006594  3.881769  -0.008  0.056504  0.005188  -0.00437  3.854163  -0.006
C  C61  1  0.94821359  0.60475761  0.06798350  1  0.042082  0.018562  3.613659  0.019  0.008144  0.005432  3.865049  0.007  0.012379  0.006594  3.881828  0.008  0.056643  0.005334  0.004371  3.854254  0.006
C  C62  1  0.44821410  0.89524507  0.43201369  1  0.04215  0.018578  3.613341  0.019  0.008228  0.005434  3.864753  0.007  0.012467  0.006597  3.881539  0.008  0.056655  0.005413  0.004373  3.853957  0.006
C  C63  1  0.05178886  0.39523158  0.93202349  1  0.041948  -0.018557  3.613727  -0.019  0.007951  -0.005429  3.865209  -0.007  0.012186  -0.006591  3.882021  -0.008  0.056526  0.005138  -0.004368  3.854408  -0.006
C  C64  1  0.35822068  0.00297037  0.43242795  1  0.277687  -0.016696  3.680777  -0.017  0.288408  -0.004538  3.925647  -0.006  0.295104  -0.005638  3.944767  -0.007  0.130602  0.284027  -0.00357  3.912976  -0.005
C  C65  1  0.14177661  0.50294667  0.93243559  1  0.277839  0.016685  3.680289  0.017  0.288569  0.004537  3.925328  0.006  0.295249  0.005636  3.944447  0.007  0.130514  0.284198  0.003569  3.912656  0.005
C  C66  1  0.64177354  0.99705409  0.56756345  1  0.277794  0.016691  3.680346  0.017  0.288526  0.004537  3.925375  0.006  0.295209  0.005635  3.944497  0.007  0.130526  0.284156  0.003568  3.912701  0.005
C  C67  1  0.85822447  0.49703616  0.06756984  1  0.277592  -0.016687  3.680876  -0.017  0.288321  -0.004539  3.925806  -0.006  0.295014  -0.005638  3.944922  -0.007  0.13046  0.283944  -0.00357  3.913133  -0.005
C  C68  1  0.20294576  0.00196818  0.35922897  1  -0.397624  0.000193  3.724163  0.001  -0.484347  -0.000337  3.960785  0.0  -0.488507  -0.000322  3.968581  0.001  -0.250855  -0.481325  -0.000344  3.955538  0.0
C  C69  1  0.29705046  0.50194929  0.85923696  1  -0.397372  -0.000191  3.723925  -0.001  -0.484188  0.000337  3.960644  0.0  -0.488339  0.000322  3.968445  -0.001  -0.250833  -0.481168  0.000345  3.955409  0.0
C  C70  1  0.79704846  0.99805356  0.64076100  1  -0.397254  -0.000192  3.723981  -0.001  -0.484097  0.000336  3.960694  0.0  -0.488251  0.000322  3.968492  -0.001  -0.250816  -0.481072  0.000345  3.955455  0.0
C  C71  1  0.70294651  0.49803897  0.14076525  1  -0.397447  0.000192  3.724099  0.001  -0.484148  -0.000337  3.960713  0.0  -0.488306  -0.000322  3.968513  0.001  -0.250827  -0.481124  -0.000345  3.95547  0.0
C  C72  1  0.63025528  0.43177627  0.66498719  1  0.438984  -0.001236  3.670885  -0.002  0.436972  -0.000694  3.946617  -0.001  0.456415  -0.000687  3.957849  -0.001  0.217041  0.424687  -0.000682  3.938719  -0.001
C  C73  1  0.86975785  0.93177149  0.16497786  1  0.438974  0.00124  3.67034  0.002  0.436994  0.000698  3.946108  0.001  0.456451  0.000688  3.957325  0.001  0.216886  0.424702  0.000684  3.938213  0.001
C  C74  1  0.36975266  0.56822560  0.33501761  1  0.438959  0.001241  3.670227  0.002  0.436994  0.000698  3.945988  0.001  0.456448  0.000689  3.957214  0.001  0.216867  0.424701  0.000684  3.938088  0.001
C  C75  1  0.13024323  0.06822759  0.83501488  1  0.438994  -0.001233  3.670453  -0.002  0.437024  -0.000697  3.94619  -0.001  0.456466  -0.000685  3.95742  -0.001  0.217007  0.424738  -0.000682  3.938296  -0.001
C  C76  1  0.78461338  0.48249159  0.73126949  1  -0.379305  1.5e-05  3.719644  0.0  -0.446676  -1.8e-05  3.938233  0.0  -0.451741  -3.1e-05  3.93995  0.0  -0.21708  -0.443047  -6e-06  3.936598  0.0
C  C77  1  0.71539664  0.98247829  0.23124525  1  -0.379654  -1.5e-05  3.719922  0.0  -0.447135  1.7e-05  3.93866  0.0  -0.4522  3.2e-05  3.94038  0.0  -0.217215  -0.443506  6e-06  3.937033  0.0
C  C78  1  0.21540142  0.51751400  0.26875139  1  -0.379833  -1.5e-05  3.719724  0.0  -0.447342  1.7e-05  3.938518  0.0  -0.452408  3.1e-05  3.940237  0.0  -0.217352  -0.443707  6e-06  3.93689  0.0
C  C79  1  0.28460582  0.01750800  0.76873070  1  -0.379399  1.4e-05  3.719659  0.0  -0.446883  -1.7e-05  3.938366  0.0  -0.451941  -3.1e-05  3.94008  0.0  -0.217168  -0.44326  -6e-06  3.936735  0.0
N  N80  1  0.11401736  0.40596622  0.50603476  1  -0.283435  0.085617  3.316794  0.103  -0.234486  0.059085  3.592268  0.076  -0.26023  0.05174  3.614954  0.07  -0.32302  -0.219885  0.061516  3.579153  0.077
N  N81  1  0.38598073  0.90596512  0.00602944  1  -0.28348  -0.085614  3.316973  -0.103  -0.23447  -0.059092  3.592333  -0.076  -0.260196  -0.051743  3.615014  -0.07  -0.323015  -0.219873  -0.061523  3.579221  -0.077
N  N82  1  0.88598098  0.59403385  0.49397263  1  -0.283627  -0.085623  3.316916  -0.103  -0.234645  -0.059094  3.592266  -0.076  -0.260383  -0.051744  3.614949  -0.07  -0.323071  -0.220042  -0.061526  3.579151  -0.077
N  N83  1  0.61401624  0.09403309  0.99396991  1  -0.283621  0.085617  3.31685  0.103  -0.234666  0.05909  3.592308  0.076  -0.260411  0.051743  3.614999  0.07  -0.323088  -0.22006  0.06152  3.579191  0.077
N  N84  1  0.41385692  0.10816416  0.50182226  1  -0.281109  0.083561  3.317681  0.101  -0.232867  0.058063  3.594479  0.075  -0.258008  0.051041  3.615895  0.069  -0.323138  -0.21867  0.060295  3.582252  0.076
N  N85  1  0.08613272  0.60815354  0.00183071  1  -0.281225  -0.083547  3.317226  -0.101  -0.233113  -0.058061  3.594166  -0.075  -0.258213  -0.051038  3.615557  -0.069  -0.323237  -0.218952  -0.060293  3.58197  -0.076
N  N86  1  0.58613318  0.89184941  0.49816798  1  -0.28121  -0.083553  3.317207  -0.101  -0.233094  -0.05806  3.594136  -0.075  -0.258208  -0.051037  3.615532  -0.069  -0.323203  -0.218927  -0.060292  3.581935  -0.076
N  N87  1  0.91386562  0.39183746  0.99817597  1  -0.280993  0.083549  3.317629  0.101  -0.232805  0.058061  3.594481  0.075  -0.25793  0.051038  3.615886  0.069  -0.32305  -0.218624  0.060294  3.582261  0.076
N  N88  1  0.50675233  0.38913427  0.61115801  1  -0.479867  -5.3e-05  2.814142  0.001  -0.46083  -0.000271  3.088412  0.001  -0.481977  -0.000378  3.093195  0.0  -0.33235  -0.448623  -0.000134  3.086112  0.001
N  N89  1  0.99328470  0.88912334  0.11114469  1  -0.479854  5e-05  2.813627  -0.001  -0.460817  0.000269  3.087887  -0.001  -0.481968  0.000378  3.092678  0.0  -0.332197  -0.44861  0.000134  3.085592  -0.001
N  N90  1  0.49328306  0.61087851  0.38885174  1  -0.479806  4.9e-05  2.813393  -0.001  -0.460771  0.000269  3.08764  -0.001  -0.481924  0.000377  3.092425  0.0  -0.33215  -0.448559  0.000133  3.085341  -0.001
N  N91  1  0.00673971  0.11087029  0.88884595  1  -0.479837  -5.6e-05  2.814014  0.001  -0.460791  -0.000269  3.088257  0.001  -0.481937  -0.00038  3.093038  0.0  -0.332272  -0.448584  -0.000134  3.085959  0.001
Cl  Cl92  1  0.40402922  0.27058433  0.35015454  1  -0.521342  0.133165  0.893316  0.147  -0.510783  0.087772  1.149123  0.104  -0.541865  0.070199  1.131816  0.086  -0.300189  -0.492396  0.095698  1.161508  0.111
Cl  Cl93  1  0.09596973  0.77056955  0.85015052  1  -0.521297  -0.13316  0.893379  -0.147  -0.510733  -0.087769  1.149161  -0.104  -0.541827  -0.070194  1.131888  -0.086  -0.300161  -0.492345  -0.095692  1.161537  -0.111
Cl  Cl94  1  0.59597735  0.72942931  0.64984633  1  -0.521251  -0.133165  0.893309  -0.147  -0.510714  -0.087767  1.149108  -0.104  -0.54181  -0.070193  1.131837  -0.086  -0.300172  -0.492325  -0.095692  1.161483  -0.111
Cl  Cl95  1  0.90402312  0.22941960  0.14985039  1  -0.521327  0.133166  0.893332  0.147  -0.510761  0.08777  1.149118  0.104  -0.541858  0.070197  1.131842  0.086  -0.300186  -0.492372  0.095696  1.1615  0.111
Cl  Cl96  1  0.11722301  0.23758650  0.65047791  1  -0.526444  0.130409  0.899617  0.144  -0.513083  0.08727  1.15794  0.103  -0.544263  0.069975  1.141052  0.086  -0.29645  -0.494586  0.095295  1.17008  0.11
Cl  Cl97  1  0.38278123  0.73758269  0.15047570  1  -0.526451  -0.130399  0.899697  -0.144  -0.51309  -0.087265  1.157973  -0.103  -0.544267  -0.069967  1.141092  -0.086  -0.296474  -0.494594  -0.095289  1.170113  -0.11
Cl  Cl98  1  0.88278082  0.76241628  0.34952711  1  -0.526452  -0.130396  0.899673  -0.144  -0.513103  -0.087259  1.157979  -0.103  -0.544274  -0.069964  1.141091  -0.086  -0.296481  -0.494604  -0.095282  1.170118  -0.11
Cl  Cl99  1  0.61722122  0.26241553  0.84952517  1  -0.526431  0.130407  0.899626  0.144  -0.513066  0.087266  1.157937  0.103  -0.544249  0.069971  1.141059  0.086  -0.296453  -0.494569  0.09529  1.170078  0.11
