# generated using pymatgen
data_UH8C10NO7
_symmetry_space_group_name_H-M   'P 1'
_cell_length_a   10.08349118
_cell_length_b   10.48381401
_cell_length_c   12.13193417
_cell_angle_alpha   104.71309972
_cell_angle_beta   90.00048448
_cell_angle_gamma   89.99983018
_symmetry_Int_Tables_number   1
_chemical_formula_structural   UH8C10NO7
_chemical_formula_sum   'U4 H32 C40 N4 O28'
_cell_volume   1240.45474193
_cell_formula_units_Z   4
loop_
 _symmetry_equiv_pos_site_id
 _symmetry_equiv_pos_as_xyz
  1  'x, y, z'
loop_
 _atom_site_type_symbol
 _atom_site_label
 _atom_site_symmetry_multiplicity
 _atom_site_fract_x
 _atom_site_fract_y
 _atom_site_fract_z
 _atom_site_occupancy
 _atom_site_hle17_bader_spin_density
 _atom_site_hle17_ddec_charge
 _atom_site_hle17_ddec_spin_density
 _atom_site_hle17_ddec_sum_bond_order
 _atom_site_hle17_magmom
 _atom_site_hse06_10hf_bader_spin_density
 _atom_site_hse06_10hf_ddec_charge
 _atom_site_hse06_10hf_ddec_spin_density
 _atom_site_hse06_10hf_ddec_sum_bond_order
 _atom_site_hse06_10hf_magmom
 _atom_site_hse06_bader_spin_density
 _atom_site_hse06_ddec_charge
 _atom_site_hse06_ddec_spin_density
 _atom_site_hse06_ddec_sum_bond_order
 _atom_site_hse06_magmom
 _atom_site_pbe_bader_spin_density
 _atom_site_pbe_cm5_charge
 _atom_site_pbe_ddec_charge
 _atom_site_pbe_ddec_spin_density
 _atom_site_pbe_ddec_sum_bond_order
 _atom_site_pbe_magmom
U  U0  1  0.53035694  0.26115273  0.84194436  1  0  2.492666  0  4.132059  0  0  2.554132  0  4.786878  0  0  2.66387  0  4.750589  0  0  2.201338  2.47678  0  4.813321  0
U  U1  1  0.03036154  0.23885018  0.65804980  1  0  2.492913  0  4.131811  0  0  2.554296  0  4.786716  0  0  2.664052  0  4.750388  0  0  2.201355  2.476772  0  4.813427  0
U  U2  1  0.46963165  0.73883353  0.15805905  1  0  2.492783  0  4.132138  0  0  2.554181  0  4.787034  0  0  2.663985  0  4.750614  0  0  2.20136  2.476801  0  4.813513  0
U  U3  1  0.96964589  0.76115156  0.34194351  1  0  2.492918  0  4.131647  0  0  2.554357  0  4.786486  0  0  2.664126  0  4.75013  0  0  2.201342  2.47694  0  4.813035  0
H  H4  1  0.45647056  0.27373023  0.60220212  1  0  0.393655  0  0.924956  0  0  0.35585  0  0.999373  0  0  0.369492  0  0.980343  0  0  0.293764  0.346233  0  1.012741  0
H  H5  1  0.95646763  0.22628028  0.89779531  1  0  0.393614  0  0.925043  0  0  0.355856  0  0.999381  0  0  0.369498  0  0.98035  0  0  0.293772  0.346238  0  1.01275  0
H  H6  1  0.54353290  0.72626732  0.39779508  1  0  0.393615  0  0.925021  0  0  0.355845  0  0.999384  0  0  0.369484  0  0.980361  0  0  0.293764  0.346228  0  1.012752  0
H  H7  1  0.04353583  0.77373287  0.10220916  1  0  0.39368  0  0.924937  0  0  0.355877  0  0.999355  0  0  0.369516  0  0.980331  0  0  0.293769  0.34626  0  1.012723  0
H  H8  1  0.34447899  0.18685174  0.65268167  1  0  0.439813  0  0.848848  0  0  0.420035  0  0.894962  0  0  0.431561  0  0.878102  0  0  0.314204  0.411867  0  0.906941  0
H  H9  1  0.84447230  0.31316261  0.84732007  1  0  0.439742  0  0.848924  0  0  0.419947  0  0.895073  0  0  0.431474  0  0.878213  0  0  0.314142  0.411778  0  0.907054  0
H  H10  1  0.65552447  0.81315772  0.34731690  1  0  0.439791  0  0.848863  0  0  0.420006  0  0.89499  0  0  0.431533  0  0.878131  0  0  0.314173  0.411838  0  0.906972  0
H  H11  1  0.15552423  0.68684365  0.15268264  1  0  0.43981  0  0.84884  0  0  0.420022  0  0.894974  0  0  0.43155  0  0.878113  0  0  0.314192  0.411854  0  0.906954  0
H  H12  1  0.94914561  0.67428868  0.61731671  1  0  0.105884  0  0.956558  0  0  0.114573  0  1.019491  0  0  0.11759  0  1.017715  0  0  0.114046  0.112086  0  1.02163  0
H  H13  1  0.44913539  0.82571364  0.88267943  1  0  0.105754  0  0.95671  0  0  0.114448  0  1.019657  0  0  0.117462  0  1.017886  0  0  0.114018  0.111967  0  1.021791  0
H  H14  1  0.05086678  0.32570982  0.38268155  1  0  0.105816  0  0.956728  0  0  0.114536  0  1.019635  0  0  0.117551  0  1.017862  0  0  0.114058  0.112053  0  1.021773  0
H  H15  1  0.55085815  0.17427997  0.11731677  1  0  0.105809  0  0.956642  0  0  0.114508  0  1.01957  0  0  0.117522  0  1.017797  0  0  0.114008  0.112027  0  1.021706  0
H  H16  1  0.88572602  0.54361828  0.75350050  1  0  0.109187  0  0.964727  0  0  0.116948  0  1.025966  0  0  0.119906  0  1.024383  0  0  0.11331  0.115045  0  1.026871  0
H  H17  1  0.38572094  0.95638824  0.74649214  1  0  0.10926  0  0.964725  0  0  0.117056  0  1.025897  0  0  0.120025  0  1.02431  0  0  0.113332  0.115151  0  1.026802  0
H  H18  1  0.11428538  0.45637865  0.24648912  1  0  0.109267  0  0.964733  0  0  0.117047  0  1.025931  0  0  0.120006  0  1.024345  0  0  0.113323  0.115143  0  1.026837  0
H  H19  1  0.61428352  0.04360792  0.25351296  1  0  0.109259  0  0.96478  0  0  0.117108  0  1.025859  0  0  0.120082  0  1.024269  0  0  0.113326  0.115202  0  1.026766  0
H  H20  1  0.74737187  0.64727604  0.92354653  1  0  0.110974  0  0.921075  0  0  0.122314  0  0.974519  0  0  0.125563  0  0.972456  0  0  0.121417  0.120066  0  0.975937  0
H  H21  1  0.24736041  0.85273516  0.57645376  1  0  0.111038  0  0.920924  0  0  0.12235  0  0.974411  0  0  0.125594  0  0.972351  0  0  0.121416  0.1201  0  0.975832  0
H  H22  1  0.25264746  0.35271182  0.07644491  1  0  0.111038  0  0.92088  0  0  0.122298  0  0.974425  0  0  0.125542  0  0.972368  0  0  0.121412  0.12005  0  0.975841  0
H  H23  1  0.75264504  0.14727693  0.42355208  1  0  0.11102  0  0.920911  0  0  0.122321  0  0.974421  0  0  0.125565  0  0.972362  0  0  0.121425  0.120071  0  0.975842  0
H  H24  1  0.66617160  0.87631793  0.95009700  1  0  0.112312  0  0.956192  0  0  0.122402  0  1.016636  0  0  0.125894  0  1.013977  0  0  0.112283  0.12002  0  1.018679  0
H  H25  1  0.16617248  0.62368791  0.54989146  1  0  0.112228  0  0.956405  0  0  0.122345  0  1.016805  0  0  0.125838  0  1.014146  0  0  0.112332  0.119964  0  1.018846  0
H  H26  1  0.33382393  0.12366653  0.04990265  1  0  0.112259  0  0.956198  0  0  0.12236  0  1.016643  0  0  0.125851  0  1.013984  0  0  0.11228  0.119977  0  1.018686  0
H  H27  1  0.83383793  0.37631723  0.45009364  1  0  0.11229  0  0.956321  0  0  0.122384  0  1.016764  0  0  0.125878  0  1.0141  0  0  0.112277  0.12  0  1.018806  0
H  H28  1  0.62092553  0.47766848  0.66792341  1  0  0.100955  0  0.943542  0  0  0.10705  0  1.008958  0  0  0.108958  0  1.008637  0  0  0.129843  0.105727  0  1.009248  0
H  H29  1  0.12093259  0.02234154  0.83208722  1  0  0.10093  0  0.943612  0  0  0.107047  0  1.008969  0  0  0.108958  0  1.008643  0  0  0.129817  0.105707  0  1.009278  0
H  H30  1  0.37907992  0.52233667  0.33208150  1  0  0.100986  0  0.943562  0  0  0.107035  0  1.008971  0  0  0.108942  0  1.008655  0  0  0.129835  0.105697  0  1.009277  0
H  H31  1  0.87906294  0.97766767  0.16791624  1  0  0.100995  0  0.943544  0  0  0.107055  0  1.008991  0  0  0.108963  0  1.00867  0  0  0.129828  0.105692  0  1.009323  0
H  H32  1  0.36095891  0.31574304  0.40349364  1  0  0.092215  0  0.942857  0  0  0.100615  0  1.003305  0  0  0.102242  0  1.003785  0  0  0.122901  0.099452  0  1.003016  0
H  H33  1  0.86095698  0.18425654  0.09650522  1  0  0.092251  0  0.942827  0  0  0.100611  0  1.003282  0  0  0.102237  0  1.003765  0  0  0.122907  0.099449  0  1.002992  0
H  H34  1  0.63905448  0.68426092  0.59651509  1  0  0.092271  0  0.942882  0  0  0.100657  0  1.003299  0  0  0.102284  0  1.003779  0  0  0.122907  0.099494  0  1.00301  0
H  H35  1  0.13906235  0.81575555  0.90350062  1  0  0.092239  0  0.942961  0  0  0.100647  0  1.003384  0  0  0.102274  0  1.003864  0  0  0.12289  0.099483  0  1.003095  0
C  C36  1  0.68841648  0.03182673  0.81190417  1  0  0.638075  0  3.889316  0  0  0.599056  0  4.196814  0  0  0.636318  0  4.18833  0  0  0.205067  0.57359  0  4.201583  0
C  C37  1  0.18841771  0.46818113  0.68808906  1  0  0.637981  0  3.889249  0  0  0.598998  0  4.19668  0  0  0.636283  0  4.188155  0  0  0.204979  0.573512  0  4.201429  0
C  C38  1  0.31157806  0.96816778  0.18809391  1  0  0.638051  0  3.88949  0  0  0.599123  0  4.196852  0  0  0.636381  0  4.188379  0  0  0.205019  0.573653  0  4.201588  0
C  C39  1  0.81157782  0.53182754  0.31190519  1  0  0.63811  0  3.889282  0  0  0.59916  0  4.196685  0  0  0.636426  0  4.188192  0  0  0.205062  0.5737  0  4.201449  0
C  C40  1  0.75915147  0.90392941  0.79803421  1  0  -0.054169  0  3.72283  0  0  -0.036996  0  3.949497  0  0  -0.040645  0  3.969819  0  0  -0.005709  -0.034742  0  3.936211  0
C  C41  1  0.25914904  0.59607906  0.70196052  1  0  -0.054595  0  3.72291  0  0  -0.037431  0  3.949653  0  0  -0.04109  0  3.969974  0  0  -0.005858  -0.035101  0  3.93626  0
C  C42  1  0.24084406  0.09606560  0.20197390  1  0  -0.054196  0  3.723159  0  0  -0.037022  0  3.949774  0  0  -0.040673  0  3.970102  0  0  -0.005628  -0.034698  0  3.936376  0
C  C43  1  0.74084947  0.40392275  0.29803116  1  0  -0.054208  0  3.722772  0  0  -0.03705  0  3.949433  0  0  -0.040697  0  3.969754  0  0  -0.005754  -0.03481  0  3.936155  0
C  C44  1  0.84269952  0.84782642  0.70470090  1  0  -0.098456  0  3.722544  0  0  -0.086061  0  3.949198  0  0  -0.094443  0  3.97006  0  0  -0.008289  -0.080076  0  3.934825  0
C  C45  1  0.34269390  0.65217575  0.79529941  1  0  -0.098289  0  3.722335  0  0  -0.085893  0  3.949015  0  0  -0.094271  0  3.969873  0  0  -0.008271  -0.079932  0  3.934628  0
C  C46  1  0.15729700  0.15216466  0.29530621  1  0  -0.098621  0  3.722667  0  0  -0.086194  0  3.949345  0  0  -0.094579  0  3.970207  0  0  -0.008347  -0.080233  0  3.934962  0
C  C47  1  0.65730559  0.34781901  0.20469378  1  0  -0.098594  0  3.722642  0  0  -0.086207  0  3.949265  0  0  -0.094594  0  3.970124  0  0  -0.008332  -0.080216  0  3.934894  0
C  C48  1  0.89839995  0.92524250  0.62777393  1  0  0.736142  0  3.794683  0  0  0.709495  0  4.073146  0  0  0.752705  0  4.055589  0  0  0.26418  0.679591  0  4.084173  0
C  C49  1  0.39840330  0.57475576  0.87222413  1  0  0.736155  0  3.794635  0  0  0.709456  0  4.073192  0  0  0.752665  0  4.055636  0  0  0.264156  0.679551  0  4.08423  0
C  C50  1  0.10159062  0.07474963  0.37223180  1  0  0.736357  0  3.794622  0  0  0.709622  0  4.073207  0  0  0.752835  0  4.055648  0  0  0.264328  0.679715  0  4.084242  0
C  C51  1  0.60159223  0.42524183  0.12777226  1  0  0.736101  0  3.794764  0  0  0.709518  0  4.073124  0  0  0.752731  0  4.055567  0  0  0.264196  0.679616  0  4.084152  0
C  C52  1  0.88621434  0.71758110  0.68997806  1  0  -0.06007  0  3.716395  0  0  -0.086522  0  3.971297  0  0  -0.085848  0  3.991512  0  0  -0.073815  -0.087149  0  3.958267  0
C  C53  1  0.38621144  0.78242049  0.81001333  1  0  -0.06005  0  3.716114  0  0  -0.086519  0  3.97105  0  0  -0.085848  0  3.991272  0  0  -0.073851  -0.087153  0  3.958028  0
C  C54  1  0.11378813  0.28241346  0.31001920  1  0  -0.059968  0  3.716007  0  0  -0.086473  0  3.970932  0  0  -0.0858  0  3.991149  0  0  -0.073841  -0.087107  0  3.957914  0
C  C55  1  0.61378607  0.21757431  0.18997905  1  0  -0.059988  0  3.716166  0  0  -0.086471  0  3.971105  0  0  -0.085795  0  3.991327  0  0  -0.073843  -0.087106  0  3.958078  0
C  C56  1  0.85128052  0.64476910  0.76718236  1  0  -0.056789  0  3.715732  0  0  -0.072299  0  3.972072  0  0  -0.074735  0  3.992286  0  0  -0.07683  -0.070317  0  3.957707  0
C  C57  1  0.35127462  0.85523745  0.73281005  1  0  -0.056697  0  3.715704  0  0  -0.072197  0  3.971955  0  0  -0.074644  0  3.992177  0  0  -0.076705  -0.070213  0  3.957589  0
C  C58  1  0.14872394  0.35523070  0.23280964  1  0  -0.056847  0  3.715482  0  0  -0.072339  0  3.971782  0  0  -0.074772  0  3.991989  0  0  -0.076783  -0.070356  0  3.957418  0
C  C59  1  0.64871694  0.14476487  0.26719166  1  0  -0.05685  0  3.71561  0  0  -0.072369  0  3.971886  0  0  -0.074825  0  3.992115  0  0  -0.076745  -0.070383  0  3.95752  0
C  C60  1  0.77341503  0.70245343  0.86168113  1  0  -0.029737  0  3.700368  0  0  -0.050732  0  3.962526  0  0  -0.050944  0  3.981974  0  0  -0.068612  -0.050426  0  3.948919  0
C  C61  1  0.27341330  0.79755901  0.63831388  1  0  -0.029954  0  3.700328  0  0  -0.050946  0  3.962512  0  0  -0.051154  0  3.981962  0  0  -0.068733  -0.050644  0  3.948915  0
C  C62  1  0.22658844  0.29754005  0.13831751  1  0  -0.029852  0  3.700537  0  0  -0.05079  0  3.962699  0  0  -0.051001  0  3.982147  0  0  -0.068656  -0.050487  0  3.949098  0
C  C63  1  0.72658025  0.20245028  0.36168796  1  0  -0.029753  0  3.700217  0  0  -0.050757  0  3.962432  0  0  -0.050966  0  3.981885  0  0  -0.068644  -0.050453  0  3.948827  0
C  C64  1  0.72779578  0.83148022  0.87672814  1  0  -0.082087  0  3.716611  0  0  -0.109542  0  3.973716  0  0  -0.111876  0  3.995218  0  0  -0.078221  -0.108075  0  3.959808  0
C  C65  1  0.22778736  0.66853045  0.62326280  1  0  -0.081716  0  3.716254  0  0  -0.109171  0  3.973299  0  0  -0.11151  0  3.994805  0  0  -0.07809  -0.107726  0  3.959373  0
C  C66  1  0.27221066  0.16851590  0.12327777  1  0  -0.082006  0  3.716724  0  0  -0.109461  0  3.973786  0  0  -0.111795  0  3.995287  0  0  -0.078241  -0.108016  0  3.95986  0
C  C67  1  0.77220718  0.33147826  0.37673063  1  0  -0.082061  0  3.716367  0  0  -0.109507  0  3.973471  0  0  -0.111843  0  3.994971  0  0  -0.078202  -0.108032  0  3.959567  0
C  C68  1  0.56636863  0.48842480  0.59310555  1  0  0.07751  0  3.657477  0  0  0.04591  0  3.918228  0  0  0.046755  0  3.938385  0  0  0.068083  0.045413  0  3.904381  0
C  C69  1  0.06636955  0.01158745  0.90690114  1  0  0.077564  0  3.657504  0  0  0.046009  0  3.918185  0  0  0.046858  0  3.938332  0  0  0.068161  0.045523  0  3.904345  0
C  C70  1  0.43363781  0.51158627  0.40690086  1  0  0.077261  0  3.65754  0  0  0.04584  0  3.918233  0  0  0.046684  0  3.938387  0  0  0.068095  0.045357  0  3.904389  0
C  C71  1  0.93362796  0.98841975  0.09310263  1  0  0.077407  0  3.657574  0  0  0.045829  0  3.91832  0  0  0.046672  0  3.938477  0  0  0.068074  0.045364  0  3.904484  0
C  C72  1  0.42350579  0.39810266  0.44631158  1  0  0.096356  0  3.667348  0  0  0.066898  0  3.923582  0  0  0.069596  0  3.942068  0  0  0.066225  0.064962  0  3.911066  0
C  C73  1  0.92350467  0.10189646  0.05369585  1  0  0.096179  0  3.667659  0  0  0.066871  0  3.923787  0  0  0.069564  0  3.942282  0  0  0.066201  0.064939  0  3.911261  0
C  C74  1  0.57650363  0.60190544  0.55369408  1  0  0.096183  0  3.66774  0  0  0.06688  0  3.923876  0  0  0.069576  0  3.942367  0  0  0.06627  0.064944  0  3.911365  0
C  C75  1  0.07649780  0.89810455  0.94631213  1  0  0.096157  0  3.66774  0  0  0.066746  0  3.923894  0  0  0.069442  0  3.942382  0  0  0.066238  0.064812  0  3.911378  0
N  N76  1  0.48983450  0.38714319  0.53908122  1  0  -0.247721  0  3.176196  0  0  -0.186941  0  3.41589  0  0  -0.198768  0  3.432603  0  0  -0.275814  -0.178596  0  3.404399  0
N  N77  1  0.98983753  0.11286673  0.96092783  1  0  -0.247655  0  3.176231  0  0  -0.186946  0  3.41582  0  0  -0.198773  0  3.432534  0  0  -0.275804  -0.178599  0  3.404324  0
N  N78  1  0.51017293  0.61286484  0.46092606  1  0  -0.24751  0  3.176614  0  0  -0.186861  0  3.416243  0  0  -0.198686  0  3.432959  0  0  -0.275765  -0.178514  0  3.404746  0
N  N79  1  0.01016792  0.88713752  0.03907519  1  0  -0.247619  0  3.176311  0  0  -0.186862  0  3.415964  0  0  -0.198688  0  3.432681  0  0  -0.275783  -0.178515  0  3.404459  0
O  O80  1  0.62826522  0.05712234  0.72735493  1  0  -0.596933  0  1.945767  0  0  -0.586112  0  2.188906  0  0  -0.618466  0  2.184527  0  0  -0.341539  -0.563249  0  2.191007  0
O  O81  1  0.12826144  0.44288369  0.77263576  1  0  -0.596906  0  1.945771  0  0  -0.586084  0  2.188874  0  0  -0.61845  0  2.184478  0  0  -0.341478  -0.563202  0  2.190987  0
O  O82  1  0.37172833  0.94286248  0.27263739  1  0  -0.596881  0  1.94587  0  0  -0.586113  0  2.189003  0  0  -0.618478  0  2.184623  0  0  -0.341537  -0.563254  0  2.191103  0
O  O83  1  0.87172914  0.55712018  0.22735479  1  0  -0.596968  0  1.945725  0  0  -0.586165  0  2.188828  0  0  -0.618524  0  2.184441  0  0  -0.341522  -0.563294  0  2.190932  0
O  O84  1  0.67775191  0.11223201  0.91093655  1  0  -0.641036  0  1.967854  0  0  -0.629544  0  2.225176  0  0  -0.66286  0  2.222959  0  0  -0.351005  -0.605631  0  2.225559  0
O  O85  1  0.17777319  0.38775961  0.58906238  1  0  -0.640988  0  1.967945  0  0  -0.629508  0  2.225282  0  0  -0.662835  0  2.223054  0  0  -0.350972  -0.605574  0  2.225675  0
O  O86  1  0.32222974  0.88774104  0.08907175  1  0  -0.641041  0  1.968022  0  0  -0.629578  0  2.22531  0  0  -0.662898  0  2.22309  0  0  -0.351017  -0.605666  0  2.225695  0
O  O87  1  0.82222829  0.61224516  0.41093006  1  0  -0.641051  0  1.967938  0  0  -0.629606  0  2.225295  0  0  -0.662929  0  2.223077  0  0  -0.350996  -0.605683  0  2.225675  0
O  O88  1  0.90569163  0.04988609  0.66278365  1  0  -0.660503  0  2.079499  0  0  -0.650234  0  2.35156  0  0  -0.685468  0  2.34236  0  0  -0.355028  -0.624659  0  2.356749  0
O  O89  1  0.40569345  0.45011421  0.83721908  1  0  -0.660473  0  2.079574  0  0  -0.650205  0  2.351664  0  0  -0.685426  0  2.342448  0  0  -0.355052  -0.624658  0  2.356849  0
O  O90  1  0.09432275  0.95010663  0.33723047  1  0  -0.660509  0  2.079673  0  0  -0.650248  0  2.351843  0  0  -0.685466  0  2.34261  0  0  -0.355114  -0.624685  0  2.357008  0
O  O91  1  0.59431002  0.54988515  0.16278188  1  0  -0.660431  0  2.079653  0  0  -0.650194  0  2.351699  0  0  -0.685432  0  2.342493  0  0  -0.355055  -0.624645  0  2.356883  0
O  O92  1  0.94423785  0.86182781  0.53127059  1  0  -0.6818  0  2.113552  0  0  -0.673738  0  2.396069  0  0  -0.710909  0  2.38645  0  0  -0.380117  -0.646599  0  2.401308  0
O  O93  1  0.44423802  0.63817444  0.96872715  1  0  -0.681726  0  2.113571  0  0  -0.673645  0  2.396114  0  0  -0.710823  0  2.3865  0  0  -0.380062  -0.646516  0  2.40136  0
O  O94  1  0.05575074  0.13818148  0.46873125  1  0  -0.681798  0  2.113541  0  0  -0.67371  0  2.396137  0  0  -0.710882  0  2.386521  0  0  -0.380154  -0.64656  0  2.401395  0
O  O95  1  0.55574759  0.36182312  0.03127005  1  0  -0.681671  0  2.113586  0  0  -0.673672  0  2.396121  0  0  -0.71083  0  2.386491  0  0  -0.38009  -0.646545  0  2.401356  0
O  O96  1  0.43916938  0.21139453  0.65431538  1  0  -0.850982  0  1.911374  0  0  -0.820945  0  2.099431  0  0  -0.846989  0  2.06629  0  0  -0.618356  -0.801985  0  2.122145  0
O  O97  1  0.93916770  0.28861370  0.84568794  1  0  -0.850898  0  1.911396  0  0  -0.82089  0  2.099437  0  0  -0.846928  0  2.066287  0  0  -0.618275  -0.801905  0  2.122163  0
O  O98  1  0.56083210  0.78860598  0.34568257  1  0  -0.85093  0  1.911405  0  0  -0.820904  0  2.099443  0  0  -0.846957  0  2.066298  0  0  -0.618319  -0.801939  0  2.122158  0
O  O99  1  0.06082981  0.71139453  0.15431527  1  0  -0.851026  0  1.911364  0  0  -0.820988  0  2.099421  0  0  -0.847039  0  2.066276  0  0  -0.61834  -0.80202  0  2.12214  0
O  O100  1  0.38781932  0.17374812  0.87651184  1  0  -0.698669  0  1.550795  0  0  -0.700028  0  1.831868  0  0  -0.720801  0  1.818437  0  0  -0.749562  -0.68736  0  1.841868  0
O  O101  1  0.88784896  0.32625965  0.62346131  1  0  -0.698795  0  1.551087  0  0  -0.700092  0  1.832191  0  0  -0.720855  0  1.818732  0  0  -0.749686  -0.687383  0  1.842212  0
O  O102  1  0.61215440  0.82625533  0.12346706  1  0  -0.698936  0  1.55077  0  0  -0.700219  0  1.831808  0  0  -0.721001  0  1.818349  0  0  -0.749637  -0.687542  0  1.841805  0
O  O103  1  0.11215748  0.67373105  0.37653332  1  0  -0.698797  0  1.550827  0  0  -0.700143  0  1.831935  0  0  -0.720909  0  1.818473  0  0  -0.749711  -0.687463  0  1.841944  0
O  O104  1  0.67580725  0.34946465  0.81021418  1  0  -0.746778  0  1.586206  0  0  -0.745612  0  1.86657  0  0  -0.767746  0  1.851794  0  0  -0.743798  -0.731967  0  1.877483  0
O  O105  1  0.17581841  0.15054430  0.68979738  1  0  -0.746754  0  1.585842  0  0  -0.745618  0  1.866235  0  0  -0.767755  0  1.85145  0  0  -0.743701  -0.731931  0  1.877179  0
O  O106  1  0.32417836  0.65053213  0.18979849  1  0  -0.746724  0  1.586304  0  0  -0.745563  0  1.866673  0  0  -0.767687  0  1.851844  0  0  -0.743743  -0.731911  0  1.877587  0
O  O107  1  0.82418605  0.84946179  0.31020859  1  0  -0.746761  0  1.585884  0  0  -0.745613  0  1.866251  0  0  -0.767751  0  1.851469  0  0  -0.743667  -0.73195  0  1.87717  0
