# generated using pymatgen
data_LiH10C5S2N
_symmetry_space_group_name_H-M   'P 1'
_cell_length_a   9.45206777
_cell_length_b   9.99004729
_cell_length_c   14.20185870
_cell_angle_alpha   103.39559828
_cell_angle_beta   89.98601223
_cell_angle_gamma   118.24958887
_symmetry_Int_Tables_number   1
_chemical_formula_structural   LiH10C5S2N
_chemical_formula_sum   'Li6 H60 C30 S12 N6'
_cell_volume   1139.76430144
_cell_formula_units_Z   6
loop_
 _symmetry_equiv_pos_site_id
 _symmetry_equiv_pos_as_xyz
  1  'x, y, z'
loop_
 _atom_site_type_symbol
 _atom_site_label
 _atom_site_symmetry_multiplicity
 _atom_site_fract_x
 _atom_site_fract_y
 _atom_site_fract_z
 _atom_site_occupancy
 _atom_site_hle17_bader_spin_density
 _atom_site_hle17_ddec_charge
 _atom_site_hle17_ddec_spin_density
 _atom_site_hle17_ddec_sum_bond_order
 _atom_site_hle17_magmom
 _atom_site_hse06_10hf_bader_spin_density
 _atom_site_hse06_10hf_ddec_charge
 _atom_site_hse06_10hf_ddec_spin_density
 _atom_site_hse06_10hf_ddec_sum_bond_order
 _atom_site_hse06_10hf_magmom
 _atom_site_hse06_bader_spin_density
 _atom_site_hse06_ddec_charge
 _atom_site_hse06_ddec_spin_density
 _atom_site_hse06_ddec_sum_bond_order
 _atom_site_hse06_magmom
 _atom_site_pbe_bader_spin_density
 _atom_site_pbe_cm5_charge
 _atom_site_pbe_ddec_charge
 _atom_site_pbe_ddec_spin_density
 _atom_site_pbe_ddec_sum_bond_order
 _atom_site_pbe_magmom
Li  Li0  1  0.93717360  0.99994978  0.25005780  1  0  0.73526  0  0.549679  0  0  0.694884  0  0.64999  0  0  0.700811  0  0.642385  0  0  0.274392  0.69129  0  0.654347  0
Li  Li1  1  0.06282795  0.00005509  0.74994168  1  0  0.735255  0  0.549688  0  0  0.694867  0  0.650015  0  0  0.700793  0  0.642412  0  0  0.274384  0.691273  0  0.65437  0
Li  Li2  1  0.14426169  0.05705854  0.05058371  1  0  0.710668  0  0.609465  0  0  0.672576  0  0.706621  0  0  0.679182  0  0.698127  0  0  0.2775  0.667876  0  0.71255  0
Li  Li3  1  0.08721253  0.94293858  0.44942335  1  0  0.710404  0  0.610301  0  0  0.67248  0  0.707169  0  0  0.679029  0  0.698768  0  0  0.277628  0.667817  0  0.713034  0
Li  Li4  1  0.85574009  0.94294044  0.94941553  1  0  0.710676  0  0.609462  0  0  0.672598  0  0.706587  0  0  0.679203  0  0.698094  0  0  0.277497  0.667898  0  0.712515  0
Li  Li5  1  0.91278726  0.05706276  0.55057627  1  0  0.710403  0  0.610299  0  0  0.672474  0  0.707173  0  0  0.679026  0  0.698766  0  0  0.277621  0.667812  0  0.713036  0
H  H6  1  0.17657584  0.46323729  0.23803252  1  0  0.101011  0  0.949194  0  0  0.124612  0  1.007924  0  0  0.12584  0  1.007998  0  0  0.087186  0.12343  0  1.008377  0
H  H7  1  0.71348949  0.53680590  0.26201222  1  0  0.100686  0  0.948639  0  0  0.12441  0  1.007329  0  0  0.125621  0  1.007425  0  0  0.087093  0.123242  0  1.007781  0
H  H8  1  0.82342065  0.53676169  0.76196742  1  0  0.101025  0  0.94922  0  0  0.124638  0  1.007928  0  0  0.125867  0  1.008002  0  0  0.087186  0.123454  0  1.00838  0
H  H9  1  0.28651194  0.46319661  0.73798759  1  0  0.100629  0  0.948657  0  0  0.124393  0  1.007303  0  0  0.125604  0  1.007399  0  0  0.087111  0.123225  0  1.007754  0
H  H10  1  0.00315110  0.48706570  0.22920686  1  0  0.102238  0  0.965563  0  0  0.122659  0  1.031807  0  0  0.123804  0  1.032158  0  0  0.086202  0.121634  0  1.031848  0
H  H11  1  0.51617884  0.51293607  0.27099301  1  0  0.102167  0  0.965677  0  0  0.122688  0  1.03193  0  0  0.12387  0  1.032246  0  0  0.086072  0.121654  0  1.031984  0
H  H12  1  0.99684586  0.51293210  0.77079289  1  0  0.102301  0  0.965508  0  0  0.122732  0  1.031735  0  0  0.123876  0  1.032088  0  0  0.086241  0.121707  0  1.031776  0
H  H13  1  0.48381989  0.48706526  0.72900590  1  0  0.102158  0  0.965654  0  0  0.122681  0  1.031912  0  0  0.123864  0  1.032228  0  0  0.086063  0.121647  0  1.031966  0
H  H14  1  0.98176994  0.29847644  0.22577623  1  0  0.099285  0  0.963594  0  0  0.117781  0  1.033165  0  0  0.119396  0  1.032777  0  0  0.087788  0.116752  0  1.032902  0
H  H15  1  0.68345028  0.70154909  0.27430263  1  0  0.09912  0  0.964147  0  0  0.11765  0  1.0338  0  0  0.11929  0  1.033409  0  0  0.087808  0.116629  0  1.033513  0
H  H16  1  0.01822820  0.70152372  0.77422460  1  0  0.09927  0  0.963635  0  0  0.117791  0  1.033178  0  0  0.119406  0  1.032792  0  0  0.08778  0.116761  0  1.032914  0
H  H17  1  0.31655009  0.29845343  0.72569718  1  0  0.099087  0  0.964158  0  0  0.117621  0  1.033819  0  0  0.119261  0  1.033428  0  0  0.087805  0.116598  0  1.033532  0
H  H18  1  0.11557708  0.59142845  0.40185572  1  0  0.065186  0  0.925824  0  0  0.082231  0  0.989945  0  0  0.082562  0  0.99036  0  0  0.106894  0.081861  0  0.989579  0
H  H19  1  0.52406689  0.40846043  0.09829572  1  0  0.065289  0  0.926366  0  0  0.082469  0  0.990708  0  0  0.08281  0  0.991111  0  0  0.106905  0.082084  0  0.990338  0
H  H20  1  0.88442329  0.40857406  0.59814409  1  0  0.065181  0  0.925887  0  0  0.08223  0  0.989981  0  0  0.08256  0  0.990397  0  0  0.106903  0.081859  0  0.989612  0
H  H21  1  0.47593184  0.59154089  0.90170319  1  0  0.065311  0  0.926404  0  0  0.082484  0  0.990724  0  0  0.082822  0  0.991132  0  0  0.106918  0.0821  0  0.990352  0
H  H22  1  0.93430955  0.41040333  0.38935016  1  0  0.073483  0  0.952163  0  0  0.091364  0  1.011512  0  0  0.091637  0  1.012333  0  0  0.101489  0.09075  0  1.011582  0
H  H23  1  0.52384293  0.58944700  0.11079119  1  0  0.073464  0  0.951964  0  0  0.091257  0  1.011872  0  0  0.091538  0  1.012684  0  0  0.101447  0.090646  0  1.011895  0
H  H24  1  0.06569071  0.58959683  0.61065068  1  0  0.073483  0  0.952167  0  0  0.091364  0  1.011511  0  0  0.091637  0  1.01233  0  0  0.10149  0.090748  0  1.011579  0
H  H25  1  0.47615850  0.41055550  0.88920792  1  0  0.073538  0  0.951922  0  0  0.091293  0  1.011855  0  0  0.091574  0  1.012664  0  0  0.101464  0.090681  0  1.011878  0
H  H26  1  0.36031485  0.57275003  0.38155460  1  0  0.05265  0  0.947169  0  0  0.073069  0  1.007457  0  0  0.073195  0  1.007655  0  0  0.104222  0.072785  0  1.007254  0
H  H27  1  0.78750171  0.42718146  0.11845257  1  0  0.052242  0  0.948199  0  0  0.072888  0  1.007884  0  0  0.073096  0  1.007992  0  0  0.104131  0.072539  0  1.00776  0
H  H28  1  0.63968658  0.42725248  0.61844451  1  0  0.052659  0  0.947091  0  0  0.073073  0  1.007427  0  0  0.0732  0  1.007626  0  0  0.104217  0.072789  0  1.007224  0
H  H29  1  0.21249961  0.57281869  0.88154756  1  0  0.052213  0  0.948225  0  0  0.072865  0  1.007914  0  0  0.073075  0  1.008018  0  0  0.104127  0.072517  0  1.00779  0
H  H30  1  0.38298274  0.44118745  0.43671984  1  0  0.077344  0  0.951897  0  0  0.094753  0  1.01458  0  0  0.094964  0  1.015521  0  0  0.102437  0.09426  0  1.01415  0
H  H31  1  0.94164818  0.55865751  0.06314068  1  0  0.077281  0  0.951197  0  0  0.094518  0  1.013936  0  0  0.094735  0  1.014878  0  0  0.101839  0.094007  0  1.013552  0
H  H32  1  0.61701928  0.55881623  0.56327945  1  0  0.07737  0  0.951919  0  0  0.094807  0  1.014599  0  0  0.095022  0  1.015544  0  0  0.102462  0.094314  0  1.014168  0
H  H33  1  0.05835313  0.44134264  0.93685945  1  0  0.077264  0  0.951241  0  0  0.094504  0  1.013977  0  0  0.094722  0  1.01492  0  0  0.101837  0.093994  0  1.013592  0
H  H34  1  0.30528404  0.70068252  0.54411598  1  0  0.091675  0  0.996514  0  0  0.106868  0  1.073501  0  0  0.108279  0  1.073553  0  0  0.077545  0.105966  0  1.073592  0
H  H35  1  0.60428973  0.29910973  0.95592286  1  0  0.09173  0  0.996725  0  0  0.107265  0  1.073349  0  0  0.108673  0  1.073404  0  0  0.077645  0.10635  0  1.073456  0
H  H36  1  0.69471527  0.29931999  0.45588312  1  0  0.091587  0  0.996538  0  0  0.106804  0  1.073515  0  0  0.108215  0  1.073567  0  0  0.077502  0.105903  0  1.073607  0
H  H37  1  0.39570947  0.70089043  0.04407798  1  0  0.09175  0  0.99674  0  0  0.107257  0  1.073384  0  0  0.108666  0  1.073438  0  0  0.077648  0.106341  0  1.073495  0
H  H38  1  0.49962050  0.71312432  0.55211109  1  0  0.109494  0  0.961971  0  0  0.129547  0  1.027012  0  0  0.130632  0  1.027742  0  0  0.085457  0.128389  0  1.027488  0
H  H39  1  0.78621401  0.28670219  0.94787734  1  0  0.110115  0  0.962175  0  0  0.130189  0  1.027204  0  0  0.131283  0  1.027927  0  0  0.085909  0.129023  0  1.027686  0
H  H40  1  0.50038046  0.28687937  0.44788821  1  0  0.109498  0  0.961997  0  0  0.129539  0  1.027045  0  0  0.130624  0  1.027775  0  0  0.085457  0.128383  0  1.027522  0
H  H41  1  0.21378459  0.71329679  0.05212260  1  0  0.110066  0  0.962153  0  0  0.130104  0  1.027227  0  0  0.131196  0  1.027952  0  0  0.08587  0.128943  0  1.027698  0
H  H42  1  0.33598208  0.56936905  0.59693729  1  0  0.101286  0  0.966605  0  0  0.121612  0  1.032037  0  0  0.122761  0  1.032549  0  0  0.084149  0.120777  0  1.031854  0
H  H43  1  0.76635188  0.43040252  0.90304803  1  0  0.100944  0  0.96665  0  0  0.121228  0  1.032316  0  0  0.122381  0  1.032827  0  0  0.084155  0.120394  0  1.032131  0
H  H44  1  0.66401782  0.43063464  0.40306130  1  0  0.101256  0  0.96662  0  0  0.12159  0  1.032052  0  0  0.122733  0  1.03257  0  0  0.084124  0.120756  0  1.031871  0
H  H45  1  0.23364732  0.56959764  0.09695280  1  0  0.100961  0  0.966644  0  0  0.12125  0  1.032292  0  0  0.122404  0  1.0328  0  0  0.084172  0.120417  0  1.032108  0
H  H46  1  0.55555007  0.02118599  0.40733866  1  0  0.107337  0  0.98298  0  0  0.13057  0  1.042685  0  0  0.131384  0  1.043837  0  0  0.086306  0.129853  0  1.042043  0
H  H47  1  0.53465185  0.97885392  0.09266182  1  0  0.107467  0  0.982829  0  0  0.130992  0  1.042218  0  0  0.131812  0  1.043349  0  0  0.086484  0.130276  0  1.041577  0
H  H48  1  0.44445019  0.97881417  0.59266147  1  0  0.107328  0  0.982985  0  0  0.130544  0  1.042702  0  0  0.131358  0  1.043854  0  0  0.086309  0.129827  0  1.042056  0
H  H49  1  0.46535041  0.02114390  0.90734005  1  0  0.107522  0  0.98274  0  0  0.130989  0  1.042196  0  0  0.131811  0  1.043326  0  0  0.086495  0.130273  0  1.041557  0
H  H50  1  0.48322509  0.81787971  0.39200455  1  0  0.105882  0  0.953869  0  0  0.13476  0  1.003093  0  0  0.135491  0  1.004191  0  0  0.093388  0.134264  0  1.002213  0
H  H51  1  0.66566536  0.18224653  0.10810861  1  0  0.106221  0  0.953106  0  0  0.135071  0  1.002393  0  0  0.135741  0  1.003553  0  0  0.093324  0.134659  0  1.001411  0
H  H52  1  0.51677352  0.18211927  0.60799610  1  0  0.105847  0  0.953858  0  0  0.134717  0  1.003091  0  0  0.135452  0  1.004184  0  0  0.093378  0.134218  0  1.002213  0
H  H53  1  0.33433795  0.81775128  0.89189325  1  0  0.106223  0  0.953165  0  0  0.135073  0  1.002452  0  0  0.135742  0  1.003615  0  0  0.093331  0.134661  0  1.001467  0
H  H54  1  0.35094608  0.89762877  0.42216829  1  0  0.086395  0  0.983774  0  0  0.100442  0  1.063544  0  0  0.102434  0  1.062798  0  0  0.086829  0.099157  0  1.063808  0
H  H55  1  0.45358845  0.10234396  0.07783049  1  0  0.086699  0  0.982163  0  0  0.100546  0  1.062188  0  0  0.102537  0  1.061443  0  0  0.086987  0.099253  0  1.062472  0
H  H56  1  0.64905418  0.10237138  0.57783184  1  0  0.086384  0  0.983742  0  0  0.100418  0  1.063515  0  0  0.10241  0  1.062771  0  0  0.086827  0.099137  0  1.063776  0
H  H57  1  0.54641275  0.89765385  0.92217067  1  0  0.0867  0  0.982156  0  0  0.100562  0  1.062147  0  0  0.102555  0  1.061401  0  0  0.086976  0.099269  0  1.062434  0
H  H58  1  0.49106872  0.86024798  0.22763351  1  0  0.065871  0  0.942226  0  0  0.083223  0  1.004878  0  0  0.083711  0  1.004997  0  0  0.103268  0.083028  0  1.004569  0
H  H59  1  0.63073745  0.13965351  0.27241669  1  0  0.065611  0  0.940626  0  0  0.082678  0  1.004249  0  0  0.083215  0  1.0043  0  0  0.103072  0.08245  0  1.003977  0
H  H60  1  0.50892812  0.13974748  0.77236727  1  0  0.065861  0  0.942265  0  0  0.083244  0  1.004897  0  0  0.083731  0  1.005015  0  0  0.1033  0.083049  0  1.004585  0
H  H61  1  0.36925962  0.86033606  0.72758384  1  0  0.065611  0  0.94063  0  0  0.08269  0  1.004227  0  0  0.083229  0  1.004278  0  0  0.103082  0.082462  0  1.003953  0
H  H62  1  0.28373428  0.76274966  0.24639326  1  0  0.07032  0  0.961419  0  0  0.087507  0  1.023112  0  0  0.087939  0  1.023808  0  0  0.100541  0.087339  0  1.022399  0
H  H63  1  0.52089114  0.23706423  0.25361436  1  0  0.069668  0  0.961323  0  0  0.087071  0  1.023158  0  0  0.087467  0  1.02391  0  0  0.100612  0.086919  0  1.022413  0
H  H64  1  0.71626210  0.23724697  0.75360911  1  0  0.070315  0  0.961406  0  0  0.087513  0  1.023112  0  0  0.087945  0  1.023808  0  0  0.100555  0.087346  0  1.022399  0
H  H65  1  0.47911277  0.76293476  0.74638910  1  0  0.069778  0  0.961439  0  0  0.087167  0  1.023257  0  0  0.087564  0  1.024013  0  0  0.100662  0.087016  0  1.02251  0
C  C66  1  0.05453799  0.42541744  0.25942970  1  0  -0.303222  0  3.69352  0  0  -0.382724  0  3.942028  0  0  -0.385245  0  3.951385  0  0  -0.24424  -0.380372  0  3.935087  0
C  C67  1  0.62915506  0.57455282  0.24062568  1  0  -0.303246  0  3.694516  0  0  -0.382525  0  3.942851  0  0  -0.385088  0  3.95225  0  0  -0.244239  -0.380205  0  3.935857  0
C  C68  1  0.94545791  0.57458036  0.74056864  1  0  -0.303311  0  3.693576  0  0  -0.382838  0  3.942057  0  0  -0.385362  0  3.951419  0  0  -0.244262  -0.380486  0  3.935112  0
C  C69  1  0.37084354  0.42544616  0.75937426  1  0  -0.303154  0  3.694484  0  0  -0.382479  0  3.942805  0  0  -0.385044  0  3.952203  0  0  -0.244255  -0.38016  0  3.935809  0
C  C70  1  0.05774632  0.46329930  0.36983605  1  0  0.049772  0  3.628189  0  0  -0.004027  0  3.879552  0  0  0.000579  0  3.892244  0  0  -0.061932  -0.006925  0  3.870758  0
C  C71  1  0.59433469  0.53655903  0.13025171  1  0  0.050939  0  3.62887  0  0  -0.004029  0  3.881943  0  0  0.000569  0  3.894666  0  0  -0.06131  -0.00686  0  3.873049  0
C  C72  1  0.94225335  0.53669967  0.63016319  1  0  0.049758  0  3.628261  0  0  -0.004014  0  3.879604  0  0  0.000595  0  3.892296  0  0  -0.061967  -0.006908  0  3.870801  0
C  C73  1  0.40566780  0.46344348  0.86974739  1  0  0.050843  0  3.628873  0  0  -0.00403  0  3.881879  0  0  0.000568  0  3.894603  0  0  -0.061325  -0.006862  0  3.872983  0
C  C74  1  0.32349589  0.51305462  0.44030053  1  0  0.049729  0  3.645695  0  0  -0.00913  0  3.903978  0  0  -0.00419  0  3.916192  0  0  -0.06518  -0.012258  0  3.895328  0
C  C75  1  0.81027988  0.48678918  0.05968305  1  0  0.049391  0  3.645209  0  0  -0.009075  0  3.902182  0  0  -0.004198  0  3.91442  0  0  -0.064663  -0.012159  0  3.8935  0
C  C76  1  0.67650495  0.48694671  0.55969838  1  0  0.049747  0  3.645613  0  0  -0.009194  0  3.904043  0  0  -0.004265  0  3.916272  0  0  -0.065176  -0.012322  0  3.895393  0
C  C77  1  0.18972037  0.51321098  0.94031779  1  0  0.049488  0  3.645326  0  0  -0.00897  0  3.902301  0  0  -0.004092  0  3.914539  0  0  -0.064644  -0.012058  0  3.893623  0
C  C78  1  0.36853027  0.63152136  0.53934745  1  0  -0.319473  0  3.690977  0  0  -0.399015  0  3.942507  0  0  -0.401995  0  3.952087  0  0  -0.252755  -0.396891  0  3.936873  0
C  C79  1  0.73673014  0.36826949  0.96066117  1  0  -0.31919  0  3.691176  0  0  -0.39924  0  3.942316  0  0  -0.402263  0  3.951995  0  0  -0.253086  -0.397095  0  3.936641  0
C  C80  1  0.63147069  0.36848233  0.46065184  1  0  -0.319367  0  3.690993  0  0  -0.398894  0  3.94252  0  0  -0.401868  0  3.952115  0  0  -0.252689  -0.396771  0  3.936884  0
C  C81  1  0.26327105  0.63172831  0.03933788  1  0  -0.319186  0  3.691267  0  0  -0.399183  0  3.942439  0  0  -0.402205  0  3.95212  0  0  -0.253079  -0.397039  0  3.936767  0
C  C82  1  0.07804284  0.26774193  0.44018601  1  0  0.296002  0  3.806444  0  0  0.264974  0  4.11338  0  0  0.288218  0  4.121002  0  0  0.142027  0.24939  0  4.107873  0
C  C83  1  0.81023051  0.73214091  0.05984073  1  0  0.296748  0  3.803888  0  0  0.265618  0  4.110837  0  0  0.288892  0  4.118406  0  0  0.143514  0.250009  0  4.105395  0
C  C84  1  0.92195682  0.73225705  0.55981252  1  0  0.296007  0  3.806411  0  0  0.265002  0  4.113345  0  0  0.288254  0  4.120956  0  0  0.14202  0.249418  0  4.107837  0
C  C85  1  0.18977186  0.26785925  0.94015869  1  0  0.296852  0  3.803768  0  0  0.265763  0  4.110694  0  0  0.289038  0  4.118263  0  0  0.143542  0.250159  0  4.105241  0
C  C86  1  0.44985121  0.90424242  0.37949213  1  0  -0.302236  0  3.676607  0  0  -0.379779  0  3.915342  0  0  -0.38297  0  3.925653  0  0  -0.24172  -0.377376  0  3.907954  0
C  C87  1  0.54586526  0.09577574  0.12054913  1  0  -0.303331  0  3.674658  0  0  -0.380474  0  3.913597  0  0  -0.38361  0  3.92389  0  0  -0.241506  -0.378139  0  3.906193  0
C  C88  1  0.55014952  0.09575657  0.62051063  1  0  -0.302202  0  3.676523  0  0  -0.379707  0  3.915344  0  0  -0.3829  0  3.925651  0  0  -0.241734  -0.377305  0  3.907955  0
C  C89  1  0.45413641  0.90422090  0.87945395  1  0  -0.303374  0  3.674654  0  0  -0.380513  0  3.91361  0  0  -0.383649  0  3.923908  0  0  -0.241531  -0.378177  0  3.906203  0
C  C90  1  0.39943047  0.87178848  0.27133275  1  0  0.042944  0  3.637566  0  0  -0.010296  0  3.885547  0  0  -0.005581  0  3.897785  0  0  -0.063429  -0.013431  0  3.876751  0
C  C91  1  0.52761041  0.12807179  0.22865833  1  0  0.045262  0  3.634362  0  0  -0.00896  0  3.884299  0  0  -0.004245  0  3.89644  0  0  -0.063347  -0.012072  0  3.875532  0
C  C92  1  0.60056767  0.12821168  0.72866739  1  0  0.043016  0  3.637399  0  0  -0.010273  0  3.885506  0  0  -0.005553  0  3.897743  0  0  -0.063459  -0.013409  0  3.876707  0
C  C93  1  0.47238843  0.87192131  0.77134277  1  0  0.045164  0  3.634503  0  0  -0.008965  0  3.884345  0  0  -0.004267  0  3.896516  0  0  -0.063391  -0.012079  0  3.875574  0
C  C94  1  0.23842486  0.99986928  0.24997345  1  0  0.307255  0  3.77381  0  0  0.277303  0  4.079951  0  0  0.300865  0  4.086582  0  0  0.147913  0.262007  0  4.073775  0
C  C95  1  0.76157798  0.00012970  0.75002649  1  0  0.307274  0  3.773689  0  0  0.277368  0  4.079844  0  0  0.300932  0  4.086476  0  0  0.147951  0.262072  0  4.073659  0
S  S96  1  0.18726924  0.22216535  0.51177089  1  0  -0.5962  0  2.052791  0  0  -0.572148  0  2.371487  0  0  -0.584744  0  2.365204  0  0  -0.2296  -0.563279  0  2.375122  0
S  S97  1  0.96499762  0.77774142  0.98815545  1  0  -0.596191  0  2.051423  0  0  -0.572168  0  2.370279  0  0  -0.584791  0  2.363973  0  0  -0.229783  -0.563274  0  2.373927  0
S  S98  1  0.81273054  0.77783599  0.48822943  1  0  -0.596222  0  2.052761  0  0  -0.572156  0  2.371441  0  0  -0.584757  0  2.365157  0  0  -0.229606  -0.563288  0  2.375075  0
S  S99  1  0.03500357  0.22225638  0.01184430  1  0  -0.596241  0  2.05141  0  0  -0.57223  0  2.37027  0  0  -0.584852  0  2.363962  0  0  -0.229807  -0.563338  0  2.373917  0
S  S100  1  0.87393667  0.13543528  0.40200975  1  0  -0.649506  0  2.028287  0  0  -0.627346  0  2.356542  0  0  -0.637308  0  2.345479  0  0  -0.232898  -0.621616  0  2.36397  0
S  S101  1  0.73850554  0.86447575  0.09809294  1  0  -0.650078  0  2.02779  0  0  -0.627831  0  2.356048  0  0  -0.637806  0  2.344945  0  0  -0.233097  -0.622092  0  2.363494  0
S  S102  1  0.12606370  0.86456723  0.59798936  1  0  -0.649499  0  2.028216  0  0  -0.627368  0  2.356541  0  0  -0.637333  0  2.345477  0  0  -0.232891  -0.621636  0  2.363963  0
S  S103  1  0.26149953  0.13552558  0.90190456  1  0  -0.650077  0  2.02771  0  0  -0.627808  0  2.355939  0  0  -0.637782  0  2.344838  0  0  -0.23308  -0.622069  0  2.363384  0
S  S104  1  0.22180128  0.15290082  0.22347497  1  0  -0.614094  0  2.020991  0  0  -0.596478  0  2.349116  0  0  -0.608571  0  2.34313  0  0  -0.249213  -0.587797  0  2.352589  0
S  S105  1  0.06870457  0.84685746  0.27654857  1  0  -0.613736  0  2.020883  0  0  -0.596117  0  2.348887  0  0  -0.608185  0  2.342874  0  0  -0.248973  -0.587423  0  2.352321  0
S  S106  1  0.77820062  0.84710052  0.77652465  1  0  -0.614118  0  2.021035  0  0  -0.596515  0  2.34918  0  0  -0.608591  0  2.343165  0  0  -0.249227  -0.587835  0  2.352649  0
S  S107  1  0.93129145  0.15314269  0.72345085  1  0  -0.613716  0  2.020918  0  0  -0.596077  0  2.348901  0  0  -0.608144  0  2.342884  0  0  -0.248973  -0.58739  0  2.352341  0
N  N108  1  0.14832006  0.40623026  0.41755771  1  0  -0.128961  0  3.383304  0  0  -0.028211  0  3.60274  0  0  -0.047376  0  3.627356  0  0  -0.25658  -0.015176  0  3.585676  0
N  N109  1  0.74197905  0.59363516  0.08246958  1  0  -0.129821  0  3.38158  0  0  -0.028586  0  3.600768  0  0  -0.047768  0  3.625428  0  0  -0.257905  -0.015561  0  3.583661  0
N  N110  1  0.85167925  0.59377224  0.58244139  1  0  -0.128942  0  3.383276  0  0  -0.028224  0  3.602783  0  0  -0.047388  0  3.627401  0  0  -0.256572  -0.01519  0  3.585717  0
N  N111  1  0.25802285  0.40636617  0.91753004  1  0  -0.129906  0  3.381554  0  0  -0.028779  0  3.600833  0  0  -0.047963  0  3.625489  0  0  -0.257938  -0.015751  0  3.583727  0
N  N112  1  0.38031456  0.99987796  0.24995417  1  0  -0.133273  0  3.373763  0  0  -0.031601  0  3.590383  0  0  -0.050318  0  3.614035  0  0  -0.254687  -0.018766  0  3.573629  0
N  N113  1  0.61968016  0.00011749  0.75004661  1  0  -0.133323  0  3.373385  0  0  -0.031784  0  3.590192  0  0  -0.050506  0  3.613851  0  0  -0.254721  -0.018948  0  3.573434  0
