# generated using pymatgen
data_CuH6C13N3O4F
_symmetry_space_group_name_H-M   'P 1'
_cell_length_a   10.34033559
_cell_length_b   10.52456939
_cell_length_c   15.11808621
_cell_angle_alpha   106.99491243
_cell_angle_beta   90.01081132
_cell_angle_gamma   90.11024661
_symmetry_Int_Tables_number   1
_chemical_formula_structural   CuH6C13N3O4F
_chemical_formula_sum   'Cu4 H24 C52 N12 O16 F4'
_cell_volume   1573.41379285
_cell_formula_units_Z   4
loop_
 _symmetry_equiv_pos_site_id
 _symmetry_equiv_pos_as_xyz
  1  'x, y, z'
loop_
 _atom_site_type_symbol
 _atom_site_label
 _atom_site_symmetry_multiplicity
 _atom_site_fract_x
 _atom_site_fract_y
 _atom_site_fract_z
 _atom_site_occupancy
 _atom_site_pbe_bader_charge
 _atom_site_pbe_bader_spin_density
 _atom_site_pbe_cm5_charge
 _atom_site_pbe_ddec_charge
 _atom_site_pbe_ddec_spin_density
 _atom_site_pbe_ddec_sum_bond_order
 _atom_site_pbe_magmom
Cu  Cu0  1  0.40937085  0.41262972  0.99092059  1  1.080234  0.580538  0.690019  0.777184  0.745174  2.395751  0.581
Cu  Cu1  1  0.90845591  0.58810394  0.50905020  1  1.074498  -0.541934  0.687142  0.772146  -0.724343  2.400243  -0.539
Cu  Cu2  1  0.59063499  0.58735233  0.00907008  1  1.079321  0.579616  0.689753  0.776695  0.744043  2.396397  0.58
Cu  Cu3  1  0.09149972  0.41195358  0.49095060  1  1.0742  0.54371  0.687513  0.772915  0.694909  2.400247  0.541
H  H4  1  0.44144171  0.94278643  0.61627121  1  0.120601  4e-06  0.113382  0.132617  -3e-06  1.008293  0.0
H  H5  1  0.94138368  0.05671073  0.88354763  1  0.118446  5e-06  0.113045  0.132092  4e-06  1.009169  0.0
H  H6  1  0.55856126  0.05722639  0.38373501  1  0.120804  1e-06  0.113384  0.132658  -1.1e-05  1.008312  0.0
H  H7  1  0.05861735  0.94329117  0.11645835  1  0.118353  -2e-06  0.11305  0.132121  -1.1e-05  1.009271  0.0
H  H8  1  0.80937464  0.09026305  0.52286905  1  0.075587  0.000135  0.104274  0.106202  0.000118  1.017321  0.0
H  H9  1  0.30928110  0.91007172  0.97702811  1  0.080729  0.000274  0.104296  0.106009  0.000168  1.017266  0.0
H  H10  1  0.19058382  0.90972593  0.47710716  1  0.076277  -0.000173  0.104273  0.106198  -0.000146  1.017148  0.0
H  H11  1  0.69075280  0.08991533  0.02296293  1  0.080705  0.000277  0.10427  0.105965  0.000173  1.017397  0.0
H  H12  1  0.54607343  0.10474138  0.74797909  1  0.082014  0.000386  0.103607  0.10954  0.000297  1.014645  0.0
H  H13  1  0.04566010  0.89467357  0.75176419  1  0.086367  -0.00032  0.103999  0.110105  -0.000288  1.013995  0.0
H  H14  1  0.45397111  0.89524664  0.25202669  1  0.081379  0.000391  0.103637  0.109562  0.000297  1.01471  0.0
H  H15  1  0.95429255  0.10529842  0.24825949  1  0.08597  0.00033  0.103966  0.110078  0.000279  1.013969  0.0
H  H16  1  0.85157919  0.88519491  0.55973599  1  0.096989  7.2e-05  0.118407  0.098935  4.8e-05  0.992233  0.0
H  H17  1  0.35172780  0.11530438  0.94026828  1  0.097757  -9.3e-05  0.118243  0.098843  -6.9e-05  0.992232  0.0
H  H18  1  0.14841506  0.11480103  0.44025818  1  0.096819  -7.9e-05  0.118385  0.098873  -5.6e-05  0.992234  0.0
H  H19  1  0.64827710  0.88469157  0.05973053  1  0.097817  -9.1e-05  0.118196  0.098708  -6.7e-05  0.992242  0.0
H  H20  1  0.61191262  0.55500984  0.50139777  1  0.13584  7.3e-05  0.12103  0.115784  5.3e-05  1.009566  0.0
H  H21  1  0.11264303  0.44481645  0.99860797  1  0.093388  -9.6e-05  0.121019  0.115899  -5.2e-05  1.008754  0.0
H  H22  1  0.38807294  0.44499502  0.49860947  1  0.135808  -6.6e-05  0.121042  0.115833  -5.1e-05  1.009475  0.0
H  H23  1  0.88736766  0.55517751  0.00139440  1  0.09343  -0.000102  0.121036  0.115917  -5.5e-05  1.008678  0.0
H  H24  1  0.73617471  0.46020612  0.73156572  1  0.100458  0.000278  0.113791  0.128709  0.000176  0.98612  0.0
H  H25  1  0.23573024  0.54002366  0.76798847  1  0.103231  0.000407  0.113882  0.129071  0.000281  0.985604  0.0
H  H26  1  0.26385917  0.53976202  0.26843534  1  0.100171  0.000347  0.113865  0.128814  0.000266  0.98589  0.0
H  H27  1  0.76429301  0.45995442  0.23200800  1  0.103561  6e-06  0.1139  0.129069  -8e-05  0.98593  0.0
C  C28  1  0.58038013  0.36496576  0.84014363  1  1.561399  -0.001648  0.213025  0.578285  0.000745  4.161925  -0.004
C  C29  1  0.08015559  0.63520481  0.65934432  1  1.554178  0.00091  0.213873  0.579259  0.00062  4.162553  0.001
C  C30  1  0.41958219  0.63501128  0.15984271  1  1.562177  -0.001972  0.213007  0.578578  0.000509  4.16214  -0.005
C  C31  1  0.91985513  0.36480905  0.34065020  1  1.553651  -0.00054  0.213623  0.579077  -0.000629  4.162634  -0.001
C  C32  1  0.63702250  0.28889317  0.74916979  1  -0.000222  0.01689  -0.014075  -0.011891  0.011805  3.981471  0.013
C  C33  1  0.13680726  0.71102288  0.75057696  1  -0.043906  -0.000331  -0.01317  -0.009311  -0.000395  3.979661  0.0
C  C34  1  0.36300560  0.71109681  0.25084434  1  -0.000559  0.015514  -0.014309  -0.012201  0.010865  3.981411  0.012
C  C35  1  0.86319376  0.28897304  0.24943242  1  -0.04366  0.00108  -0.013167  -0.009143  0.000702  3.979611  0.001
C  C36  1  0.52613631  0.88095336  0.59193230  1  0.052642  0.000665  -0.080523  -0.218538  0.000412  3.945887  0.0
C  C37  1  0.02622443  0.11867582  0.90794817  1  0.049657  -0.000773  -0.08049  -0.218026  -0.000511  3.945198  0.0
C  C38  1  0.47386569  0.11905350  0.40807469  1  0.05224  -0.000642  -0.080566  -0.218625  -0.00044  3.945706  0.0
C  C39  1  0.97378336  0.88132310  0.09205389  1  0.049805  -0.000771  -0.080568  -0.218137  -0.000522  3.945331  0.0
C  C40  1  0.67321948  0.08012912  0.62986128  1  0.000813  0.000239  -0.011876  0.060424  7.3e-05  4.030285  0.0
C  C41  1  0.17310321  0.91984600  0.87002186  1  -0.002435  0.001122  -0.011218  0.061057  0.000741  4.030517  0.001
C  C42  1  0.32679412  0.91986982  0.37013484  1  0.00036  0.00152  -0.011884  0.060284  0.000974  4.030392  0.001
C  C43  1  0.82689492  0.08014893  0.12998599  1  -0.00229  -0.000207  -0.011202  0.061189  -0.000223  4.030616  0.0
C  C44  1  0.76020653  0.14512787  0.58630947  1  -0.063599  -0.00217  -0.078382  -0.140934  -0.001452  3.921618  -0.002
C  C45  1  0.26002671  0.85508214  0.91360623  1  -0.066162  0.003108  -0.078234  -0.139469  0.002074  3.920671  0.002
C  C46  1  0.23978580  0.85487305  0.41367844  1  -0.064524  0.001018  -0.078341  -0.14084  0.000576  3.921538  0.001
C  C47  1  0.73998979  0.14491582  0.08638836  1  -0.065999  0.003084  -0.078415  -0.139699  0.002051  3.920702  0.002
C  C48  1  0.61139034  0.15329299  0.71139412  1  -0.029011  0.00011  -0.081221  -0.143185  0.000134  3.926124  0.0
C  C49  1  0.11123009  0.84648592  0.78839677  1  0.010791  0.003638  -0.08155  -0.14387  0.00233  3.926126  0.002
C  C50  1  0.38864162  0.84669303  0.28861258  1  -0.028222  0.001506  -0.081216  -0.143139  0.001089  3.926368  0.001
C  C51  1  0.88875158  0.15349904  0.21161831  1  0.010959  0.001918  -0.081399  -0.143753  0.001261  3.925977  0.001
C  C52  1  0.64987088  0.93594173  0.59218990  1  -0.01621  -0.000131  -0.002399  0.050241  -0.000123  4.020745  0.0
C  C53  1  0.14985843  0.06394298  0.90771084  1  -0.01666  0.000661  -0.002644  0.04958  0.000433  4.02183  0.001
C  C54  1  0.35012629  0.06406514  0.40781445  1  -0.015479  0.000502  -0.00239  0.050316  0.000342  4.020713  0.0
C  C55  1  0.85014550  0.93605594  0.09229453  1  -0.016923  0.000372  -0.002595  0.049586  0.000217  4.021707  0.0
C  C56  1  0.78030486  0.28188123  0.62191336  1  -0.055138  0.001416  -0.009252  -0.003197  0.000816  3.984064  0.001
C  C57  1  0.28007414  0.71838751  0.87796860  1  -0.0386  0.015211  -0.010666  -0.006986  0.010656  3.984791  0.012
C  C58  1  0.21969327  0.71812468  0.37807095  1  -0.054815  0.000485  -0.009323  -0.003257  0.000212  3.984208  0.0
C  C59  1  0.71994816  0.28161443  0.12202217  1  -0.038359  0.016436  -0.01045  -0.006742  0.011506  3.984679  0.013
C  C60  1  0.75276956  0.84831599  0.55879464  1  0.553325  0.000796  0.041171  0.015983  0.000543  3.942191  0.001
C  C61  1  0.25291861  0.15181579  0.94118485  1  0.552928  -0.000804  0.041112  0.015911  -0.000583  3.94342  -0.001
C  C62  1  0.24721792  0.15168193  0.44120192  1  0.553447  -0.000649  0.041138  0.016072  -0.000455  3.942041  0.0
C  C63  1  0.74708435  0.84818015  0.05881858  1  0.553036  -0.000895  0.041179  0.016181  -0.000647  3.943081  -0.001
C  C64  1  0.62009580  0.66291877  0.52644012  1  0.601083  0.000768  0.038776  -0.032011  0.00051  3.935156  0.0
C  C65  1  0.12055994  0.33693071  0.97352376  1  0.583632  -0.000901  0.039242  -0.030884  -0.000623  3.935008  -0.001
C  C66  1  0.37988879  0.33708112  0.47356412  1  0.600033  -0.000741  0.038799  -0.032082  -0.000512  3.934909  0.0
C  C67  1  0.87944592  0.66306324  0.02648191  1  0.583805  -0.000903  0.039192  -0.030938  -0.000626  3.934717  -0.001
C  C68  1  0.51392963  0.74406337  0.55890186  1  0.337223  -0.000174  0.103938  0.253601  -0.000142  4.081186  0.0
C  C69  1  0.01420558  0.25556182  0.94100933  1  0.392922  0.000282  0.104067  0.253273  0.000204  4.081307  0.0
C  C70  1  0.48606271  0.25595044  0.44110457  1  0.337237  0.000171  0.103938  0.253506  0.000133  4.080933  0.0
C  C71  1  0.98580028  0.74443809  0.05899624  1  0.392613  0.000279  0.104077  0.25331  0.000205  4.081376  0.0
C  C72  1  0.86619289  0.35499971  0.57392913  1  1.57336  -0.000487  0.215633  0.583486  -0.000672  4.16688  -0.001
C  C73  1  0.36542140  0.64519492  0.92599617  1  1.573207  -0.002153  0.21597  0.58499  0.000365  4.163757  -0.005
C  C74  1  0.13380236  0.64502505  0.42606961  1  1.574757  0.000903  0.215643  0.58339  0.000698  4.167364  0.001
C  C75  1  0.63456027  0.35479204  0.07401072  1  1.572417  -0.001803  0.215965  0.584836  0.00062  4.163447  -0.004
C  C76  1  0.71922313  0.35391604  0.70331808  1  0.079841  0.001975  -0.070355  -0.098795  0.001377  3.897746  0.002
C  C77  1  0.21894977  0.64623172  0.79643153  1  0.064911  0.002349  -0.070224  -0.099184  0.001627  3.897863  0.001
C  C78  1  0.28079238  0.64606003  0.29668262  1  0.079807  2.1e-05  -0.070212  -0.09863  6.1e-05  3.897272  0.0
C  C79  1  0.78107638  0.35375135  0.20355605  1  0.064514  0.004488  -0.07047  -0.099511  0.002983  3.89861  0.003
N  N80  1  0.73815787  0.71630486  0.52721069  1  -1.223665  0.001692  -0.328782  -0.20259  0.000779  3.554358  0.0
N  N81  1  0.23850213  0.28374438  0.97273356  1  -1.212966  -0.001709  -0.328258  -0.202045  -0.000567  3.552813  0.0
N  N82  1  0.26182672  0.28369305  0.47278785  1  -1.22295  -0.001546  -0.328672  -0.202604  -0.000734  3.553791  0.0
N  N83  1  0.76150759  0.71624859  0.02726794  1  -1.213176  -0.00182  -0.328187  -0.202043  -0.000636  3.552567  0.0
N  N84  1  0.22826555  0.10888334  0.66397763  1  -0.0583  8e-06  0.011048  4.6e-05  1.5e-05  2.819978  0.0
N  N85  1  0.72826548  0.89113533  0.83606163  1  -0.056462  -1.3e-05  0.010901  -0.000381  -1.7e-05  2.820464  0.0
N  N86  1  0.77172484  0.89111258  0.33602514  1  -0.058588  0.0  0.011074  6.2e-05  -7e-06  2.819467  0.0
N  N87  1  0.27174230  0.10885565  0.16393682  1  -0.056867  1e-05  0.010935  -0.000316  -1e-06  2.820571  0.0
N  N88  1  0.17675379  0.19305090  0.71322789  1  0.048906  6e-06  0.027321  0.041261  7e-06  2.795612  0.0
N  N89  1  0.67667693  0.80685714  0.78671144  1  0.047049  -1.3e-05  0.027679  0.041772  -8e-06  2.795444  0.0
N  N90  1  0.82324530  0.80694007  0.28677320  1  0.049185  -1.7e-05  0.027311  0.041241  -1e-05  2.795063  0.0
N  N91  1  0.32332892  0.19313682  0.21328828  1  0.047437  -7e-06  0.027639  0.041713  -1e-06  2.795582  0.0
O  O92  1  0.82164455  0.46512794  0.56849833  1  -1.104723  -0.078195  -0.309867  -0.526286  -0.053454  2.394337  -0.071
O  O93  1  0.32056165  0.53511804  0.93169836  1  -1.105531  0.089344  -0.309449  -0.526597  0.057643  2.387661  0.082
O  O94  1  0.17834778  0.53488192  0.43149802  1  -1.105817  0.078753  -0.309766  -0.5262  0.051397  2.394619  0.071
O  O95  1  0.67941039  0.46490166  0.06833308  1  -1.105345  0.089259  -0.309521  -0.526552  0.057609  2.38728  0.082
O  O96  1  0.63683073  0.47348942  0.88254766  1  -1.115336  0.086306  -0.313762  -0.523898  0.055497  2.358618  0.079
O  O97  1  0.13640849  0.52677477  0.61724704  1  -1.112283  0.076544  -0.313446  -0.523858  0.049703  2.364778  0.069
O  O98  1  0.36316736  0.52647171  0.11745991  1  -1.115245  0.086556  -0.313627  -0.523835  0.055652  2.358845  0.079
O  O99  1  0.86355965  0.47321315  0.38276733  1  -1.112162  -0.07615  -0.313467  -0.52396  -0.051794  2.364553  -0.069
O  O100  1  0.48186667  0.31437792  0.86789206  1  -1.100171  0.102659  -0.31464  -0.513144  0.065987  2.347626  0.093
O  O101  1  0.98238598  0.68659387  0.63173185  1  -1.101272  -0.090302  -0.31415  -0.512548  -0.061162  2.350969  -0.082
O  O102  1  0.51802802  0.68567366  0.13205461  1  -1.100383  0.102153  -0.314481  -0.513167  0.065675  2.347658  0.093
O  O103  1  0.01770604  0.31349366  0.36823739  1  -1.10096  0.090879  -0.314003  -0.512524  0.058788  2.351146  0.082
O  O104  1  0.97471035  0.30238914  0.54474573  1  -1.10159  0.088953  -0.313305  -0.511472  0.057621  2.326156  0.08
O  O105  1  0.47442839  0.69724069  0.95538158  1  -1.099002  0.100057  -0.314147  -0.512978  0.064403  2.323188  0.091
O  O106  1  0.02530910  0.69765551  0.45526369  1  -1.101769  -0.088373  -0.313233  -0.511272  -0.059929  2.326366  -0.08
O  O107  1  0.52556490  0.30275326  0.04461352  1  -1.09889  0.100367  -0.314254  -0.513092  0.06459  2.323294  0.091
F  F108  1  0.39568154  0.68727758  0.55878602  1  -0.63028  -4.8e-05  -0.086857  -0.125028  -2.7e-05  1.367175  0.0
F  F109  1  0.89599182  0.31199504  0.94114520  1  -0.629731  -2.1e-05  -0.087103  -0.125368  -7e-06  1.366845  0.0
F  F110  1  0.60430403  0.31273920  0.44122035  1  -0.630193  4.6e-05  -0.08682  -0.124942  2.6e-05  1.367291  0.0
F  F111  1  0.10401404  0.68800686  0.05885945  1  -0.629677  -2e-05  -0.087098  -0.125376  -6e-06  1.366978  0.0
