# generated using pymatgen
data_NdH12C4N3O13
_symmetry_space_group_name_H-M   'P 1'
_cell_length_a   7.62102259
_cell_length_b   8.94785329
_cell_length_c   12.57242283
_cell_angle_alpha   69.15107301
_cell_angle_beta   86.52928442
_cell_angle_gamma   80.13937384
_symmetry_Int_Tables_number   1
_chemical_formula_structural   NdH12C4N3O13
_chemical_formula_sum   'Nd2 H24 C8 N6 O26'
_cell_volume   789.36347413
_cell_formula_units_Z   2
loop_
 _symmetry_equiv_pos_site_id
 _symmetry_equiv_pos_as_xyz
  1  'x, y, z'
loop_
 _atom_site_type_symbol
 _atom_site_label
 _atom_site_symmetry_multiplicity
 _atom_site_fract_x
 _atom_site_fract_y
 _atom_site_fract_z
 _atom_site_occupancy
 _atom_site_hle17_bader_spin_density
 _atom_site_hle17_ddec_charge
 _atom_site_hle17_ddec_spin_density
 _atom_site_hle17_ddec_sum_bond_order
 _atom_site_hle17_magmom
 _atom_site_hse06_10hf_bader_spin_density
 _atom_site_hse06_10hf_ddec_charge
 _atom_site_hse06_10hf_ddec_spin_density
 _atom_site_hse06_10hf_ddec_sum_bond_order
 _atom_site_hse06_10hf_magmom
 _atom_site_hse06_bader_spin_density
 _atom_site_hse06_ddec_charge
 _atom_site_hse06_ddec_spin_density
 _atom_site_hse06_ddec_sum_bond_order
 _atom_site_hse06_magmom
 _atom_site_pbe_bader_spin_density
 _atom_site_pbe_cm5_charge
 _atom_site_pbe_ddec_charge
 _atom_site_pbe_ddec_spin_density
 _atom_site_pbe_ddec_sum_bond_order
 _atom_site_pbe_magmom
Nd  Nd0  1  0.25005856  0.13349790  0.73279794  1  0  2.166603  0  1.649756  0  0  1.968341  0  2.152254  0  0  2.018337  0  2.10291  0  0  1.494988  1.929956  0  2.19055  0
Nd  Nd1  1  0.74993990  0.86650179  0.26720913  1  0  2.166579  0  1.649773  0  0  1.968197  0  2.152543  0  0  2.018216  0  2.103164  0  0  1.494974  1.929842  0  2.190797  0
H  H2  1  0.87543267  0.36201131  0.45152856  1  0  0.076351  0  0.923211  0  0  0.085992  0  0.991524  0  0  0.086688  0  0.990978  0  0  0.106803  0.085378  0  0.992119  0
H  H3  1  0.62388222  0.18703249  0.45145512  1  0  0.076225  0  0.92352  0  0  0.086316  0  0.991238  0  0  0.087062  0  0.990611  0  0  0.106702  0.085693  0  0.991845  0
H  H4  1  0.12457860  0.63797474  0.54847085  1  0  0.076331  0  0.9231  0  0  0.085993  0  0.991417  0  0  0.086686  0  0.990867  0  0  0.106799  0.085384  0  0.992015  0
H  H5  1  0.37613720  0.81299546  0.54853895  1  0  0.076136  0  0.923542  0  0  0.086142  0  0.991332  0  0  0.086888  0  0.99071  0  0  0.106644  0.085519  0  0.991938  0
H  H6  1  0.83822559  0.28436383  0.60315065  1  0  0.093924  0  0.94494  0  0  0.106763  0  1.008368  0  0  0.107652  0  1.007203  0  0  0.118756  0.106043  0  1.0093  0
H  H7  1  0.66142726  0.11284418  0.60304373  1  0  0.095489  0  0.943687  0  0  0.107044  0  1.008646  0  0  0.107993  0  1.007448  0  0  0.11899  0.106282  0  1.009616  0
H  H8  1  0.16180148  0.71562079  0.39684491  1  0  0.093914  0  0.944802  0  0  0.106757  0  1.008297  0  0  0.107649  0  1.007128  0  0  0.118686  0.10604  0  1.009229  0
H  H9  1  0.33858252  0.88716888  0.39695937  1  0  0.095413  0  0.943558  0  0  0.106966  0  1.008521  0  0  0.107918  0  1.007324  0  0  0.118966  0.106204  0  1.00949  0
H  H10  1  0.15641113  0.44789170  0.38440917  1  0  0.080972  0  0.909205  0  0  0.0934  0  0.972746  0  0  0.094347  0  0.971383  0  0  0.112276  0.092633  0  0.973873  0
H  H11  1  0.34284939  0.16727405  0.38452128  1  0  0.081586  0  0.909445  0  0  0.093956  0  0.972969  0  0  0.09493  0  0.971615  0  0  0.112242  0.093152  0  0.974085  0
H  H12  1  0.84357920  0.55209146  0.61559207  1  0  0.08093  0  0.909313  0  0  0.093397  0  0.972821  0  0  0.094327  0  0.97144  0  0  0.11228  0.092633  0  0.973951  0
H  H13  1  0.65716550  0.83275030  0.61546777  1  0  0.081463  0  0.909536  0  0  0.093942  0  0.973007  0  0  0.094914  0  0.971656  0  0  0.112229  0.093134  0  0.974134  0
H  H14  1  0.31830238  0.42867561  0.48726789  1  0  0.07641  0  0.930014  0  0  0.085693  0  0.998115  0  0  0.086306  0  0.997534  0  0  0.116333  0.085213  0  0.998616  0
H  H15  1  0.18163409  0.08309162  0.48763937  1  0  0.077064  0  0.929849  0  0  0.086528  0  0.997661  0  0  0.087157  0  0.997066  0  0  0.116542  0.086023  0  0.998152  0
H  H16  1  0.68170853  0.57129724  0.51274406  1  0  0.076436  0  0.929983  0  0  0.085656  0  0.998179  0  0  0.086243  0  0.997595  0  0  0.116364  0.085184  0  0.998677  0
H  H17  1  0.81838573  0.91693350  0.51235033  1  0  0.077063  0  0.929676  0  0  0.086582  0  0.997479  0  0  0.08721  0  0.99687  0  0  0.116488  0.086078  0  0.997969  0
H  H18  1  0.88058637  0.19423165  0.84332614  1  0  0.440327  0  0.855472  0  0  0.402969  0  0.928247  0  0  0.415077  0  0.910388  0  0  0.304318  0.394388  0  0.940889  0
H  H19  1  0.61957729  0.96229251  0.84332119  1  0  0.442138  0  0.853029  0  0  0.404051  0  0.9269  0  0  0.416188  0  0.908991  0  0  0.305187  0.395472  0  0.939548  0
H  H20  1  0.11940122  0.80576429  0.15666990  1  0  0.440334  0  0.855397  0  0  0.402953  0  0.92821  0  0  0.415073  0  0.910335  0  0  0.304325  0.394372  0  0.940853  0
H  H21  1  0.38041391  0.03768964  0.15667752  1  0  0.442219  0  0.852897  0  0  0.404216  0  0.926653  0  0  0.416347  0  0.908752  0  0  0.305277  0.39564  0  0.939294  0
H  H22  1  0.97498856  0.34629399  0.83062531  1  0  0.460858  0  0.780317  0  0  0.446613  0  0.823989  0  0  0.454611  0  0.812669  0  0  0.346062  0.440861  0  0.831045  0
H  H23  1  0.52540329  0.82269159  0.83081672  1  0  0.459747  0  0.781342  0  0  0.445505  0  0.82539  0  0  0.453526  0  0.814039  0  0  0.34564  0.439739  0  0.832146  0
H  H24  1  0.02499517  0.65369978  0.16937734  1  0  0.460722  0  0.780494  0  0  0.446485  0  0.824162  0  0  0.454482  0  0.812846  0  0  0.346021  0.440735  0  0.831193  0
H  H25  1  0.47458736  0.17729923  0.16918198  1  0  0.45983  0  0.781375  0  0  0.445595  0  0.825296  0  0  0.453615  0  0.813945  0  0  0.345678  0.439827  0  0.832168  0
C  C26  1  0.89868746  0.37358908  0.53374039  1  0  0.048551  0  3.596457  0  0  -0.010911  0  3.864035  0  0  -0.004342  0  3.869102  0  0  -0.071633  -0.015306  0  3.860433  0
C  C27  1  0.60097005  0.09303907  0.53361350  1  0  0.046972  0  3.598197  0  0  -0.012365  0  3.866028  0  0  -0.005865  0  3.871166  0  0  -0.071884  -0.016822  0  3.862561  0
C  C28  1  0.10131499  0.62641085  0.46625603  1  0  0.048597  0  3.595961  0  0  -0.010994  0  3.863723  0  0  -0.004401  0  3.868824  0  0  -0.071647  -0.015397  0  3.860115  0
C  C29  1  0.39903661  0.90699812  0.46638654  1  0  0.047373  0  3.598302  0  0  -0.011841  0  3.865892  0  0  -0.00535  0  3.871061  0  0  -0.071745  -0.016292  0  3.862412  0
C  C30  1  0.17559763  0.45798762  0.46746443  1  0  0.056922  0  3.611873  0  0  -0.003219  0  3.887212  0  0  0.003863  0  3.891516  0  0  -0.069658  -0.008111  0  3.884315  0
C  C31  1  0.32423280  0.07405921  0.46765543  1  0  0.055297  0  3.615429  0  0  -0.004922  0  3.889919  0  0  0.002099  0  3.8944  0  0  -0.069565  -0.009666  0  3.886771  0
C  C32  1  0.82441180  0.54200711  0.53253489  1  0  0.057022  0  3.612047  0  0  -0.003161  0  3.887431  0  0  0.004032  0  3.891588  0  0  -0.069711  -0.008077  0  3.88457  0
C  C33  1  0.67578136  0.92596719  0.53233988  1  0  0.055631  0  3.615  0  0  -0.004816  0  3.889729  0  0  0.002221  0  3.894176  0  0  -0.06953  -0.009557  0  3.886579  0
N  N34  1  0.07005163  0.87153092  0.71462069  1  0  0.72404  0  4.108922  0  0  0.745624  0  4.414015  0  0  0.774431  0  4.418599  0  0  0.085836  0.726235  0  4.410363  0
N  N35  1  0.42998035  0.41359891  0.71461953  1  0  0.723975  0  4.109045  0  0  0.745475  0  4.414494  0  0  0.774298  0  4.419019  0  0  0.085485  0.726086  0  4.41083  0
N  N36  1  0.92994463  0.12846991  0.28537343  1  0  0.724156  0  4.108906  0  0  0.74575  0  4.413982  0  0  0.774557  0  4.418565  0  0  0.085935  0.726358  0  4.410331  0
N  N37  1  0.57000604  0.58639944  0.28538948  1  0  0.723678  0  4.109034  0  0  0.745261  0  4.414399  0  0  0.774083  0  4.418925  0  0  0.08523  0.725874  0  4.410738  0
N  N38  1  0.24996394  0.00532684  0.98891570  1  0  0.733756  0  4.103454  0  0  0.744892  0  4.419484  0  0  0.775275  0  4.423589  0  0  0.090859  0.724504  0  4.416182  0
N  N39  1  0.75002978  0.99466573  0.01108499  1  0  0.733905  0  4.103173  0  0  0.745053  0  4.419176  0  0  0.775439  0  4.423278  0  0  0.090867  0.724666  0  4.415879  0
O  O40  1  0.23691944  0.84674535  0.73598920  1  0  -0.535838  0  1.789855  0  0  -0.523824  0  2.023346  0  0  -0.539655  0  2.014233  0  0  -0.238972  -0.512689  0  2.029472  0
O  O41  1  0.26319435  0.41707330  0.73619101  1  0  -0.535138  0  1.789396  0  0  -0.52327  0  2.023075  0  0  -0.539084  0  2.013965  0  0  -0.23836  -0.512136  0  2.029196  0
O  O42  1  0.76307827  0.15326122  0.26399952  1  0  -0.535909  0  1.789811  0  0  -0.523893  0  2.023303  0  0  -0.539728  0  2.014189  0  0  -0.239049  -0.512755  0  2.029434  0
O  O43  1  0.73678779  0.58292744  0.26381200  1  0  -0.534993  0  1.789043  0  0  -0.523216  0  2.022751  0  0  -0.539033  0  2.013643  0  0  -0.238305  -0.512085  0  2.028873  0
O  O44  1  0.99013285  0.02005516  0.69106590  1  0  -0.564786  0  1.757105  0  0  -0.542675  0  1.989079  0  0  -0.560301  0  1.982076  0  0  -0.261076  -0.530147  0  1.993609  0
O  O45  1  0.50968333  0.28855149  0.69109086  1  0  -0.565638  0  1.757531  0  0  -0.54306  0  1.988978  0  0  -0.560688  0  1.981971  0  0  -0.261573  -0.530543  0  1.993567  0
O  O46  1  0.00985591  0.97994268  0.30893427  1  0  -0.564749  0  1.757179  0  0  -0.542608  0  1.989118  0  0  -0.560235  0  1.982112  0  0  -0.26104  -0.530111  0  1.993715  0
O  O47  1  0.49031485  0.71143359  0.30893482  1  0  -0.565453  0  1.75767  0  0  -0.542954  0  1.989154  0  0  -0.560582  0  1.982149  0  0  -0.261478  -0.53044  0  1.993738  0
O  O48  1  0.98931846  0.76338569  0.71491599  1  0  -0.379111  0  1.713755  0  0  -0.372686  0  1.908387  0  0  -0.38312  0  1.901596  0  0  -0.146309  -0.365559  0  1.913154  0
O  O49  1  0.51090694  0.52141994  0.71471547  1  0  -0.378692  0  1.714404  0  0  -0.372272  0  1.909238  0  0  -0.382781  0  1.902508  0  0  -0.145921  -0.365191  0  1.914079  0
O  O50  1  0.01068569  0.23661529  0.28506772  1  0  -0.379164  0  1.713756  0  0  -0.372743  0  1.90838  0  0  -0.383173  0  1.901584  0  0  -0.146372  -0.365612  0  1.913153  0
O  O51  1  0.48908041  0.47858070  0.28528788  1  0  -0.378651  0  1.714484  0  0  -0.372204  0  1.90927  0  0  -0.382715  0  1.902539  0  0  -0.1458  -0.365121  0  1.914109  0
O  O52  1  0.17732982  0.93734091  0.93419470  1  0  -0.506256  0  1.780286  0  0  -0.494682  0  2.008194  0  0  -0.510638  0  2.001191  0  0  -0.213739  -0.483495  0  2.01291  0
O  O53  1  0.32277570  0.12789953  0.93421522  1  0  -0.506557  0  1.779734  0  0  -0.494958  0  2.007695  0  0  -0.51093  0  2.00068  0  0  -0.213539  -0.483756  0  2.012422  0
O  O54  1  0.82266968  0.06265060  0.06580489  1  0  -0.506218  0  1.780157  0  0  -0.494615  0  2.008047  0  0  -0.510575  0  2.001045  0  0  -0.213708  -0.483426  0  2.012762  0
O  O55  1  0.67722053  0.87209657  0.06578811  1  0  -0.506647  0  1.779742  0  0  -0.495048  0  2.007697  0  0  -0.511021  0  2.000679  0  0  -0.213542  -0.48385  0  2.012426  0
O  O56  1  0.24982802  0.95171690  0.09653090  1  0  -0.434571  0  1.844628  0  0  -0.397878  0  2.0492  0  0  -0.416045  0  2.040982  0  0  -0.131353  -0.385407  0  2.054853  0
O  O57  1  0.75016364  0.04827394  0.90346898  1  0  -0.434691  0  1.844517  0  0  -0.397978  0  2.049077  0  0  -0.416146  0  2.04086  0  0  -0.131368  -0.385509  0  2.054732  0
O  O58  1  0.08905618  0.33802614  0.55419851  1  0  -0.41137  0  2.348472  0  0  -0.332268  0  2.608348  0  0  -0.350918  0  2.611157  0  0  -0.285656  -0.31874  0  2.605934  0
O  O59  1  0.41075569  0.10753131  0.55426494  1  0  -0.411047  0  2.351373  0  0  -0.331541  0  2.610837  0  0  -0.350182  0  2.613785  0  0  -0.286202  -0.318052  0  2.608336  0
O  O60  1  0.91095140  0.66198025  0.44580848  1  0  -0.41131  0  2.348303  0  0  -0.332148  0  2.60824  0  0  -0.350833  0  2.611005  0  0  -0.2856  -0.318614  0  2.605847  0
O  O61  1  0.58925805  0.89248631  0.44574459  1  0  -0.411245  0  2.351573  0  0  -0.331592  0  2.610889  0  0  -0.350233  0  2.613825  0  0  -0.286137  -0.318107  0  2.608384  0
O  O62  1  0.97150111  0.26067180  0.80059271  1  0  -0.894112  0  1.87099  0  0  -0.844622  0  2.070798  0  0  -0.86296  0  2.038572  0  0  -0.630709  -0.831321  0  2.092174  0
O  O63  1  0.52867674  0.93839054  0.80066415  1  0  -0.894273  0  1.869615  0  0  -0.844198  0  2.070275  0  0  -0.86255  0  2.037967  0  0  -0.6309  -0.830898  0  2.09137  0
O  O64  1  0.02848895  0.73931914  0.19940820  1  0  -0.89403  0  1.871106  0  0  -0.844467  0  2.070943  0  0  -0.86282  0  2.038683  0  0  -0.630673  -0.831169  0  2.092298  0
O  O65  1  0.47131378  0.06160611  0.19933016  1  0  -0.89449  0  1.869585  0  0  -0.84448  0  2.070059  0  0  -0.862833  0  2.037748  0  0  -0.631028  -0.831186  0  2.091255  0
