# generated using pymatgen
data_CuSiH16C22N4(OF3)2
_symmetry_space_group_name_H-M   'P 1'
_cell_length_a   8.01080586
_cell_length_b   11.21913408
_cell_length_c   13.73152343
_cell_angle_alpha   76.65749118
_cell_angle_beta   73.01895863
_cell_angle_gamma   69.11784923
_symmetry_Int_Tables_number   1
_chemical_formula_structural   CuSiH16C22N4(OF3)2
_chemical_formula_sum   'Cu2 Si2 H32 C44 N8 O4 F12'
_cell_volume   1091.64185905
_cell_formula_units_Z   2
loop_
 _symmetry_equiv_pos_site_id
 _symmetry_equiv_pos_as_xyz
  1  'x, y, z'
loop_
 _atom_site_type_symbol
 _atom_site_label
 _atom_site_symmetry_multiplicity
 _atom_site_fract_x
 _atom_site_fract_y
 _atom_site_fract_z
 _atom_site_occupancy
 _atom_site_pbe_bader_charge
 _atom_site_pbe_bader_spin_density
 _atom_site_pbe_cm5_charge
 _atom_site_pbe_ddec_charge
 _atom_site_pbe_ddec_spin_density
 _atom_site_pbe_ddec_sum_bond_order
 _atom_site_pbe_magmom
Cu  Cu0  1  0.73858258  0.74983905  0.24995038  1  1.077368  -0.564078  0.791927  0.703608  -0.754426  2.329642  -0.561
Cu  Cu1  1  0.26142244  0.25015700  0.75004543  1  1.077331  0.564072  0.791875  0.703581  0.754423  2.329595  0.561
Si  Si2  1  0.23673357  0.74991246  0.24992828  1  3.212251  0.000201  0.253935  1.731241  0.000235  3.935324  0.0
Si  Si3  1  0.76327305  0.25007986  0.75007239  1  3.212145  -0.000201  0.254031  1.731399  -0.000235  3.934891  0.0
H  H4  1  0.53806473  0.56132452  0.36647527  1  0.175873  -0.002219  0.117874  0.104922  -0.001083  1.041627  -0.002
H  H5  1  0.46609543  0.93848115  0.13355027  1  0.159474  -0.002216  0.118233  0.105873  -0.001074  1.042098  -0.002
H  H6  1  0.46193008  0.43868603  0.63352003  1  0.175894  0.00222  0.11789  0.104914  0.001084  1.041597  0.002
H  H7  1  0.53391939  0.06150434  0.86644822  1  0.159885  0.002215  0.118275  0.105918  0.001073  1.042021  0.002
H  H8  1  0.61917310  0.35122501  0.48180409  1  0.097054  -0.00122  0.109161  0.109846  -0.000661  1.02679  -0.001
H  H9  1  0.45231446  0.14876713  0.01858253  1  0.073172  -0.001199  0.108172  0.107945  -0.000638  1.024496  -0.001
H  H10  1  0.38080591  0.64879471  0.51820804  1  0.097552  0.00122  0.109013  0.109716  0.000661  1.02672  0.001
H  H11  1  0.54768054  0.85123390  0.98141832  1  0.073142  0.001199  0.108122  0.107898  0.000638  1.024611  0.001
H  H12  1  0.94537670  0.23409865  0.48606289  1  0.166954  -0.000263  0.114331  0.122233  -0.000145  1.002543  0.0
H  H13  1  0.66533314  0.26621891  0.01463329  1  0.171999  -0.000292  0.114341  0.122345  -0.00016  1.003209  0.0
H  H14  1  0.05460295  0.76590163  0.51394581  1  0.166969  0.000263  0.114329  0.122219  0.000145  1.002548  0.0
H  H15  1  0.33465505  0.73378262  0.98538537  1  0.172308  0.000292  0.11429  0.122245  0.00016  1.003233  0.0
H  H16  1  0.08810445  0.53941423  0.25487544  1  0.177458  -0.002557  0.124912  0.110809  -0.001272  1.026015  -0.002
H  H17  1  0.88308585  0.95997708  0.24485418  1  0.193158  -0.002509  0.124775  0.111329  -0.001263  1.0249  -0.002
H  H18  1  0.91189393  0.46057606  0.74512194  1  0.177792  0.002556  0.124871  0.110746  0.001272  1.026096  0.002
H  H19  1  0.11692557  0.04001917  0.75514851  1  0.193106  0.002508  0.1248  0.11142  0.001263  1.024837  0.002
H  H20  1  0.58894443  0.15262338  0.32278311  1  0.141082  0.000123  0.109199  0.103762  7.6e-05  1.052177  0.0
H  H21  1  0.06481588  0.34731695  0.17713409  1  0.143603  0.000149  0.109357  0.104027  9.7e-05  1.053247  0.0
H  H22  1  0.41106362  0.84737170  0.67721238  1  0.14113  -0.000122  0.109183  0.10373  -7.6e-05  1.052195  0.0
H  H23  1  0.93518224  0.65268298  0.82286210  1  0.143443  -0.000149  0.109359  0.104084  -9.7e-05  1.053177  0.0
H  H24  1  0.76939688  0.04857270  0.45858214  1  0.128405  0.001174  0.121641  0.136803  0.000619  0.964424  0.001
H  H25  1  0.27675839  0.45184836  0.04119484  1  0.114575  0.001261  0.12145  0.137537  0.000663  0.963457  0.001
H  H26  1  0.23062186  0.95143682  0.54141079  1  0.128605  -0.001173  0.121619  0.136811  -0.000619  0.964393  -0.001
H  H27  1  0.72325683  0.54813916  0.95880681  1  0.114518  -0.001261  0.12146  0.137529  -0.000663  0.963384  -0.001
H  H28  1  0.61560463  0.09351163  0.64015847  1  0.201514  0.002136  0.126463  0.112599  0.00108  1.001646  0.001
H  H29  1  0.34886808  0.40705754  0.85953729  1  0.136659  0.002249  0.125941  0.11226  0.001098  1.000877  0.001
H  H30  1  0.38441056  0.90649702  0.35983815  1  0.201651  -0.002136  0.12647  0.112636  -0.00108  1.001632  -0.001
H  H31  1  0.65114436  0.59293946  0.14045780  1  0.13673  -0.002249  0.125945  0.112223  -0.001099  1.000824  -0.001
H  H32  1  0.12224078  0.31199497  0.56063386  1  0.159252  0.002249  0.126484  0.105272  0.001085  1.012593  0.002
H  H33  1  0.99434058  0.18838658  0.93934586  1  0.148994  0.0023  0.126604  0.105541  0.001107  1.012644  0.002
H  H34  1  0.87776503  0.68799625  0.43936207  1  0.160031  -0.002248  0.126466  0.105301  -0.001084  1.012612  -0.002
H  H35  1  0.00565497  0.81161921  0.06065247  1  0.149002  -0.0023  0.12663  0.105572  -0.001107  1.012493  -0.002
C  C36  1  0.67994658  0.50733123  0.37054231  1  0.432654  -0.000871  0.050466  0.082634  -0.001466  3.883765  -0.001
C  C37  1  0.55816765  0.99241836  0.12952921  1  0.414208  -0.000781  0.050185  0.082088  -0.001346  3.886263  -0.001
C  C38  1  0.32004396  0.49267694  0.62947168  1  0.433347  0.000868  0.050409  0.082566  0.001467  3.8838  0.001
C  C39  1  0.44184287  0.00757398  0.87047225  1  0.413755  0.000781  0.050069  0.08197  0.001346  3.886451  0.001
C  C40  1  0.72669336  0.39019758  0.43313785  1  -0.089665  -0.006145  -0.071858  -0.088559  -0.004292  3.93595  -0.005
C  C41  1  0.55032025  0.10970012  0.06708670  1  0.103338  -0.006008  -0.070519  -0.085238  -0.004274  3.93225  -0.005
C  C42  1  0.27328025  0.60981946  0.56688230  1  -0.090738  0.00615  -0.071649  -0.088346  0.004294  3.935601  0.005
C  C43  1  0.44967029  0.89029912  0.93291964  1  0.103101  0.006007  -0.070529  -0.085269  0.004273  3.932474  0.005
C  C44  1  0.91039589  0.32413671  0.43418592  1  0.051364  0.002896  -0.044145  -0.025216  0.002007  3.874851  0.002
C  C45  1  0.66882479  0.17591591  0.06618340  1  -0.059218  0.002945  -0.043847  -0.026164  0.002027  3.879486  0.002
C  C46  1  0.08958388  0.67586930  0.56582014  1  0.052013  -0.002896  -0.044131  -0.025133  -0.002007  3.874817  -0.002
C  C47  1  0.33116790  0.82408437  0.93382528  1  -0.059604  -0.002945  -0.043784  -0.02608  -0.002027  3.879424  -0.002
C  C48  1  0.04394962  0.37557254  0.36648995  1  -0.048759  -0.006252  -0.008117  -0.05725  -0.004336  3.959426  -0.005
C  C49  1  0.78616050  0.12435554  0.13377382  1  -0.036389  -0.006147  -0.008062  -0.05678  -0.004291  3.961409  -0.005
C  C50  1  0.95603958  0.62441487  0.63350811  1  -0.049045  0.006252  -0.008069  -0.057284  0.004337  3.959641  0.005
C  C51  1  0.21385397  0.87563673  0.86622480  1  -0.036175  0.006144  -0.00805  -0.056602  0.004289  3.961133  0.005
C  C52  1  0.98730825  0.49497760  0.30583135  1  0.520729  0.001517  0.062152  0.073459  0.000242  3.886483  0.001
C  C53  1  0.78851041  0.00471697  0.19416383  1  0.48218  0.00146  0.061087  0.071599  0.000231  3.889075  0.001
C  C54  1  0.01268751  0.50501272  0.69416719  1  0.520044  -0.001517  0.06225  0.073559  -0.000242  3.886563  -0.001
C  C55  1  0.21150830  0.99526855  0.80583546  1  0.48225  -0.001459  0.061063  0.071477  -0.00023  3.889102  -0.001
C  C56  1  0.34166956  0.23835889  0.43041088  1  0.00982  0.004847  -0.009055  -0.056077  0.003431  3.953485  0.004
C  C57  1  0.01056562  0.26166962  0.06967671  1  0.000418  0.004965  -0.008501  -0.053866  0.003526  3.949527  0.004
C  C58  1  0.65833707  0.76163341  0.56958906  1  0.009949  -0.004847  -0.009084  -0.056166  -0.003431  3.953464  -0.004
C  C59  1  0.98942056  0.73834280  0.93031676  1  -0.000148  -0.004965  -0.008579  -0.054142  -0.003526  3.949954  -0.004
C  C60  1  0.52573520  0.16257953  0.40330140  1  -0.034406  -0.003764  -0.051056  -0.030881  -0.002557  3.910384  -0.002
C  C61  1  0.09206642  0.33743400  0.09662663  1  -0.051226  -0.003738  -0.050823  -0.03097  -0.002539  3.913814  -0.002
C  C62  1  0.47427205  0.83742040  0.59669469  1  -0.034097  0.003763  -0.051037  -0.030857  0.002556  3.910355  0.002
C  C63  1  0.90791363  0.66257749  0.90336806  1  -0.051469  0.003738  -0.050723  -0.030904  0.002539  3.913683  0.002
C  C64  1  0.62547148  0.10601961  0.47839927  1  0.030574  0.005546  -0.070686  -0.114755  0.003922  3.948494  0.004
C  C65  1  0.21022575  0.39418017  0.02146696  1  0.032279  0.005563  -0.071337  -0.116597  0.003918  3.948379  0.004
C  C66  1  0.37453941  0.89398994  0.52159497  1  0.030162  -0.005544  -0.070664  -0.11474  -0.003921  3.948399  -0.004
C  C67  1  0.78976806  0.60582365  0.97852989  1  0.032757  -0.005563  -0.071346  -0.116536  -0.003918  3.948338  -0.004
C  C68  1  0.54038211  0.12892471  0.57940568  1  0.382702  -0.000958  0.062252  0.103091  -4.2e-05  3.887147  -0.001
C  C69  1  0.24859827  0.37144012  0.92045315  1  0.466675  -0.000987  0.063366  0.104488  -4e-06  3.885232  -0.001
C  C70  1  0.45963213  0.87108012  0.42059260  1  0.38243  0.000957  0.062283  0.103077  4.1e-05  3.887001  0.001
C  C71  1  0.75139828  0.62856943  0.07954134  1  0.466668  0.000987  0.063353  0.104513  5e-06  3.885107  0.001
C  C72  1  0.26436046  0.25459607  0.53370273  1  0.453919  -0.001159  0.063771  0.07456  5.3e-05  3.87501  -0.001
C  C73  1  0.05230362  0.24567664  0.96633820  1  0.448642  -0.001047  0.064265  0.075249  8.5e-05  3.877419  -0.001
C  C74  1  0.73565273  0.74539616  0.46629466  1  0.453024  0.001158  0.063912  0.074719  -5.2e-05  3.874833  0.001
C  C75  1  0.94768690  0.75433480  0.03365473  1  0.449058  0.001046  0.064225  0.07533  -8.6e-05  3.877298  0.001
C  C76  1  0.24566066  0.30797284  0.34563413  1  0.948258  4.4e-05  0.176458  0.376222  -0.0  3.959017  0.0
C  C77  1  0.89936761  0.19202207  0.15462045  1  0.952136  -3.7e-05  0.175466  0.37423  -4.2e-05  3.955643  0.0
C  C78  1  0.75433984  0.69201556  0.65436473  1  0.947937  -4.5e-05  0.176392  0.376178  -1e-06  3.958751  0.0
C  C79  1  0.10061674  0.80798257  0.84537127  1  0.952515  3.7e-05  0.175527  0.374296  4.2e-05  3.955883  0.0
N  N80  1  0.80960213  0.56067036  0.31062185  1  -1.241952  -0.094435  -0.346394  -0.232639  -0.065223  3.619724  -0.082
N  N81  1  0.68121742  0.93902755  0.18934192  1  -1.250055  -0.094079  -0.345905  -0.232611  -0.064956  3.625898  -0.081
N  N82  1  0.19039942  0.43933360  0.68938021  1  -1.241854  0.094444  -0.346377  -0.232608  0.065229  3.619906  0.082
N  N83  1  0.31879844  0.06096755  0.81065444  1  -1.249893  0.094073  -0.345801  -0.232537  0.064952  3.625922  0.081
N  N84  1  0.36367269  0.20229794  0.60566039  1  -1.234092  0.091126  -0.339166  -0.223822  0.063121  3.597352  0.079
N  N85  1  0.17118564  0.29812493  0.89433898  1  -1.216888  0.09117  -0.34018  -0.226281  0.063167  3.601536  0.079
N  N86  1  0.63634409  0.79770105  0.39433647  1  -1.234017  -0.091122  -0.339302  -0.224052  -0.063119  3.597395  -0.079
N  N87  1  0.82881386  0.70188081  0.10565724  1  -1.21723  -0.091168  -0.340206  -0.226285  -0.063167  3.601342  -0.079
O  O88  1  0.33530764  0.31252117  0.25566507  1  -1.060508  0.000954  -0.237437  -0.373554  0.00064  2.105468  0.001
O  O89  1  0.90360968  0.18751268  0.24455900  1  -1.057091  0.001307  -0.236441  -0.372063  0.000884  2.104186  0.001
O  O90  1  0.66469449  0.68746941  0.74434254  1  -1.060548  -0.000955  -0.237491  -0.373566  -0.000641  2.104867  -0.001
O  O91  1  0.09635027  0.81249998  0.75544322  1  -1.057099  -0.001307  -0.236468  -0.372106  -0.000883  2.104608  -0.001
F  F92  1  0.33146307  0.65004668  0.15672749  1  -0.831043  -5.7e-05  -0.249343  -0.545597  -4.5e-05  1.075097  0.0
F  F93  1  0.13861998  0.84983751  0.34310123  1  -0.836331  -8.1e-05  -0.249199  -0.545341  -5.9e-05  1.075052  0.0
F  F94  1  0.66854841  0.34996461  0.84325974  1  -0.830975  5.7e-05  -0.249314  -0.545558  4.5e-05  1.075043  0.0
F  F95  1  0.86136265  0.15015295  0.65690241  1  -0.836313  8.1e-05  -0.249206  -0.545349  5.9e-05  1.075043  0.0
F  F96  1  0.02061181  0.75007739  0.24994345  1  -0.837362  0.001657  -0.217854  -0.54451  0.001082  1.329966  0.001
F  F97  1  0.97939827  0.24991297  0.75005630  1  -0.837324  -0.001657  -0.217884  -0.544537  -0.001082  1.329943  -0.001
F  F98  1  0.21783383  0.88179128  0.15647419  1  -0.840187  -0.00025  -0.243488  -0.540318  -0.000193  1.111936  0.0
F  F99  1  0.25567504  0.61801606  0.34334175  1  -0.840041  -0.000241  -0.243678  -0.540415  -0.000188  1.111197  0.0
F  F100  1  0.78218813  0.11820776  0.84352470  1  -0.840192  0.000249  -0.243497  -0.540357  0.000193  1.111922  0.0
F  F101  1  0.74431253  0.38198109  0.65665897  1  -0.840029  0.000241  -0.243682  -0.540429  0.000188  1.111162  0.0
F  F102  1  0.45275486  0.74978868  0.25000182  1  -0.843493  0.001728  -0.217171  -0.546077  0.001156  1.296868  0.001
F  F103  1  0.54723686  0.25020187  0.75000464  1  -0.843529  -0.001728  -0.217242  -0.546174  -0.001155  1.296768  -0.001
