# generated using pymatgen
data_ZnH22C25N4O5
_symmetry_space_group_name_H-M   'P 1'
_cell_length_a   12.99118771
_cell_length_b   13.90342819
_cell_length_c   16.77297024
_cell_angle_alpha   79.90393583
_cell_angle_beta   67.23027062
_cell_angle_gamma   62.15224758
_symmetry_Int_Tables_number   1
_chemical_formula_structural   ZnH22C25N4O5
_chemical_formula_sum   'Zn4 H88 C100 N16 O20'
_cell_volume   2469.90517940
_cell_formula_units_Z   4
loop_
 _symmetry_equiv_pos_site_id
 _symmetry_equiv_pos_as_xyz
  1  'x, y, z'
loop_
 _atom_site_type_symbol
 _atom_site_label
 _atom_site_symmetry_multiplicity
 _atom_site_fract_x
 _atom_site_fract_y
 _atom_site_fract_z
 _atom_site_occupancy
 _atom_site_pbe_bader_charge
 _atom_site_pbe_bader_spin_density
 _atom_site_pbe_cm5_charge
 _atom_site_pbe_ddec_charge
 _atom_site_pbe_ddec_spin_density
 _atom_site_pbe_ddec_sum_bond_order
 _atom_site_pbe_magmom
Zn  Zn0  1  0.47958517  0.72550441  0.29641383  1  1.250888  0  0.690562  0.780939  0  2.405518  0
Zn  Zn1  1  0.00137504  0.77442355  0.20369732  1  1.250836  0  0.690631  0.779707  0  2.405719  0
Zn  Zn2  1  0.52041975  0.27449313  0.70358455  1  1.250956  0  0.690555  0.780874  0  2.405553  0
Zn  Zn3  1  0.99862350  0.22557714  0.79630335  1  1.250846  0  0.690605  0.779639  0  2.405643  0
H  H4  1  0.16620129  0.66523834  0.51196800  1  -0.001756  0  0.088614  0.090649  0  1.005091  0
H  H5  1  0.84370532  0.83524566  0.98773610  1  -0.008426  0  0.089211  0.091629  0  1.004258  0
H  H6  1  0.83380371  0.33475671  0.48803148  1  -0.001699  0  0.088615  0.09063  0  1.005107  0
H  H7  1  0.15630267  0.16475262  0.01226386  1  -0.008375  0  0.089203  0.091556  0  1.004256  0
H  H8  1  0.09978199  0.79980232  0.47558724  1  0.061212  0  0.096921  0.119566  0  0.99091  0
H  H9  1  0.87479759  0.70079713  0.02424492  1  0.070282  0  0.096872  0.119833  0  0.989288  0
H  H10  1  0.90022186  0.20019283  0.52441002  1  0.06118  0  0.096911  0.119544  0  0.990886  0
H  H11  1  0.12520770  0.29919940  0.97575768  1  0.070122  0  0.096849  0.119843  0  0.98924  0
H  H12  1  0.17996803  0.73276185  0.63561386  1  0.026167  0  0.085428  0.079291  0  0.999437  0
H  H13  1  0.04859974  0.76715296  0.86423287  1  0.047565  0  0.086092  0.079928  0  0.999169  0
H  H14  1  0.82003547  0.26723736  0.36438346  1  0.026194  0  0.085417  0.079246  0  0.999358  0
H  H15  1  0.95140816  0.23284778  0.13576684  1  0.047949  0  0.08603  0.079878  0  0.999214  0
H  H16  1  0.02417313  0.78444189  0.64023209  1  -0.01014  0  0.082025  0.073875  0  1.025802  0
H  H17  1  0.94887559  0.71573948  0.85953484  1  -0.005117  0  0.080774  0.072278  0  1.025142  0
H  H18  1  0.97583405  0.21555239  0.35976643  1  -0.0102  0  0.082024  0.073918  0  1.025759  0
H  H19  1  0.05112901  0.28426519  0.14046788  1  -0.005514  0  0.080767  0.072261  0  1.025229  0
H  H20  1  0.18188038  0.90820590  0.56788125  1  0.022238  0  0.081774  0.070561  0  1.024697  0
H  H21  1  0.15734328  0.59169588  0.93251244  1  0.013344  0  0.082126  0.071292  0  1.022429  0
H  H22  1  0.81812053  0.09179498  0.43211536  1  0.022289  0  0.081761  0.070559  0  1.024753  0
H  H23  1  0.84266255  0.40830329  0.06748592  1  0.013447  0  0.08216  0.071304  0  1.022395  0
H  H24  1  0.02339971  0.95982849  0.57904309  1  0.040267  0  0.089839  0.088374  0  0.989792  0
H  H25  1  0.06173727  0.54030378  0.92084774  1  0.024135  0  0.089692  0.087764  0  0.990365  0
H  H26  1  0.97660263  0.04016497  0.42095563  1  0.040021  0  0.089839  0.08838  0  0.989737  0
H  H27  1  0.93826360  0.45969690  0.07915311  1  0.024084  0  0.089689  0.087751  0  0.990367  0
H  H28  1  0.12262096  0.88623684  0.72988441  1  0.045867  0  0.092784  0.107625  0  0.985249  0
H  H29  1  0.23892755  0.61369640  0.77062873  1  0.021258  0  0.092008  0.105774  0  0.984623  0
H  H30  1  0.87737861  0.11376314  0.27011394  1  0.045857  0  0.092784  0.107558  0  0.985292  0
H  H31  1  0.76107471  0.38629955  0.22936889  1  0.021252  0  0.092019  0.105782  0  0.984569  0
H  H32  1  0.96612909  0.93572316  0.73871507  1  0.050008  0  0.098858  0.116297  0  0.986634  0
H  H33  1  0.14077357  0.56461096  0.76120050  1  0.048582  0  0.098411  0.114742  0  0.986928  0
H  H34  1  0.03386848  0.06427855  0.26128112  1  0.050061  0  0.098888  0.116299  0  0.98661  0
H  H35  1  0.85922339  0.43539061  0.23879884  1  0.048638  0  0.098412  0.114726  0  0.987001  0
H  H36  1  0.48239329  0.79100385  0.46499622  1  0.236659  0  0.135793  0.119727  0  1.067196  0
H  H37  1  0.23835778  0.70873428  0.03517378  1  0.247478  0  0.135949  0.120306  0  1.06792  0
H  H38  1  0.51761066  0.20898892  0.53499959  1  0.236075  0  0.135809  0.119724  0  1.067244  0
H  H39  1  0.76163576  0.29126482  0.96482596  1  0.246646  0  0.135925  0.120231  0  1.068037  0
H  H40  1  0.68217762  0.82616599  0.20494371  1  0.14327  0  0.12536  0.128373  0  1.004049  0
H  H41  1  0.21291214  0.67396526  0.29532429  1  0.156404  0  0.125024  0.127693  0  1.005445  0
H  H42  1  0.31782864  0.17383240  0.79505377  1  0.143347  0  0.125311  0.128327  0  1.004038  0
H  H43  1  0.78709112  0.32602986  0.70467356  1  0.156331  0  0.125018  0.12763  0  1.005538  0
H  H44  1  0.74306508  0.91388138  0.30460493  1  0.175204  0  0.123517  0.129894  0  1.041968  0
H  H45  1  0.46127930  0.58621536  0.19579975  1  0.155809  0  0.124151  0.130787  0  1.040628  0
H  H46  1  0.25692993  0.08611926  0.69539674  1  0.175148  0  0.123533  0.129874  0  1.041995  0
H  H47  1  0.53872517  0.41378001  0.80419267  1  0.155788  0  0.124135  0.130774  0  1.040653  0
H  H48  1  0.73542621  0.97271758  0.41525363  1  0.070821  0  0.113531  0.126257  0  1.006687  0
H  H49  1  0.62318886  0.52770487  0.08504477  1  0.092197  0  0.113388  0.126361  0  1.006562  0
H  H50  1  0.26455892  0.02729199  0.58474857  1  0.071007  0  0.113531  0.126203  0  1.0068  0
H  H51  1  0.37679505  0.47229577  0.91495710  1  0.092164  0  0.113398  0.126425  0  1.006701  0
H  H52  1  0.77212353  0.99391120  0.54406406  1  0.128779  0  0.115464  0.11881  0  1.001626  0
H  H53  1  0.80961693  0.50677199  0.95617918  1  0.116778  0  0.115437  0.118403  0  1.001464  0
H  H54  1  0.22785976  0.00610087  0.45593712  1  0.128588  0  0.115442  0.118819  0  1.001614  0
H  H55  1  0.19037280  0.49322857  0.04382443  1  0.116643  0  0.115448  0.118449  0  1.001357  0
H  H56  1  0.55922540  0.82203215  0.69770523  1  0.058217  0  0.102647  0.099117  0  1.020505  0
H  H57  1  0.57835823  0.67757386  0.80251574  1  0.06091  0  0.10322  0.099732  0  1.019786  0
H  H58  1  0.44077583  0.17796455  0.30229386  1  0.058244  0  0.102615  0.099113  0  1.02049  0
H  H59  1  0.42164134  0.32243195  0.19747984  1  0.061152  0  0.103229  0.099738  0  1.019904  0
H  H60  1  0.52602595  0.79604717  0.57046750  1  0.073248  0  0.116275  0.13116  0  0.983482  0
H  H61  1  0.39210715  0.70330659  0.92982248  1  0.101632  0  0.116457  0.131535  0  0.98241  0
H  H62  1  0.47397740  0.20394550  0.42953061  1  0.073258  0  0.116271  0.131207  0  0.983462  0
H  H63  1  0.60789234  0.29669596  0.07017307  1  0.10172  0  0.116477  0.131573  0  0.982322  0
H  H64  1  0.44925277  0.97523522  0.78556197  1  0.091679  0  0.102257  0.098256  0  1.047706  0
H  H65  1  0.71013599  0.52448114  0.71447553  1  0.093457  0  0.101145  0.096545  0  1.048434  0
H  H66  1  0.55073953  0.02476644  0.21443530  1  0.091879  0  0.102243  0.098182  0  1.04773  0
H  H67  1  0.28987777  0.47551389  0.28552442  1  0.0936  0  0.101142  0.096485  0  1.048349  0
H  H68  1  0.34269555  0.95555155  0.93970994  1  0.048232  0  0.113528  0.123827  0  0.990798  0
H  H69  1  0.73851587  0.54386044  0.56025959  1  0.05849  0  0.113617  0.123863  0  0.991931  0
H  H70  1  0.65729722  0.04445239  0.06029074  1  0.048275  0  0.113551  0.1238  0  0.990821  0
H  H71  1  0.26149865  0.45612967  0.43974112  1  0.057688  0  0.113708  0.123927  0  0.991836  0
H  H72  1  0.69594228  0.80537919  0.97886115  1  0.089352  0  0.112071  0.118018  0  1.033178  0
H  H73  1  0.97925476  0.69541119  0.52159461  1  0.060564  0  0.111347  0.117316  0  1.032311  0
H  H74  1  0.30404696  0.19463047  0.02113946  1  0.089322  0  0.112111  0.118018  0  1.033269  0
H  H75  1  0.02075366  0.30458922  0.47841215  1  0.060574  0  0.111327  0.117306  0  1.032204  0
H  H76  1  0.79957681  0.83077418  0.82454028  1  0.070182  0  0.110589  0.108452  0  1.020737  0
H  H77  1  0.95364937  0.67014012  0.67594066  1  0.095329  0  0.109853  0.107432  0  1.020782  0
H  H78  1  0.20042087  0.16922806  0.17546215  1  0.069861  0  0.11058  0.108445  0  1.020745  0
H  H79  1  0.04635755  0.32985285  0.32406863  1  0.095425  0  0.109842  0.107468  0  1.020732  0
H  H80  1  0.61188096  0.76317711  0.10096765  1  0.241393  0  0.13795  0.114169  0  1.041464  0
H  H81  1  0.97598279  0.73677017  0.39917177  1  0.207344  0  0.138354  0.114089  0  1.040758  0
H  H82  1  0.38812038  0.23683744  0.89903278  1  0.241432  0  0.138007  0.114259  0  1.041454  0
H  H83  1  0.02402484  0.26323210  0.60082994  1  0.202888  0  0.138315  0.113997  0  1.040715  0
H  H84  1  0.22974290  0.88612813  0.24623193  1  0.18327  0  0.130369  0.136246  0  0.998697  0
H  H85  1  0.86216087  0.61369197  0.25387039  1  0.178406  0  0.130027  0.135518  0  0.999767  0
H  H86  1  0.77025571  0.11386716  0.75376215  1  0.183422  0  0.130353  0.136227  0  0.998703  0
H  H87  1  0.13784256  0.38630980  0.74614227  1  0.178215  0  0.129997  0.135497  0  0.999775  0
H  H88  1  0.25540067  0.95512480  0.07703069  1  0.13446  0  0.131326  0.134114  0  0.992906  0
H  H89  1  0.78755934  0.54472308  0.42308949  1  0.143848  0  0.131363  0.133496  0  0.993088  0
H  H90  1  0.74460073  0.04487273  0.92296784  1  0.13451  0  0.131334  0.134121  0  0.992847  0
H  H91  1  0.21244665  0.45527397  0.57691961  1  0.143843  0  0.131337  0.133467  0  0.993003  0
C  C92  1  0.29241050  0.73471502  0.45756608  1  1.563034  0  0.200012  0.62794  0  4.166747  0
C  C93  1  0.98489471  0.76526152  0.04226411  1  1.571392  0  0.199694  0.627128  0  4.165262  0
C  C94  1  0.70759844  0.26527930  0.54243152  1  1.563114  0  0.200065  0.628037  0  4.166674  0
C  C95  1  0.01510582  0.23473748  0.95773787  1  1.572126  0  0.199807  0.627132  0  4.164992  0
C  C96  1  0.16162433  0.74669312  0.51138292  1  -0.019918  0  -0.167707  -0.28994  0  3.930152  0
C  C97  1  0.91968593  0.75363546  0.98841254  1  -0.030895  0  -0.16812  -0.291024  0  3.92692  0
C  C98  1  0.83838085  0.25330285  0.48861430  1  -0.019999  0  -0.167754  -0.289999  0  3.930325  0
C  C99  1  0.08032072  0.24636197  0.01158831  1  -0.031677  0  -0.16807  -0.290876  0  3.926669  0
C  C100  1  0.11360921  0.78731957  0.60359154  1  0.024913  0  -0.16948  -0.124557  0  3.956576  0
C  C101  1  0.00449168  0.71279068  0.89626326  1  -0.009312  0  -0.169756  -0.124447  0  3.955055  0
C  C102  1  0.88639572  0.21267805  0.39640513  1  0.024844  0  -0.169449  -0.12452  0  3.956693  0
C  C103  1  0.99551638  0.28721086  0.10373673  1  -0.009159  0  -0.169697  -0.12444  0  3.955214  0
C  C104  1  0.09398683  0.90382864  0.60725865  1  -0.017069  0  -0.169529  -0.12293  0  3.945922  0
C  C105  1  0.10472422  0.59619121  0.89286090  1  -0.002226  0  -0.169297  -0.122924  0  3.943997  0
C  C106  1  0.90601516  0.09616892  0.39273928  1  -0.017014  0  -0.169505  -0.122907  0  3.945986  0
C  C107  1  0.89527826  0.40380872  0.10713874  1  -0.002429  0  -0.169322  -0.122942  0  3.944041  0
C  C108  1  0.05419729  0.94047760  0.69949456  1  -0.053387  0  -0.169308  -0.295407  0  3.937822  0
C  C109  1  0.19415685  0.55956052  0.80072320  1  -0.006765  0  -0.168258  -0.292027  0  3.935867  0
C  C110  1  0.94580068  0.05952322  0.30050330  1  -0.053277  0  -0.169301  -0.295297  0  3.937885  0
C  C111  1  0.80584289  0.44044034  0.19927373  1  -0.006786  0  -0.168264  -0.29203  0  3.935862  0
C  C112  1  0.03070706  0.05705374  0.70660887  1  1.536394  0  0.193314  0.6104  0  4.17732  0
C  C113  1  0.29414587  0.44291357  0.79356537  1  1.542473  0  0.19565  0.615052  0  4.176077  0
C  C114  1  0.96928651  0.94295127  0.29338640  1  1.536125  0  0.193298  0.610412  0  4.17705  0
C  C115  1  0.70585386  0.55708725  0.20643242  1  1.542144  0  0.195717  0.615208  0  4.175976  0
C  C116  1  0.54470160  0.81390653  0.40927035  1  0.916587  0  0.145061  0.088127  0  3.904217  0
C  C117  1  0.26772188  0.68589789  0.09097127  1  0.941091  0  0.144817  0.086589  0  3.903005  0
C  C118  1  0.45529589  0.18609189  0.59072666  1  0.916752  0  0.14496  0.088069  0  3.904346  0
C  C119  1  0.73227375  0.31410290  0.90902726  1  0.942327  0  0.144804  0.086536  0  3.903182  0
C  C120  1  0.64519359  0.83701628  0.27442435  1  0.357748  0  0.006945  -0.017521  0  3.975133  0
C  C121  1  0.25637803  0.66310336  0.22585509  1  0.376764  0  0.00658  -0.017924  0  3.977375  0
C  C122  1  0.35480858  0.16298215  0.72557217  1  0.357058  0  0.006903  -0.017556  0  3.975378  0
C  C123  1  0.74362584  0.33688612  0.77414154  1  0.374727  0  0.006651  -0.017719  0  3.976988  0
C  C124  1  0.67750142  0.87933782  0.32356149  1  0.289197  0  0.003418  -0.095253  0  3.881986  0
C  C125  1  0.38014691  0.62076219  0.17679527  1  0.292008  0  0.00309  -0.09653  0  3.881192  0
C  C126  1  0.32249723  0.12066053  0.67643688  1  0.289552  0  0.00343  -0.095217  0  3.88214  0
C  C127  1  0.61985253  0.37923140  0.82320046  1  0.294066  0  0.003087  -0.096588  0  3.881241  0
C  C128  1  0.62817679  0.88287708  0.48395311  1  0.277051  0  0.104967  0.1859  0  4.005275  0
C  C129  1  0.49471046  0.61706573  0.01634838  1  0.287016  0  0.104696  0.184451  0  4.005078  0
C  C130  1  0.37181842  0.11712448  0.51604630  1  0.276685  0  0.104928  0.18594  0  4.005416  0
C  C131  1  0.50528782  0.38292788  0.98364684  1  0.286772  0  0.104673  0.184347  0  4.005055  0
C  C132  1  0.69642111  0.93977980  0.47705393  1  0.007327  0  -0.089196  -0.175997  0  3.961529  0
C  C133  1  0.61294067  0.56048735  0.02324150  1  -0.014552  0  -0.088269  -0.17381  0  3.961672  0
C  C134  1  0.30356485  0.06022811  0.52294907  1  0.007912  0  -0.089167  -0.175916  0  3.961829  0
C  C135  1  0.38705165  0.43950860  0.97675599  1  -0.014203  0  -0.088215  -0.173888  0  3.961876  0
C  C136  1  0.71606860  0.95275435  0.54928155  1  -0.01735  0  -0.067186  -0.058078  0  3.93564  0
C  C137  1  0.71764307  0.54764246  0.95097925  1  0.006681  0  -0.068077  -0.059058  0  3.938126  0
C  C138  1  0.28391929  0.04725440  0.45072081  1  -0.017347  0  -0.067064  -0.057942  0  3.935762  0
C  C139  1  0.28235054  0.45235986  0.04902137  1  0.006498  0  -0.068169  -0.059175  0  3.938145  0
C  C140  1  0.66626962  0.91176209  0.63009401  1  -0.037245  0  -0.022487  -0.02663  0  3.985767  0
C  C141  1  0.70764901  0.58846616  0.87015774  1  0.015166  0  -0.022252  -0.027107  0  3.989394  0
C  C142  1  0.33372030  0.08823934  0.36990818  1  -0.037539  0  -0.022582  -0.026889  0  3.98588  0
C  C143  1  0.29234257  0.41154352  0.12984220  1  0.015154  0  -0.022279  -0.027057  0  3.989265  0
C  C144  1  0.59559901  0.85746911  0.63648567  1  -0.047845  0  -0.07905  -0.081785  0  3.995412  0
C  C145  1  0.58908624  0.64235084  0.86375362  1  -0.069705  0  -0.079015  -0.081448  0  3.995978  0
C  C146  1  0.40440063  0.14252839  0.36351378  1  -0.047876  0  -0.079047  -0.081791  0  3.995361  0
C  C147  1  0.41091097  0.35765486  0.13624434  1  -0.069738  0  -0.078934  -0.08136  0  3.99599  0
C  C148  1  0.57720013  0.84216277  0.56423851  1  0.055198  0  -0.092913  -0.18022  0  3.975923  0
C  C149  1  0.48321472  0.65751402  0.93600974  1  -0.029324  0  -0.093268  -0.180809  0  3.975824  0
C  C150  1  0.42279960  0.15783231  0.43576034  1  0.055366  0  -0.092865  -0.180239  0  3.975972  0
C  C151  1  0.51678294  0.34248528  0.06398585  1  -0.029184  0  -0.093255  -0.180773  0  3.97582  0
C  C152  1  0.70351770  0.91717415  0.70203635  1  0.923332  0  0.157313  0.338415  0  3.994274  0
C  C153  1  0.82217903  0.58318976  0.79827517  1  0.921677  0  0.1578  0.341133  0  3.995145  0
C  C154  1  0.29647283  0.08282743  0.29796270  1  0.922361  0  0.157449  0.338615  0  3.994059  0
C  C155  1  0.17781913  0.41680906  0.20173088  1  0.921521  0  0.157729  0.340844  0  3.995122  0
C  C156  1  0.63288533  0.90215053  0.79377015  1  -0.036066  0  -0.02106  -0.023815  0  3.986325  0
C  C157  1  0.82812488  0.59824827  0.70654754  1  -0.061022  0  -0.021706  -0.024668  0  3.987365  0
C  C158  1  0.36710865  0.09784784  0.20622786  1  -0.036245  0  -0.020974  -0.023683  0  3.986242  0
C  C159  1  0.17188768  0.40174659  0.29345614  1  -0.061008  0  -0.021637  -0.024653  0  3.987207  0
C  C160  1  0.50385131  0.93692111  0.82754816  1  -0.000591  0  -0.082179  -0.087056  0  3.979461  0
C  C161  1  0.76806770  0.56312488  0.67262912  1  -0.036439  0  -0.080936  -0.085154  0  3.977144  0
C  C162  1  0.49613946  0.06308457  0.17245036  1  -1.1e-05  0  -0.082249  -0.087082  0  3.979707  0
C  C163  1  0.23194999  0.43686352  0.32737342  1  -0.037127  0  -0.080998  -0.085048  0  3.977027  0
C  C164  1  0.44308812  0.92690088  0.91533413  1  0.003665  0  -0.093631  -0.177084  0  3.974283  0
C  C165  1  0.78535950  0.57296082  0.58478524  1  0.018029  0  -0.092869  -0.175362  0  3.974277  0
C  C166  1  0.55690530  0.07310631  0.08466684  1  0.003243  0  -0.093632  -0.177021  0  3.974  0
C  C167  1  0.21465434  0.42703171  0.41521581  1  0.019813  0  -0.092907  -0.175432  0  3.974079  0
C  C168  1  0.51160542  0.87911590  0.97054845  1  0.218538  0  0.104081  0.184775  0  4.00932  0
C  C169  1  0.86109408  0.62095657  0.52965403  1  0.269412  0  0.104158  0.182965  0  4.010282  0
C  C170  1  0.48838709  0.12089545  0.02945063  1  0.218769  0  0.104065  0.18468  0  4.009024  0
C  C171  1  0.13891210  0.37904143  0.47035195  1  0.269199  0  0.104162  0.18292  0  4.010346  0
C  C172  1  0.64084621  0.84309795  0.93727188  1  0.064886  0  -0.090279  -0.174267  0  3.970215  0
C  C173  1  0.92052498  0.65744468  0.56306868  1  0.061258  0  -0.089839  -0.172545  0  3.968777  0
C  C174  1  0.35914780  0.15691506  0.06272658  1  0.064885  0  -0.090224  -0.174173  0  3.970404  0
C  C175  1  0.07948101  0.34255816  0.43693850  1  0.061058  0  -0.089894  -0.172475  0  3.968618  0
C  C176  1  0.69971033  0.85625762  0.85032974  1  -0.015131  0  -0.074419  -0.072676  0  3.978099  0
C  C177  1  0.90536074  0.64438767  0.65005535  1  -0.013864  0  -0.073582  -0.072857  0  3.980255  0
C  C178  1  0.30028631  0.14374817  0.14966626  1  -0.015045  0  -0.074449  -0.072759  0  3.978274  0
C  C179  1  0.09464300  0.35561272  0.34995190  1  -0.013727  0  -0.073583  -0.072915  0  3.979857  0
C  C180  1  0.51218131  0.80979425  0.11658902  1  0.910649  0  0.14709  0.097176  0  3.888753  0
C  C181  1  0.93854434  0.69008279  0.38358933  1  0.933344  0  0.146153  0.095197  0  3.88593  0
C  C182  1  0.48781654  0.19021462  0.88341093  1  0.91044  0  0.147032  0.097055  0  3.888873  0
C  C183  1  0.06146837  0.30991857  0.61641443  1  0.938221  0  0.146292  0.095491  0  3.885935  0
C  C184  1  0.31273102  0.87281067  0.18985701  1  0.371608  0  0.015336  0.003919  0  3.945437  0
C  C185  1  0.87539069  0.62703108  0.31028289  1  0.379163  0  0.014761  0.00137  0  3.948124  0
C  C186  1  0.68726567  0.12719244  0.81014434  1  0.37135  0  0.015296  0.003803  0  3.945726  0
C  C187  1  0.12461120  0.37297173  0.68972503  1  0.379181  0  0.014834  0.001407  0  3.948239  0
C  C188  1  0.32483274  0.90618790  0.10629264  1  0.279179  0  0.002692  -0.104612  0  3.889544  0
C  C189  1  0.83733850  0.59363853  0.39383435  1  0.27456  0  0.003482  -0.101626  0  3.887702  0
C  C190  1  0.67516414  0.09381616  0.89370559  1  0.278826  0  0.002792  -0.10451  0  3.889653  0
C  C191  1  0.16266749  0.40635852  0.60617475  1  0.274177  0  0.003446  -0.101585  0  3.88752  0
N  N192  1  0.61435737  0.86313125  0.40951631  1  -1.250843  0  -0.223231  0.001526  0  3.790765  0
N  N193  1  0.38678879  0.63676812  0.09080632  1  -1.250588  0  -0.223384  0.002693  0  3.785312  0
N  N194  1  0.38563969  0.13686790  0.59048243  1  -1.25101  0  -0.223226  0.001465  0  3.790724  0
N  N195  1  0.61320787  0.36323196  0.90918989  1  -1.250987  0  -0.223433  0.00277  0  3.785438  0
N  N196  1  0.45224156  0.86621175  0.05975024  1  -1.251638  0  -0.223865  0.000579  0  3.786475  0
N  N197  1  0.87820285  0.63365531  0.44041326  1  -1.262056  0  -0.223539  0.001826  0  3.784327  0
N  N198  1  0.54775730  0.13379634  0.94024909  1  -1.251085  0  -0.22398  0.000583  0  3.786568  0
N  N199  1  0.12181102  0.36634025  0.55959292  1  -1.262288  0  -0.223577  0.001634  0  3.784502  0
N  N200  1  0.43026071  0.81304250  0.19489756  1  -1.229228  0  -0.351167  -0.283086  0  3.588018  0
N  N201  1  0.93816962  0.68682104  0.30525796  1  -1.218  0  -0.350345  -0.279761  0  3.583696  0
N  N202  1  0.56973941  0.18696314  0.80510169  1  -1.22927  0  -0.351127  -0.282983  0  3.587993  0
N  N203  1  0.06183113  0.31318191  0.69474689  1  -1.217724  0  -0.350386  -0.279804  0  3.583799  0
N  N204  1  0.56144890  0.79784183  0.32870420  1  -1.214926  0  -0.352873  -0.282979  0  3.6167  0
N  N205  1  0.18781157  0.70210571  0.17151027  1  -1.264654  0  -0.351893  -0.280594  0  3.617141  0
N  N206  1  0.43855052  0.20215743  0.67129216  1  -1.214002  0  -0.352759  -0.282904  0  3.616804  0
N  N207  1  0.81218648  0.29788679  0.82849146  1  -1.264652  0  -0.35187  -0.280567  0  3.616984  0
O  O208  1  0.32014445  0.73020286  0.37454943  1  -1.189291  0  -0.348098  -0.569281  0  2.302959  0
O  O209  1  0.92516595  0.76968388  0.12528810  1  -1.185172  0  -0.348673  -0.568932  0  2.299307  0
O  O210  1  0.67985526  0.26980942  0.62544708  1  -1.189257  0  -0.348141  -0.569342  0  2.302978  0
O  O211  1  0.07483861  0.23030611  0.87471503  1  -1.185063  0  -0.348657  -0.568873  0  2.299208  0
O  O212  1  0.36375143  0.72911385  0.49296028  1  -1.196193  0  -0.33922  -0.568854  0  2.119961  0
O  O213  1  0.08606290  0.77073268  0.00686735  1  -1.195966  0  -0.338822  -0.568298  0  2.121347  0
O  O214  1  0.63626315  0.27086500  0.50703746  1  -1.196195  0  -0.339197  -0.568826  0  2.119942  0
O  O215  1  0.91392929  0.22928001  0.99313799  1  -1.195952  0  -0.33898  -0.56838  0  2.121251  0
O  O216  1  0.97486848  0.13124619  0.66310406  1  -1.197058  0  -0.329432  -0.566726  0  2.129879  0
O  O217  1  0.26896981  0.36873741  0.83705636  1  -1.200473  0  -0.330602  -0.568968  0  2.128253  0
O  O218  1  0.02512648  0.86875707  0.33689396  1  -1.196767  0  -0.329412  -0.566754  0  2.129582  0
O  O219  1  0.73102451  0.63126264  0.16294052  1  -1.200145  0  -0.330618  -0.568994  0  2.1283  0
O  O220  1  0.07049681  0.07246821  0.76161867  1  -1.177744  0  -0.356589  -0.585761  0  2.275809  0
O  O221  1  0.40428667  0.42747995  0.73847272  1  -1.185758  0  -0.357402  -0.588183  0  2.27733  0
O  O222  1  0.92949993  0.92753517  0.23837672  1  -1.17782  0  -0.356658  -0.585852  0  2.275823  0
O  O223  1  0.59571157  0.57251929  0.26152398  1  -1.185765  0  -0.357452  -0.588284  0  2.277307  0
O  O224  1  0.79747962  0.93061825  0.68545142  1  -1.077752  0  -0.244872  -0.387758  0  2.140057  0
O  O225  1  0.91298097  0.56986619  0.81484017  1  -1.083881  0  -0.246048  -0.390372  0  2.140429  0
O  O226  1  0.20251275  0.06938088  0.31454780  1  -1.077037  0  -0.245004  -0.387887  0  2.139971  0
O  O227  1  0.08700555  0.43013868  0.18517610  1  -1.084056  0  -0.245991  -0.390149  0  2.140413  0
