# generated using pymatgen
data_Cu3P2H10C10(NO4)2
_symmetry_space_group_name_H-M   'P 1'
_cell_length_a   5.17449305
_cell_length_b   7.95084232
_cell_length_c   20.41201084
_cell_angle_alpha   89.99965673
_cell_angle_beta   89.99981726
_cell_angle_gamma   107.25025771
_symmetry_Int_Tables_number   1
_chemical_formula_structural   Cu3P2H10C10(NO4)2
_chemical_formula_sum   'Cu6 P4 H20 C20 N4 O16'
_cell_volume   802.00776577
_cell_formula_units_Z   2
loop_
 _symmetry_equiv_pos_site_id
 _symmetry_equiv_pos_as_xyz
  1  'x, y, z'
loop_
 _atom_site_type_symbol
 _atom_site_label
 _atom_site_symmetry_multiplicity
 _atom_site_fract_x
 _atom_site_fract_y
 _atom_site_fract_z
 _atom_site_occupancy
 _atom_site_hle17_ddec_charge
 _atom_site_hle17_ddec_spin_density
 _atom_site_hle17_ddec_sum_bond_order
 _atom_site_hle17_magmom
 _atom_site_hse06_10hf_ddec_charge
 _atom_site_hse06_10hf_ddec_spin_density
 _atom_site_hse06_10hf_ddec_sum_bond_order
 _atom_site_hse06_10hf_magmom
 _atom_site_hse06_ddec_charge
 _atom_site_hse06_ddec_spin_density
 _atom_site_hse06_ddec_sum_bond_order
 _atom_site_hse06_magmom
 _atom_site_pbe_cm5_charge
 _atom_site_pbe_ddec_charge
 _atom_site_pbe_ddec_spin_density
 _atom_site_pbe_ddec_sum_bond_order
 _atom_site_pbe_magmom
Cu  Cu0  1  0.55556199  0.36668413  0.54894283  1  0.996614  -0.665363  1.786056  -0.498  0.99643  -0.783325  2.179197  -0.641  1.088401  -0.864333  2.106165  -0.73  0.732749  0.929775  -0.690501  2.237337  -0.555
Cu  Cu1  1  0.94444198  0.63331174  0.04894753  1  0.99663  0.665378  1.786073  0.498  0.996375  0.783318  2.179237  0.641  1.088432  0.86435  2.106169  0.73  0.732741  0.929784  0.690502  2.237329  0.555
Cu  Cu2  1  0.44544070  0.63488219  0.45109279  1  0.990551  0.679506  1.787435  0.507  0.990989  0.787937  2.180463  0.644  1.08381  0.864621  2.106776  0.729  0.729545  0.924965  0.710762  2.23881  0.57
Cu  Cu3  1  0.05456278  0.36511911  0.95109838  1  0.990661  -0.679507  1.787284  -0.507  0.991077  -0.787934  2.180351  -0.644  1.083918  -0.86461  2.106602  -0.729  0.729556  0.925026  -0.710763  2.238748  -0.57
Cu  Cu4  1  0.50074634  0.99896242  0.49981069  1  1.094379  0.705532  1.706321  0.523  1.09869  0.806966  2.108862  0.659  1.183022  0.877909  2.041324  0.739  0.706032  1.036174  0.736078  2.170217  0.589
Cu  Cu5  1  0.99926004  0.00103684  0.99981493  1  1.0945  -0.705543  1.706168  -0.523  1.098863  -0.806979  2.108673  -0.659  1.183176  -0.877935  2.041185  -0.739  0.706121  1.036344  -0.736086  2.170025  -0.589
P  P6  1  0.05328664  0.25641581  0.44191203  1  1.411951  0.002097  4.9359  0.001  1.271515  0.005252  5.432289  0.004  1.329349  0.004257  5.393226  0.004  0.332781  1.231231  0.00596  5.455079  0.004
P  P7  1  0.44672057  0.74358044  0.94191789  1  1.412061  -0.002101  4.936194  -0.001  1.271684  -0.00525  5.432368  -0.004  1.329536  -0.004255  5.393275  -0.004  0.332761  1.231344  -0.005961  5.455333  -0.004
P  P8  1  0.94797434  0.74404008  0.55828085  1  1.413004  0.001885  4.934065  0.001  1.272494  0.002897  5.431084  0.003  1.33026  0.002395  5.392197  0.002  0.333693  1.232268  0.003133  5.453958  0.003
P  P9  1  0.55202511  0.25596345  0.05828528  1  1.413111  -0.001884  4.93404  -0.001  1.272587  -0.002897  5.431073  -0.003  1.330357  -0.002394  5.392177  -0.002  0.333712  1.232362  -0.003132  5.453954  -0.003
H  H10  1  0.20540051  0.07545650  0.58008918  1  0.403682  -9.6e-05  0.903682  0.0  0.384951  -0.000377  0.956479  -0.001  0.396991  -0.000386  0.940079  -0.001  0.275155  0.376098  -0.000295  0.968419  -0.001
H  H11  1  0.29460316  0.92454124  0.08009277  1  0.403712  9.4e-05  0.903626  0.0  0.385005  0.000377  0.956386  0.001  0.397049  0.000386  0.939983  0.001  0.275163  0.376155  0.000295  0.96832  0.001
H  H12  1  0.79600747  0.92575505  0.41956430  1  0.403374  -0.00087  0.902795  -0.003  0.38378  0.001253  0.958305  0.001  0.395755  0.000916  0.942061  0.001  0.274951  0.375103  0.001461  0.969979  0.001
H  H13  1  0.70399497  0.07424568  0.91956953  1  0.403357  0.000871  0.902663  0.003  0.383736  -0.001253  0.958312  -0.001  0.395708  -0.000917  0.942075  -0.001  0.274922  0.375065  -0.001461  0.969978  -0.001
H  H14  1  0.59566621  0.23971721  0.35187664  1  0.129579  0.000674  0.924321  0.001  0.142513  0.00067  0.976064  0.001  0.146249  0.000466  0.974686  0.001  0.118862  0.139581  0.000811  0.97747  0.001
H  H15  1  0.90433745  0.76027955  0.85187906  1  0.129593  -0.000673  0.92428  -0.001  0.142517  -0.00067  0.976039  -0.001  0.146253  -0.000466  0.974657  -0.001  0.118857  0.139586  -0.000811  0.977443  -0.001
H  H16  1  0.40496174  0.75961420  0.64834171  1  0.128866  -0.000773  0.924198  -0.001  0.141973  -0.000756  0.975554  -0.001  0.145666  -0.000543  0.974193  -0.001  0.118796  0.139008  -0.000875  0.977017  -0.001
H  H17  1  0.09503099  0.24038742  0.14834566  1  0.128828  0.000773  0.924188  0.001  0.141955  0.000755  0.975529  0.001  0.145648  0.000543  0.974169  0.001  0.118804  0.139014  0.000875  0.976966  0.001
H  H18  1  0.49146133  0.47470881  0.28411089  1  0.090044  0.000156  0.966305  0.0  0.103714  -3e-05  1.022857  0.0  0.105008  -4.5e-05  1.02386  0.0  0.102541  0.102696  -5e-06  1.022425  0.0
H  H19  1  0.00853521  0.52529293  0.78411171  1  0.090015  -0.000157  0.966305  0.0  0.10369  3e-05  1.022858  0.0  0.104982  4.5e-05  1.023863  0.0  0.102515  0.102672  5e-06  1.022425  0.0
H  H20  1  0.50770851  0.52398451  0.71605504  1  0.090849  -0.000177  0.965314  0.0  0.10455  2e-05  1.021802  0.0  0.105945  3.8e-05  1.022702  0.0  0.102917  0.103495  -1e-05  1.021404  0.0
H  H21  1  0.99228106  0.47602106  0.21605505  1  0.090728  0.000178  0.965374  0.0  0.104462  -1.9e-05  1.021856  0.0  0.105861  -3.8e-05  1.022748  0.0  0.102874  0.103408  1e-05  1.021458  0.0
H  H22  1  0.81297512  0.78231086  0.28715077  1  0.109443  0.000414  0.933489  0.0  0.12476  0.0005  0.981719  0.0  0.127841  0.000358  0.981144  0.0  0.113617  0.122324  0.0006  0.982644  0.001
H  H23  1  0.68702128  0.21769361  0.78715272  1  0.109496  -0.000414  0.933469  0.0  0.124811  -0.0005  0.981696  0.0  0.127891  -0.000358  0.981122  0.0  0.113633  0.122377  -0.0006  0.982624  -0.001
H  H24  1  0.18496194  0.21681163  0.71289220  1  0.109214  -0.000358  0.932161  0.0  0.124617  -0.000347  0.980484  0.0  0.12774  -0.000249  0.979833  0.0  0.113481  0.12214  -0.000403  0.981454  0.0
H  H25  1  0.31503259  0.78318748  0.21289172  1  0.109231  0.000358  0.932152  0.0  0.124642  0.000347  0.980464  0.0  0.127774  0.000249  0.97981  0.0  0.113485  0.122161  0.000403  0.981433  0.0
H  H26  1  0.23470048  0.83967205  0.35622738  1  0.114808  0.000648  0.930956  0.002  0.124978  0.000646  0.987627  0.002  0.128576  0.000435  0.984144  0.001  0.125286  0.12205  0.000815  0.990337  0.002
H  H27  1  0.26529185  0.16032699  0.85622942  1  0.114758  -0.000648  0.930992  -0.002  0.124907  -0.000646  0.987695  -0.002  0.1285  -0.000435  0.984211  -0.001  0.125271  0.121985  -0.000816  0.990399  -0.002
H  H28  1  0.76339812  0.16046469  0.64377884  1  0.114648  -0.000696  0.930321  -0.002  0.123992  -0.000644  0.987669  -0.001  0.127541  -0.000473  0.984177  -0.001  0.125467  0.121075  -0.000732  0.990419  -0.002
H  H29  1  0.73659817  0.83953459  0.14378268  1  0.114691  0.000697  0.930234  0.002  0.124015  0.000644  0.987611  0.001  0.127566  0.000473  0.984115  0.001  0.125484  0.121091  0.000733  0.990367  0.002
C  C30  1  0.97510218  0.41484381  0.38601012  1  -0.038905  -0.008515  3.674571  -0.009  -0.018198  -0.002563  3.921828  -0.003  -0.017737  -0.003121  3.943016  -0.004  0.106337  -0.019262  -0.001855  3.908962  -0.003
C  C31  1  0.52490916  0.58516288  0.88601372  1  -0.03901  0.008522  3.67468  0.009  -0.018274  0.002561  3.92194  0.003  -0.017821  0.00312  3.943132  0.004  0.106365  -0.019331  0.001854  3.909063  0.003
C  C32  1  0.02481268  0.58530950  0.61424791  1  -0.038157  0.01058  3.675186  0.012  -0.017221  0.004426  3.92234  0.006  -0.016713  0.004286  3.943432  0.006  0.106967  -0.018337  0.004564  3.909429  0.005
C  C33  1  0.47518494  0.41468886  0.11425265  1  -0.03812  -0.010589  3.675182  -0.012  -0.017168  -0.004426  3.922317  -0.006  -0.016649  -0.004285  3.943425  -0.006  0.106977  -0.018288  -0.004563  3.909422  -0.005
C  C34  1  0.73678828  0.37231429  0.34921280  1  -0.08472  0.007503  3.702377  0.008  -0.105139  0.002848  3.948359  0.003  -0.111112  0.002762  3.968276  0.003  -0.070432  -0.101885  0.002902  3.936507  0.003
C  C35  1  0.76321543  0.62768251  0.84921564  1  -0.084736  -0.007513  3.702492  -0.008  -0.105162  -0.002848  3.94849  -0.003  -0.111135  -0.002761  3.968411  -0.003  -0.070471  -0.101898  -0.002901  3.93661  -0.003
C  C36  1  0.26317861  0.62722018  0.65100310  1  -0.084459  -0.007156  3.70179  -0.008  -0.104851  -0.00238  3.947454  -0.003  -0.110855  -0.002458  3.967345  -0.003  -0.070144  -0.101523  -0.002283  3.935651  -0.003
C  C37  1  0.23681348  0.37278008  0.15100712  1  -0.084538  0.007168  3.70193  0.008  -0.104947  0.002379  3.94761  0.003  -0.110954  0.002458  3.96751  0.003  -0.070216  -0.101638  0.002283  3.935808  0.003
C  C38  1  0.67757910  0.50412297  0.31258570  1  -0.024624  -0.007838  3.74149  -0.008  -0.049749  -0.002722  4.006846  -0.003  -0.046021  -0.003053  4.024082  -0.003  -0.070963  -0.052394  -0.002274  3.995854  -0.002
C  C39  1  0.82241829  0.49587578  0.81258833  1  -0.024571  0.007849  3.741609  0.008  -0.049704  0.002722  4.006966  0.003  -0.045978  0.003054  4.024209  0.003  -0.070892  -0.052344  0.002274  3.995967  0.002
C  C40  1  0.32162623  0.49505347  0.68758171  1  -0.025569  0.008594  3.740706  0.008  -0.050536  0.003568  4.005978  0.003  -0.04671  0.003582  4.022947  0.003  -0.070742  -0.053276  0.003501  3.995125  0.003
C  C41  1  0.17836056  0.50494474  0.18758348  1  -0.025406  -0.008606  3.740772  -0.008  -0.05042  -0.003567  4.006063  -0.003  -0.046598  -0.003582  4.023039  -0.003  -0.070715  -0.053162  -0.0035  3.995222  -0.003
C  C42  1  0.85615474  0.67498116  0.31378717  1  -0.117605  0.009516  3.731203  0.01  -0.132182  0.004191  3.990097  0.005  -0.138191  0.003658  4.007983  0.004  -0.078759  -0.128544  0.00459  3.978801  0.005
C  C43  1  0.64385017  0.32502157  0.81378888  1  -0.117646  -0.009528  3.731246  -0.01  -0.132227  -0.004192  3.990141  -0.005  -0.138234  -0.003658  4.008024  -0.004  -0.078796  -0.128596  -0.00459  3.978866  -0.005
C  C44  1  0.14244479  0.32440537  0.68628617  1  -0.116979  -0.007948  3.729837  -0.009  -0.13185  -0.002603  3.9887  -0.004  -0.137836  -0.002536  4.006484  -0.004  -0.078929  -0.128229  -0.002494  3.977472  -0.004
C  C45  1  0.35754900  0.67559555  0.18628740  1  -0.117024  0.007958  3.729676  0.01  -0.131879  0.002602  3.988534  0.004  -0.137877  0.002535  4.006329  0.004  -0.078927  -0.128254  0.002495  3.977298  0.004
C  C46  1  0.09059564  0.70883170  0.35122220  1  0.137345  -0.005742  3.641486  -0.006  0.110842  -0.000681  3.891566  -0.002  0.120549  -0.001988  3.907346  -0.003  0.053451  0.104275  0.00041  3.881676  0.0
C  C47  1  0.40940515  0.29116881  0.85122382  1  0.137296  0.005751  3.6416  0.006  0.110826  0.000682  3.891702  0.002  0.12054  0.001988  3.907479  0.003  0.053426  0.104255  -0.00041  3.881815  0.0
C  C48  1  0.90793358  0.29114071  0.64891090  1  0.139008  0.006906  3.640886  0.007  0.112781  0.001512  3.891721  0.002  0.122582  0.002501  3.907472  0.003  0.054388  0.106103  0.000721  3.881762  0.001
C  C49  1  0.59206144  0.70885584  0.14891419  1  0.139035  -0.006916  3.640848  -0.007  0.112813  -0.00151  3.891701  -0.002  0.122617  -0.0025  3.907478  -0.003  0.054343  0.106136  -0.000721  3.881736  -0.001
N  N50  1  0.14744945  0.58041714  0.38597933  1  -0.298625  0.074031  3.366447  0.096  -0.254704  0.055341  3.651039  0.076  -0.285449  0.045717  3.674921  0.066  -0.341757  -0.235663  0.058182  3.637595  0.077
N  N51  1  0.35255325  0.41958012  0.88598116  1  -0.298499  -0.074044  3.366367  -0.096  -0.254628  -0.055344  3.650987  -0.076  -0.285379  -0.045719  3.674868  -0.066  -0.341704  -0.23557  -0.058185  3.637528  -0.077
N  N52  1  0.85161418  0.41999930  0.61428752  1  -0.299907  -0.073768  3.369556  -0.096  -0.25694  -0.05441  3.655526  -0.075  -0.287688  -0.045038  3.679197  -0.065  -0.343128  -0.237603  -0.056657  3.641896  -0.076
N  N53  1  0.64838165  0.57999791  0.11429353  1  -0.299974  0.073777  3.369675  0.096  -0.256989  0.054412  3.655622  0.075  -0.287795  0.045038  3.679345  0.065  -0.343061  -0.237668  0.056659  3.642003  0.076
O  O54  1  0.81364746  0.20761880  0.48992621  1  -0.850136  0.06329  2.139296  0.085  -0.802302  0.042735  2.458466  0.06  -0.844256  0.033797  2.432297  0.049  -0.388621  -0.77006  0.048515  2.475374  0.067
O  O55  1  0.68637022  0.79237943  0.98992771  1  -0.850103  -0.063287  2.139376  -0.085  -0.802317  -0.042732  2.458624  -0.06  -0.844289  -0.033797  2.432454  -0.049  -0.388561  -0.770052  -0.048513  2.475492  -0.067
O  O56  1  0.18833817  0.79194444  0.51038473  1  -0.851551  0.051394  2.145276  0.072  -0.803673  0.035306  2.466171  0.052  -0.846161  0.028079  2.440027  0.043  -0.389402  -0.770542  0.039215  2.482538  0.056
O  O57  1  0.31166030  0.20806112  0.01039058  1  -0.851615  -0.051392  2.145311  -0.072  -0.803773  -0.035303  2.466291  -0.052  -0.846239  -0.028079  2.44008  -0.043  -0.389455  -0.770644  -0.039213  2.482675  -0.056
O  O58  1  0.10950711  0.10601885  0.40576779  1  -0.811847  0.010031  1.857903  0.015  -0.751711  0.00524  2.094381  0.009  -0.77897  0.002605  2.073027  0.005  -0.370356  -0.73079  0.00791  2.107083  0.012
O  O59  1  0.39049204  0.89397538  0.90577478  1  -0.811977  -0.010029  1.857975  -0.015  -0.751814  -0.005238  2.094424  -0.009  -0.779073  -0.002604  2.073055  -0.005  -0.370433  -0.730899  -0.007909  2.107158  -0.012
O  O60  1  0.89195619  0.89457257  0.59430359  1  -0.812286  -0.008709  1.858899  -0.01  -0.752093  -0.006214  2.095318  -0.007  -0.779183  -0.004479  2.073752  -0.005  -0.370384  -0.731722  -0.007002  2.108527  -0.008
O  O61  1  0.60804515  0.10542768  0.09430640  1  -0.812357  0.008708  1.858892  0.01  -0.75217  0.006214  2.095327  0.007  -0.779259  0.004479  2.073759  0.005  -0.370403  -0.731799  0.007002  2.108535  0.008
O  O62  1  0.30528854  0.38339995  0.47798908  1  -0.838172  0.011958  2.221187  0.015  -0.797078  0.009082  2.57356  0.012  -0.848849  0.006713  2.551113  0.009  -0.40099  -0.758766  0.012069  2.588354  0.016
O  O63  1  0.19473219  0.61659312  0.97799738  1  -0.838167  -0.011954  2.221163  -0.015  -0.797039  -0.009076  2.57349  -0.012  -0.84883  -0.006713  2.55102  -0.009  -0.400977  -0.758736  -0.012065  2.588302  -0.016
O  O64  1  0.69611261  0.61781810  0.52190299  1  -0.839707  0.005255  2.224024  0.008  -0.79921  0.000206  2.577596  0.001  -0.850751  -0.001247  2.554655  -0.001  -0.401884  -0.761101  0.003112  2.592776  0.005
O  O65  1  0.80388575  0.38218610  0.02190597  1  -0.839755  -0.005252  2.223993  -0.008  -0.79923  -0.000203  2.577555  -0.001  -0.850789  0.001247  2.554602  0.001  -0.401864  -0.761126  -0.003111  2.592737  -0.005
O  O66  1  0.40274503  0.12409074  0.57225053  1  -0.878968  -0.032327  1.891049  -0.044  -0.896093  -0.012612  2.199249  -0.02  -0.961931  -0.008186  2.170618  -0.014  -0.592494  -0.847262  -0.011591  2.219117  -0.018
O  O67  1  0.09725824  0.87590584  0.07225340  1  -0.879007  0.032327  1.891016  0.044  -0.896142  0.012613  2.199224  0.02  -0.961995  0.008184  2.170581  0.014  -0.592509  -0.847324  0.011591  2.219089  0.018
O  O68  1  0.59779232  0.87690227  0.42617622  1  -0.865142  0.211931  1.878179  0.282  -0.89004  0.124238  2.189634  0.178  -0.956872  0.094357  2.161753  0.142  -0.588027  -0.841401  0.140321  2.209424  0.194
O  O69  1  0.90221247  0.12309967  0.92618071  1  -0.865194  -0.211937  1.87804  -0.282  -0.890083  -0.124238  2.189698  -0.178  -0.956917  -0.094358  2.161807  -0.142  -0.588031  -0.841436  -0.140321  2.209485  -0.194
