# generated using pymatgen
data_CdH14C18S2(NO)4
_symmetry_space_group_name_H-M   'P 1'
_cell_length_a   5.85408897
_cell_length_b   5.84484555
_cell_length_c   16.90926114
_cell_angle_alpha   74.76226298
_cell_angle_beta   103.08891860
_cell_angle_gamma   69.26996618
_symmetry_Int_Tables_number   1
_chemical_formula_structural   CdH14C18S2(NO)4
_chemical_formula_sum   'Cd1 H14 C18 S2 N4 O4'
_cell_volume   488.27121890
_cell_formula_units_Z   1
loop_
 _symmetry_equiv_pos_site_id
 _symmetry_equiv_pos_as_xyz
  1  'x, y, z'
loop_
 _atom_site_type_symbol
 _atom_site_label
 _atom_site_symmetry_multiplicity
 _atom_site_fract_x
 _atom_site_fract_y
 _atom_site_fract_z
 _atom_site_occupancy
 _atom_site_pbe_bader_spin_density
 _atom_site_pbe_cm5_charge
 _atom_site_pbe_ddec_charge
 _atom_site_pbe_ddec_spin_density
 _atom_site_pbe_ddec_sum_bond_order
 _atom_site_pbe_magmom
Cd  Cd0  1  0.36160282  0.63850788  0.49934510  1  0  0.762273  0.797218  0  2.331572  0
H  H1  1  0.36688347  0.11039820  0.61852492  1  0  0.105516  0.085381  0  1.052708  0
H  H2  1  0.62863539  0.89380677  0.38134307  1  0  0.106301  0.085215  0  1.05214  0
H  H3  1  0.46646349  0.86249313  0.77773752  1  0  0.104364  0.121229  0  1.022765  0
H  H4  1  0.56114920  0.10946153  0.22269940  1  0  0.103773  0.121589  0  1.022414  0
H  H5  1  0.86595320  0.44249776  0.67836498  1  0  0.110886  0.083671  0  1.043239  0
H  H6  1  0.18262234  0.50867517  0.32243767  1  0  0.110773  0.08366  0  1.04501  0
H  H7  1  0.76576784  0.93243392  0.89071329  1  0  0.106972  0.108593  0  1.019682  0
H  H8  1  0.27018524  0.03149830  0.10990270  1  0  0.105761  0.108484  0  1.018948  0
H  H9  1  0.03399367  0.14399613  0.92699918  1  0  0.107743  0.100297  0  0.995549  0
H  H10  1  0.99429616  0.82796751  0.07329052  1  0  0.10849  0.100131  0  0.997189  0
H  H11  1  0.12143299  0.49919706  0.77700167  1  0  0.097603  0.11652  0  1.062655  0
H  H12  1  0.91042126  0.46879282  0.22331815  1  0  0.096389  0.114516  0  1.067506  0
H  H13  1  0.42959348  0.36492047  0.03685271  1  0  0.300244  0.352434  0  0.993656  0
H  H14  1  0.57116268  0.63433368  0.96246938  1  0  0.299927  0.352703  0  0.993318  0
C  C15  1  0.50450595  0.12453855  0.67025346  1  0  0.044916  0.09567  0  3.932767  0
C  C16  1  0.51254689  0.85815034  0.32998622  1  0  0.044447  0.095677  0  3.932619  0
C  C17  1  0.55869466  0.98980966  0.75849557  1  0  -0.08483  -0.117553  0  3.952313  0
C  C18  1  0.47271805  0.97838334  0.24202613  1  0  -0.08454  -0.118149  0  3.950316  0
C  C19  1  0.78140314  0.31329214  0.70346031  1  0  0.057832  0.069408  0  3.876846  0
C  C20  1  0.25990469  0.64507514  0.29720345  1  0  0.059103  0.070236  0  3.877821  0
C  C21  1  0.72596805  0.02796540  0.82104745  1  0  -0.064624  -0.070565  0  3.909465  0
C  C22  1  0.31188229  0.93383640  0.17958872  1  0  -0.063535  -0.069731  0  3.906251  0
C  C23  1  0.84231709  0.19292655  0.79414548  1  0  -0.00775  0.051015  0  4.01364  0
C  C24  1  0.19961489  0.76473894  0.20652226  1  0  -0.009042  0.049693  0  4.014678  0
C  C25  1  0.01032000  0.24080357  0.85888373  1  0  -0.056769  -0.0222  0  3.928204  0
C  C26  1  0.02384939  0.72490129  0.14155337  1  0  -0.057386  -0.02313  0  3.931002  0
C  C27  1  0.13373245  0.39472999  0.84281271  1  0  -0.102411  -0.26448  0  3.939955  0
C  C28  1  0.89346139  0.57807789  0.15738783  1  0  -0.101813  -0.262197  0  3.940744  0
C  C29  1  0.29392298  0.43724679  0.91198624  1  0  0.228053  0.621738  0  4.125188  0
C  C30  1  0.71956811  0.54936813  0.08781504  1  0  0.22968  0.623295  0  4.12281  0
C  C31  1  0.83571343  0.81241238  0.56507353  1  0  0.150643  0.269864  0  4.328729  0
C  C32  1  0.04657367  0.30615876  0.43374175  1  0  0.150917  0.268603  0  4.327375  0
S  S33  1  0.11085634  0.79976331  0.61784603  1  0  -0.132747  -0.286275  0  2.493492  0
S  S34  1  0.94546593  0.14548065  0.38084805  1  0  -0.130308  -0.282955  0  2.498963  0
N  N35  1  0.61328589  0.28463760  0.64329327  1  0  -0.325071  -0.245106  0  3.534595  0
N  N36  1  0.40771224  0.69411565  0.35698318  1  0  -0.325099  -0.244299  0  3.536918  0
N  N37  1  0.63370351  0.82062332  0.52775591  1  0  -0.401353  -0.469789  0  3.205199  0
N  N38  1  0.11863418  0.42726604  0.47111066  1  0  -0.400798  -0.46776  0  3.203905  0
O  O39  1  0.40988075  0.57709132  0.89363647  1  0  -0.289303  -0.508819  0  2.195539  0
O  O40  1  0.60600611  0.40708486  0.10636550  1  0  -0.290462  -0.510426  0  2.194557  0
O  O41  1  0.30811397  0.32429526  0.99306909  1  0  -0.332538  -0.491323  0  2.331854  0
O  O42  1  0.68945905  0.67827385  0.00610787  1  0  -0.332229  -0.492083  0  2.333393  0
