# generated using pymatgen
data_ZnH8(C2O)5
_symmetry_space_group_name_H-M   'P 1'
_cell_length_a   4.81277204
_cell_length_b   9.48680190
_cell_length_c   11.58236769
_cell_angle_alpha   83.14068401
_cell_angle_beta   87.09681187
_cell_angle_gamma   84.72402031
_symmetry_Int_Tables_number   1
_chemical_formula_structural   ZnH8(C2O)5
_chemical_formula_sum   'Zn2 H16 C20 O10'
_cell_volume   522.39507214
_cell_formula_units_Z   2
loop_
 _symmetry_equiv_pos_site_id
 _symmetry_equiv_pos_as_xyz
  1  'x, y, z'
loop_
 _atom_site_type_symbol
 _atom_site_label
 _atom_site_symmetry_multiplicity
 _atom_site_fract_x
 _atom_site_fract_y
 _atom_site_fract_z
 _atom_site_occupancy
 _atom_site_hle17_bader_spin_density
 _atom_site_hle17_ddec_charge
 _atom_site_hle17_ddec_spin_density
 _atom_site_hle17_ddec_sum_bond_order
 _atom_site_hle17_magmom
 _atom_site_hse06_10hf_bader_spin_density
 _atom_site_hse06_10hf_ddec_charge
 _atom_site_hse06_10hf_ddec_spin_density
 _atom_site_hse06_10hf_ddec_sum_bond_order
 _atom_site_hse06_10hf_magmom
 _atom_site_hse06_bader_spin_density
 _atom_site_hse06_ddec_charge
 _atom_site_hse06_ddec_spin_density
 _atom_site_hse06_ddec_sum_bond_order
 _atom_site_hse06_magmom
 _atom_site_pbe_bader_spin_density
 _atom_site_pbe_cm5_charge
 _atom_site_pbe_ddec_charge
 _atom_site_pbe_ddec_spin_density
 _atom_site_pbe_ddec_sum_bond_order
 _atom_site_pbe_magmom
Zn  Zn0  1  0.29483206  0.93149069  0.62062783  1  0  1.168643  0  1.768617  0  0  0.994775  0  2.263269  0  0  1.046472  0  2.193314  0  0  0.702867  0.95697  0  2.313589  0
Zn  Zn1  1  0.70516803  0.06850858  0.37937182  1  0  1.168648  0  1.768583  0  0  0.994787  0  2.263225  0  0  1.046479  0  2.193272  0  0  0.702877  0.95698  0  2.313543  0
H  H2  1  0.31054411  0.24642259  0.80341172  1  0  0.097735  0  0.948233  0  0  0.108886  0  1.006882  0  0  0.111944  0  1.004858  0  0  0.104789  0.106714  0  1.008121  0
H  H3  1  0.68945580  0.75357773  0.19658871  1  0  0.097745  0  0.948208  0  0  0.108898  0  1.006857  0  0  0.111956  0  1.004831  0  0  0.104806  0.106727  0  1.008096  0
H  H4  1  0.42358673  0.42582521  0.93099556  1  0  0.122458  0  0.969071  0  0  0.125844  0  1.038664  0  0  0.130781  0  1.035301  0  0  0.105587  0.122241  0  1.041243  0
H  H5  1  0.57641318  0.57417513  0.06900400  1  0  0.122463  0  0.969072  0  0  0.125845  0  1.038665  0  0  0.130782  0  1.035303  0  0  0.105585  0.122244  0  1.041245  0
H  H6  1  0.00225732  0.59386617  0.66238227  1  0  0.11138  0  0.962781  0  0  0.121312  0  1.02498  0  0  0.124678  0  1.023722  0  0  0.10541  0.119063  0  1.025701  0
H  H7  1  0.99774276  0.40613309  0.33761825  1  0  0.111354  0  0.962812  0  0  0.121323  0  1.024968  0  0  0.124688  0  1.023711  0  0  0.10542  0.119073  0  1.025686  0
H  H8  1  0.89510024  0.41005618  0.54090605  1  0  0.096146  0  0.959947  0  0  0.107357  0  1.020956  0  0  0.109822  0  1.019272  0  0  0.104722  0.105572  0  1.022186  0
H  H9  1  0.10489759  0.58994416  0.45909356  1  0  0.096142  0  0.959934  0  0  0.107357  0  1.02094  0  0  0.109823  0  1.019257  0  0  0.104726  0.105573  0  1.022171  0
H  H10  1  0.13364344  0.69315321  0.80435735  1  0  0.072237  0  0.941834  0  0  0.07784  0  1.006439  0  0  0.079642  0  1.005299  0  0  0.113345  0.076854  0  1.00725  0
H  H11  1  0.86635664  0.30684606  0.19564230  1  0  0.072249  0  0.941824  0  0  0.077841  0  1.006425  0  0  0.079651  0  1.00529  0  0  0.113353  0.076855  0  1.007235  0
H  H12  1  0.08569468  0.73811379  0.01184410  1  0  0.123084  0  0.945884  0  0  0.142806  0  1.007615  0  0  0.144206  0  1.00816  0  0  0.096563  0.141757  0  1.007326  0
H  H13  1  0.91430541  0.26188548  0.98815556  1  0  0.123076  0  0.945891  0  0  0.142805  0  1.007615  0  0  0.144204  0  1.008162  0  0  0.096567  0.141755  0  1.007327  0
H  H14  1  0.76986213  0.84928825  0.98296258  1  0  0.111769  0  0.936176  0  0  0.133486  0  0.993873  0  0  0.134835  0  0.993759  0  0  0.095041  0.132537  0  0.993813  0
H  H15  1  0.23014229  0.15070994  0.01703709  1  0  0.111741  0  0.936118  0  0  0.133459  0  0.993827  0  0  0.134809  0  0.993713  0  0  0.095008  0.132508  0  0.993769  0
H  H16  1  0.09621139  0.90004161  0.91751215  1  0  0.118246  0  0.939945  0  0  0.140562  0  0.997698  0  0  0.141627  0  0.998067  0  0  0.097227  0.139753  0  0.99738  0
H  H17  1  0.90379094  0.09995659  0.08248755  1  0  0.118238  0  0.93993  0  0  0.140557  0  0.997687  0  0  0.141621  0  0.998055  0  0  0.097221  0.139747  0  0.99737  0
C  C18  1  0.53807203  0.20722981  0.59008118  1  0  0.698073  0  3.872747  0  0  0.644312  0  4.160816  0  0  0.681752  0  4.151843  0  0  0.226941  0.618034  0  4.166734  0
C  C19  1  0.46192789  0.79277052  0.40991925  1  0  0.698059  0  3.872721  0  0  0.644288  0  4.160803  0  0  0.681726  0  4.151831  0  0  0.226935  0.61801  0  4.166724  0
C  C20  1  0.59595569  0.31737798  0.66375006  1  0  -0.108839  0  3.784541  0  0  -0.084466  0  4.015777  0  0  -0.097398  0  4.041134  0  0  -0.032155  -0.075938  0  3.998468  0
C  C21  1  0.40404422  0.68262234  0.33625036  1  0  -0.10886  0  3.784542  0  0  -0.084476  0  4.015765  0  0  -0.097407  0  4.041122  0  0  -0.032148  -0.075949  0  3.998458  0
C  C22  1  0.46332136  0.32225926  0.77424755  1  0  -0.035051  0  3.761444  0  0  -0.060165  0  4.008313  0  0  -0.056497  0  4.028602  0  0  -0.08123  -0.062442  0  3.994175  0
C  C23  1  0.53667872  0.67774000  0.22575297  1  0  -0.035038  0  3.761463  0  0  -0.060161  0  4.008338  0  0  -0.056491  0  4.028624  0  0  -0.081261  -0.062438  0  3.994201  0
C  C24  1  0.52544667  0.42207654  0.84510369  1  0  -0.198719  0  3.739149  0  0  -0.218545  0  4.002173  0  0  -0.226119  0  4.019837  0  0  -0.106663  -0.213467  0  3.990877  0
C  C25  1  0.47455325  0.57792379  0.15489587  1  0  -0.198717  0  3.739182  0  0  -0.218545  0  4.002187  0  0  -0.226119  0  4.019851  0  0  -0.106641  -0.213469  0  3.990894  0
C  C26  1  0.72019078  0.52057230  0.80574948  1  0  0.295828  0  3.79226  0  0  0.279538  0  4.060929  0  0  0.29357  0  4.07546  0  0  0.089799  0.269517  0  4.051875  0
C  C27  1  0.27980913  0.47942802  0.19425094  1  0  0.295808  0  3.792273  0  0  0.279557  0  4.060898  0  0  0.293589  0  4.075427  0  0  0.089801  0.269537  0  4.05184  0
C  C28  1  0.85061165  0.51865188  0.69466850  1  0  -0.214915  0  3.75637  0  0  -0.233526  0  4.013244  0  0  -0.242827  0  4.035146  0  0  -0.110253  -0.227573  0  3.998842  0
C  C29  1  0.14938827  0.48134845  0.30533192  1  0  -0.214919  0  3.756388  0  0  -0.233581  0  4.013263  0  0  -0.242881  0  4.035164  0  0  -0.110279  -0.227626  0  3.998855  0
C  C30  1  0.78949724  0.41611977  0.62566668  1  0  -0.016211  0  3.730426  0  0  -0.041686  0  3.976885  0  0  -0.037292  0  3.996902  0  0  -0.077892  -0.044243  0  3.963257  0
C  C31  1  0.21050267  0.58388056  0.37433288  1  0  -0.016166  0  3.730393  0  0  -0.041643  0  3.97686  0  0  -0.037249  0  3.99688  0  0  -0.077881  -0.044201  0  3.963233  0
C  C32  1  0.92961039  0.73122061  0.84132889  1  0  0.095547  0  3.630759  0  0  0.075888  0  3.881755  0  0  0.078324  0  3.889354  0  0  0.003925  0.073788  0  3.876336  0
C  C33  1  0.07038969  0.26877866  0.15867077  1  0  0.09553  0  3.630744  0  0  0.075922  0  3.881668  0  0  0.078315  0  3.889333  0  0  0.003934  0.073823  0  3.876244  0
C  C34  1  0.97205665  0.80981456  0.94537598  1  0  -0.318636  0  3.663907  0  0  -0.402619  0  3.904438  0  0  -0.404382  0  3.91262  0  0  -0.237233  -0.401122  0  3.898851  0
C  C35  1  0.02794343  0.19018470  0.05462454  1  0  -0.318606  0  3.663841  0  0  -0.402611  0  3.904353  0  0  -0.404361  0  3.912549  0  0  -0.237218  -0.401113  0  3.898765  0
C  C36  1  0.76985282  0.83161577  0.74862210  1  0  0.647326  0  3.83933  0  0  0.597437  0  4.131855  0  0  0.630933  0  4.126424  0  0  0.222101  0.575091  0  4.133297  0
C  C37  1  0.23014727  0.16838350  0.25137755  1  0  0.647344  0  3.839327  0  0  0.597454  0  4.131837  0  0  0.630959  0  4.126409  0  0  0.222115  0.575106  0  4.133276  0
O  O38  1  0.33663781  0.13101352  0.62314989  1  0  -0.661436  0  2.111543  0  0  -0.588894  0  2.399053  0  0  -0.617368  0  2.37807  0  0  -0.321984  -0.568547  0  2.413212  0
O  O39  1  0.66336419  0.86898680  0.37685050  1  0  -0.661438  0  2.111534  0  0  -0.588896  0  2.399051  0  0  -0.617369  0  2.378068  0  0  -0.322012  -0.568549  0  2.413211  0
O  O40  1  0.69358587  0.19618458  0.49818556  1  0  -0.656831  0  2.109528  0  0  -0.583122  0  2.395883  0  0  -0.612732  0  2.376681  0  0  -0.317267  -0.56258  0  2.409106  0
O  O41  1  0.30641196  0.80381576  0.50181404  1  0  -0.656852  0  2.109561  0  0  -0.583132  0  2.395915  0  0  -0.612743  0  2.376714  0  0  -0.317266  -0.562591  0  2.40914  0
O  O42  1  0.77191939  0.61261897  0.88281959  1  0  -0.286953  0  2.318306  0  0  -0.217971  0  2.547867  0  0  -0.235575  0  2.549659  0  0  -0.167838  -0.205636  0  2.546502  0
O  O43  1  0.22807844  0.38738137  0.11718088  1  0  -0.286934  0  2.318292  0  0  -0.217986  0  2.547839  0  0  -0.235579  0  2.549643  0  0  -0.167843  -0.205652  0  2.546473  0
O  O44  1  0.89698520  0.91480174  0.67434961  1  0  -0.635187  0  2.078915  0  0  -0.563557  0  2.355104  0  0  -0.592922  0  2.337972  0  0  -0.311085  -0.542307  0  2.365488  0
O  O45  1  0.10301489  0.08519752  0.32565091  1  0  -0.635197  0  2.078984  0  0  -0.563566  0  2.355167  0  0  -0.592931  0  2.338031  0  0  -0.311074  -0.542317  0  2.365551  0
O  O46  1  0.50590683  0.82871244  0.75326057  1  0  -0.625679  0  2.107418  0  0  -0.555487  0  2.376939  0  0  -0.585467  0  2.363632  0  0  -0.304703  -0.534022  0  2.384983  0
O  O47  1  0.49409325  0.17128683  0.24673908  1  0  -0.625686  0  2.107335  0  0  -0.555504  0  2.376858  0  0  -0.58548  0  2.363545  0  0  -0.30474  -0.534044  0  2.384913  0
