# generated using pymatgen
data_NaH6C6S2NO5
_symmetry_space_group_name_H-M   'P 1'
_cell_length_a   7.91468048
_cell_length_b   10.87610726
_cell_length_c   11.11357272
_cell_angle_alpha   90.00043020
_cell_angle_beta   90.00019751
_cell_angle_gamma   90.00017958
_symmetry_Int_Tables_number   1
_chemical_formula_structural   NaH6C6S2NO5
_chemical_formula_sum   'Na4 H24 C24 S8 N4 O20'
_cell_volume   956.66649616
_cell_formula_units_Z   4
loop_
 _symmetry_equiv_pos_site_id
 _symmetry_equiv_pos_as_xyz
  1  'x, y, z'
loop_
 _atom_site_type_symbol
 _atom_site_label
 _atom_site_symmetry_multiplicity
 _atom_site_fract_x
 _atom_site_fract_y
 _atom_site_fract_z
 _atom_site_occupancy
 _atom_site_hle17_bader_spin_density
 _atom_site_hle17_ddec_charge
 _atom_site_hle17_ddec_spin_density
 _atom_site_hle17_ddec_sum_bond_order
 _atom_site_hle17_magmom
 _atom_site_hse06_10hf_bader_spin_density
 _atom_site_hse06_10hf_ddec_charge
 _atom_site_hse06_10hf_ddec_spin_density
 _atom_site_hse06_10hf_ddec_sum_bond_order
 _atom_site_hse06_10hf_magmom
 _atom_site_hse06_bader_spin_density
 _atom_site_hse06_ddec_charge
 _atom_site_hse06_ddec_spin_density
 _atom_site_hse06_ddec_sum_bond_order
 _atom_site_hse06_magmom
 _atom_site_pbe_bader_spin_density
 _atom_site_pbe_cm5_charge
 _atom_site_pbe_ddec_charge
 _atom_site_pbe_ddec_spin_density
 _atom_site_pbe_ddec_sum_bond_order
 _atom_site_pbe_magmom
Na  Na0  1  0.47771338  0.19523791  0.29011952  1  0  0.917336  0  0.351624  0  0  0.883908  0  0.490341  0  0  0.892247  0  0.470583  0  0  0.687314  0.877457  0  0.504927  0
Na  Na1  1  0.52228197  0.69523283  0.70988739  1  0  0.917344  0  0.351624  0  0  0.88392  0  0.490355  0  0  0.892261  0  0.47059  0  0  0.68731  0.877458  0  0.504938  0
Na  Na2  1  0.97771442  0.19523083  0.20988761  1  0  0.917353  0  0.351616  0  0  0.883898  0  0.49037  0  0  0.892241  0  0.47061  0  0  0.687255  0.877442  0  0.504951  0
Na  Na3  1  0.02228093  0.69523991  0.79012199  1  0  0.917347  0  0.35161  0  0  0.883935  0  0.490314  0  0  0.892274  0  0.470547  0  0  0.687328  0.877473  0  0.504896  0
H  H4  1  0.98343550  0.58228378  0.43065961  1  0  0.114159  0  0.966731  0  0  0.118029  0  1.035451  0  0  0.121536  0  1.033478  0  0  0.108529  0.11537  0  1.037194  0
H  H5  1  0.01653790  0.08232305  0.56936448  1  0  0.114248  0  0.966836  0  0  0.118166  0  1.035499  0  0  0.121677  0  1.033517  0  0  0.108575  0.115496  0  1.037248  0
H  H6  1  0.48347130  0.58230937  0.06935304  1  0  0.114247  0  0.966703  0  0  0.118149  0  1.035424  0  0  0.121661  0  1.033442  0  0  0.108541  0.115479  0  1.037186  0
H  H7  1  0.51655264  0.08228276  0.93065035  1  0  0.114158  0  0.966779  0  0  0.118042  0  1.035469  0  0  0.121551  0  1.033492  0  0  0.108507  0.115384  0  1.037215  0
H  H8  1  0.95928734  0.53375819  0.21205913  1  0  0.110132  0  0.953818  0  0  0.117028  0  1.017638  0  0  0.120845  0  1.014958  0  0  0.109251  0.114142  0  1.019885  0
H  H9  1  0.04073892  0.03379922  0.78796010  1  0  0.110089  0  0.954055  0  0  0.117061  0  1.017797  0  0  0.120882  0  1.015111  0  0  0.109275  0.114178  0  1.020043  0
H  H10  1  0.45929387  0.53377720  0.28794860  1  0  0.110079  0  0.954016  0  0  0.117065  0  1.017752  0  0  0.120885  0  1.015067  0  0  0.109252  0.114181  0  1.019993  0
H  H11  1  0.54070712  0.03375078  0.71205534  1  0  0.110311  0  0.953618  0  0  0.117133  0  1.017529  0  0  0.120952  0  1.014843  0  0  0.109274  0.114248  0  1.019776  0
H  H12  1  0.83164351  0.68547629  0.07132081  1  0  0.095245  0  0.967323  0  0  0.101138  0  1.035842  0  0  0.105022  0  1.032643  0  0  0.106179  0.098192  0  1.038425  0
H  H13  1  0.16843772  0.18551505  0.92867973  1  0  0.095123  0  0.967225  0  0  0.101056  0  1.035781  0  0  0.104936  0  1.032583  0  0  0.106186  0.098168  0  1.038298  0
H  H14  1  0.33159512  0.68548261  0.42868052  1  0  0.095191  0  0.967189  0  0  0.101055  0  1.035779  0  0  0.104932  0  1.032591  0  0  0.10617  0.098158  0  1.038302  0
H  H15  1  0.66836228  0.18546551  0.57131642  1  0  0.09521  0  0.967336  0  0  0.101137  0  1.035822  0  0  0.105016  0  1.032632  0  0  0.106162  0.098206  0  1.038387  0
H  H16  1  0.71815626  0.88424334  0.14646464  1  0  0.111112  0  0.924634  0  0  0.122904  0  0.980109  0  0  0.126347  0  0.978091  0  0  0.11633  0.12025  0  0.981983  0
H  H17  1  0.28190431  0.38427994  0.85352474  1  0  0.111  0  0.924596  0  0  0.122829  0  0.980041  0  0  0.126272  0  0.978017  0  0  0.116274  0.120176  0  0.981914  0
H  H18  1  0.21810498  0.88424448  0.35353334  1  0  0.111198  0  0.924694  0  0  0.122835  0  0.980337  0  0  0.126286  0  0.978295  0  0  0.116278  0.120173  0  0.982222  0
H  H19  1  0.78184440  0.38423375  0.64645874  1  0  0.111091  0  0.92467  0  0  0.122885  0  0.980145  0  0  0.126336  0  0.978108  0  0  0.11633  0.120227  0  0.982032  0
H  H20  1  0.55428334  0.40801977  0.46336710  1  0  0.420068  0  0.873904  0  0  0.394344  0  0.930186  0  0  0.402539  0  0.918107  0  0  0.295285  0.388592  0  0.938668  0
H  H21  1  0.44571037  0.90800304  0.53663864  1  0  0.420164  0  0.873801  0  0  0.394339  0  0.930172  0  0  0.402549  0  0.918081  0  0  0.295346  0.388573  0  0.938667  0
H  H22  1  0.05427603  0.40800372  0.03663873  1  0  0.420137  0  0.873825  0  0  0.394317  0  0.930199  0  0  0.402528  0  0.918107  0  0  0.29527  0.38855  0  0.938699  0
H  H23  1  0.94571515  0.90802093  0.96337062  1  0  0.420111  0  0.873832  0  0  0.394389  0  0.930107  0  0  0.402585  0  0.918028  0  0  0.295338  0.388634  0  0.938598  0
H  H24  1  0.72194622  0.35929091  0.40544427  1  0  0.435949  0  0.857096  0  0  0.411696  0  0.909623  0  0  0.420641  0  0.896429  0  0  0.299153  0.405463  0  0.918805  0
H  H25  1  0.27804350  0.85927332  0.59455753  1  0  0.436029  0  0.856988  0  0  0.411711  0  0.9096  0  0  0.420654  0  0.896406  0  0  0.299201  0.405475  0  0.918786  0
H  H26  1  0.22194803  0.35928083  0.09455622  1  0  0.435985  0  0.857055  0  0  0.411714  0  0.909599  0  0  0.42066  0  0.896403  0  0  0.299187  0.405479  0  0.918784  0
H  H27  1  0.77805179  0.85929259  0.90544827  1  0  0.435947  0  0.857125  0  0  0.411684  0  0.909665  0  0  0.420629  0  0.896471  0  0  0.299135  0.405454  0  0.918845  0
C  C28  1  0.78694271  0.84277894  0.33042432  1  0  -0.134302  0  3.791103  0  0  -0.116817  0  4.037186  0  0  -0.122285  0  4.060489  0  0  -0.013988  -0.113154  0  4.021592  0
C  C29  1  0.21307473  0.34281026  0.66956296  1  0  -0.134709  0  3.791524  0  0  -0.11723  0  4.037777  0  0  -0.122692  0  4.061061  0  0  -0.014075  -0.113589  0  4.022194  0
C  C30  1  0.28692972  0.84278875  0.16956633  1  0  -0.134713  0  3.791037  0  0  -0.117106  0  4.037033  0  0  -0.122619  0  4.060393  0  0  -0.014166  -0.113452  0  4.021447  0
C  C31  1  0.71305234  0.34277286  0.83042094  1  0  -0.134574  0  3.791063  0  0  -0.117054  0  4.037158  0  0  -0.122514  0  4.060443  0  0  -0.014049  -0.113387  0  4.021564  0
C  C32  1  0.86158503  0.75898281  0.40899380  1  0  -0.138321  0  3.79442  0  0  -0.120217  0  4.037698  0  0  -0.125923  0  4.060845  0  0  -0.013894  -0.116325  0  4.02217  0
C  C33  1  0.13841184  0.25901518  0.59101717  1  0  -0.137896  0  3.794233  0  0  -0.119994  0  4.037789  0  0  -0.125707  0  4.060937  0  0  -0.013758  -0.116048  0  4.022194  0
C  C34  1  0.36159315  0.75899661  0.09101713  1  0  -0.138115  0  3.794366  0  0  -0.120179  0  4.037831  0  0  -0.125874  0  4.060986  0  0  -0.01385  -0.116271  0  4.022281  0
C  C35  1  0.63840499  0.25897839  0.90898574  1  0  -0.138093  0  3.794353  0  0  -0.120077  0  4.037732  0  0  -0.125783  0  4.060879  0  0  -0.013912  -0.116186  0  4.02222  0
C  C36  1  0.92407112  0.64680932  0.36902432  1  0  -0.037794  0  3.697372  0  0  -0.060098  0  3.944255  0  0  -0.059924  0  3.962918  0  0  -0.071706  -0.060141  0  3.93174  0
C  C37  1  0.07591518  0.14684737  0.63098223  1  0  -0.03781  0  3.696633  0  0  -0.060141  0  3.943539  0  0  -0.059959  0  3.962188  0  0  -0.071718  -0.060192  0  3.931025  0
C  C38  1  0.42409332  0.64683354  0.13097874  1  0  -0.037736  0  3.696865  0  0  -0.060054  0  3.943745  0  0  -0.059877  0  3.962401  0  0  -0.071654  -0.060098  0  3.931234  0
C  C39  1  0.57591573  0.14680659  0.86902062  1  0  -0.037759  0  3.697211  0  0  -0.060035  0  3.94405  0  0  -0.059863  0  3.962713  0  0  -0.071561  -0.060083  0  3.931552  0
C  C40  1  0.91129325  0.62097145  0.24615284  1  0  -0.028909  0  3.659874  0  0  -0.044038  0  3.908675  0  0  -0.044961  0  3.927476  0  0  -0.068716  -0.043507  0  3.896041  0
C  C41  1  0.08872706  0.12100314  0.75387333  1  0  -0.029031  0  3.659158  0  0  -0.044174  0  3.907879  0  0  -0.045104  0  3.926678  0  0  -0.068837  -0.043652  0  3.895269  0
C  C42  1  0.41128951  0.62098836  0.25386711  1  0  -0.028867  0  3.659354  0  0  -0.044077  0  3.908131  0  0  -0.045001  0  3.926928  0  0  -0.068668  -0.043554  0  3.895505  0
C  C43  1  0.58869921  0.12095865  0.74614106  1  0  -0.029031  0  3.659577  0  0  -0.044105  0  3.908328  0  0  -0.045025  0  3.927122  0  0  -0.06875  -0.043574  0  3.895696  0
C  C44  1  0.83899089  0.70607504  0.16696070  1  0  -0.040772  0  3.689338  0  0  -0.057551  0  3.946096  0  0  -0.058888  0  3.965632  0  0  -0.072886  -0.05656  0  3.933024  0
C  C45  1  0.16106010  0.20611487  0.83303999  1  0  -0.040593  0  3.689172  0  0  -0.057439  0  3.945994  0  0  -0.058776  0  3.965538  0  0  -0.072823  -0.056492  0  3.932902  0
C  C46  1  0.33896099  0.70608521  0.33303089  1  0  -0.040679  0  3.68928  0  0  -0.057403  0  3.946041  0  0  -0.058744  0  3.965584  0  0  -0.072917  -0.056448  0  3.932938  0
C  C47  1  0.66101040  0.20606884  0.66695450  1  0  -0.040872  0  3.689436  0  0  -0.057643  0  3.946147  0  0  -0.058981  0  3.965686  0  0  -0.072872  -0.056659  0  3.933069  0
C  C48  1  0.77520721  0.81837174  0.20802523  1  0  -0.033957  0  3.709183  0  0  -0.060634  0  3.964654  0  0  -0.060428  0  3.984078  0  0  -0.071111  -0.060915  0  3.951897  0
C  C49  1  0.22483918  0.31841231  0.79197627  1  0  -0.033669  0  3.709144  0  0  -0.060387  0  3.964647  0  0  -0.060176  0  3.984066  0  0  -0.071015  -0.060677  0  3.951912  0
C  C50  1  0.27517460  0.81837975  0.29198141  1  0  -0.033928  0  3.709103  0  0  -0.060529  0  3.964529  0  0  -0.060301  0  3.983952  0  0  -0.07099  -0.060812  0  3.951777  0
C  C51  1  0.72479094  0.31836476  0.70801559  1  0  -0.033757  0  3.709014  0  0  -0.060472  0  3.964493  0  0  -0.060265  0  3.983913  0  0  -0.071097  -0.060766  0  3.951741  0
S  S52  1  0.72901286  0.98013438  0.40634182  1  0  1.240766  0  5.514949  0  0  1.159823  0  6.017669  0  0  1.203823  0  6.000401  0  0  0.56035  1.129422  0  6.028653  0
S  S53  1  0.27098999  0.48016892  0.59364465  1  0  1.240551  0  5.515127  0  0  1.159686  0  6.017814  0  0  1.203667  0  6.000541  0  0  0.560251  1.129289  0  6.028796  0
S  S54  1  0.22901719  0.98015004  0.09365238  1  0  1.240622  0  5.515228  0  0  1.15966  0  6.01796  0  0  1.20367  0  6.000698  0  0  0.560212  1.129266  0  6.028925  0
S  S55  1  0.77098187  0.48013487  0.90633230  1  0  1.240894  0  5.515038  0  0  1.159987  0  6.017724  0  0  1.203981  0  6.000456  0  0  0.560386  1.1296  0  6.028699  0
S  S56  1  0.87479767  0.81909406  0.55701754  1  0  1.263933  0  5.499579  0  0  1.178125  0  6.004342  0  0  1.222596  0  5.986507  0  0  0.559803  1.147349  0  6.016088  0
S  S57  1  0.12520198  0.31910778  0.44299027  1  0  1.263996  0  5.499188  0  0  1.178322  0  6.003911  0  0  1.222777  0  5.986075  0  0  0.559982  1.147515  0  6.015682  0
S  S58  1  0.37479863  0.81909405  0.94298641  1  0  1.263835  0  5.499646  0  0  1.178105  0  6.004419  0  0  1.222572  0  5.986585  0  0  0.559814  1.147309  0  6.016185  0
S  S59  1  0.62519976  0.31909215  0.05700790  1  0  1.263717  0  5.499668  0  0  1.177943  0  6.004446  0  0  1.222408  0  5.986615  0  0  0.559712  1.147163  0  6.016204  0
N  N60  1  0.76647134  0.94107869  0.54185350  1  0  -0.73455  0  2.883663  0  0  -0.679024  0  3.184719  0  0  -0.70279  0  3.181474  0  0  -0.401453  -0.662512  0  3.18662  0
N  N61  1  0.23348207  0.44110658  0.45813269  1  0  -0.734493  0  2.883458  0  0  -0.679057  0  3.184513  0  0  -0.702776  0  3.18124  0  0  -0.401568  -0.662546  0  3.18643  0
N  N62  1  0.26650902  0.94109352  0.95814026  1  0  -0.734487  0  2.883755  0  0  -0.67897  0  3.184774  0  0  -0.702727  0  3.181529  0  0  -0.401464  -0.662453  0  3.186682  0
N  N63  1  0.73351894  0.44107428  0.04185043  1  0  -0.73449  0  2.883621  0  0  -0.678996  0  3.184669  0  0  -0.702747  0  3.181418  0  0  -0.401495  -0.662491  0  3.186573  0
O  O64  1  0.54801298  0.00696148  0.39433564  1  0  -0.666664  0  1.934503  0  0  -0.620715  0  2.176614  0  0  -0.640059  0  2.162531  0  0  -0.361818  -0.606865  0  2.185863  0
O  O65  1  0.45200433  0.50698208  0.60562312  1  0  -0.666561  0  1.93439  0  0  -0.620588  0  2.176483  0  0  -0.639939  0  2.1624  0  0  -0.361739  -0.606745  0  2.185754  0
O  O66  1  0.04799842  0.00696712  0.10563398  1  0  -0.666601  0  1.934142  0  0  -0.620624  0  2.176263  0  0  -0.639971  0  2.162174  0  0  -0.361683  -0.606788  0  2.185545  0
O  O67  1  0.95197214  0.50696265  0.89433197  1  0  -0.666663  0  1.934767  0  0  -0.620727  0  2.176896  0  0  -0.640073  0  2.162814  0  0  -0.361783  -0.606847  0  2.186058  0
O  O68  1  0.83677392  0.07954373  0.36312037  1  0  -0.664201  0  1.958821  0  0  -0.628041  0  2.218624  0  0  -0.646965  0  2.204388  0  0  -0.367285  -0.614591  0  2.228008  0
O  O69  1  0.16326643  0.57957125  0.63688030  1  0  -0.664065  0  1.959392  0  0  -0.627893  0  2.2191  0  0  -0.646813  0  2.204861  0  0  -0.367199  -0.614446  0  2.228481  0
O  O70  1  0.33674435  0.07955421  0.13688468  1  0  -0.664033  0  1.959425  0  0  -0.627849  0  2.219161  0  0  -0.646767  0  2.204916  0  0  -0.367183  -0.614405  0  2.228544  0
O  O71  1  0.66321262  0.57953503  0.86311330  1  0  -0.664238  0  1.958918  0  0  -0.628081  0  2.218713  0  0  -0.647005  0  2.204479  0  0  -0.367264  -0.614635  0  2.228087  0
O  O72  1  0.79558162  0.73479024  0.64291121  1  0  -0.698498  0  1.943544  0  0  -0.657472  0  2.197017  0  0  -0.675365  0  2.180579  0  0  -0.420402  -0.644797  0  2.20814  0
O  O73  1  0.20442274  0.23480255  0.35710319  1  0  -0.698541  0  1.943477  0  0  -0.657485  0  2.196867  0  0  -0.675382  0  2.180437  0  0  -0.420434  -0.644803  0  2.207999  0
O  O74  1  0.29557458  0.73479324  0.85710633  1  0  -0.698408  0  1.943938  0  0  -0.657367  0  2.197365  0  0  -0.675261  0  2.180931  0  0  -0.420335  -0.644689  0  2.208497  0
O  O75  1  0.70441335  0.23478760  0.14290806  1  0  -0.698478  0  1.943554  0  0  -0.65744  0  2.197001  0  0  -0.675333  0  2.180569  0  0  -0.420344  -0.644762  0  2.20813  0
O  O76  1  0.05093763  0.84440097  0.58736599  1  0  -0.648512  0  1.979357  0  0  -0.59534  0  2.221113  0  0  -0.616297  0  2.207988  0  0  -0.321436  -0.580453  0  2.230092  0
O  O77  1  0.94903307  0.34439249  0.41263120  1  0  -0.648663  0  1.979084  0  0  -0.59552  0  2.220791  0  0  -0.616484  0  2.207675  0  0  -0.321551  -0.580624  0  2.229781  0
O  O78  1  0.55095607  0.84438444  0.91263014  1  0  -0.648606  0  1.979117  0  0  -0.595489  0  2.220892  0  0  -0.616449  0  2.207769  0  0  -0.321568  -0.580597  0  2.229881  0
O  O79  1  0.44905253  0.34439615  0.08736255  1  0  -0.648546  0  1.979262  0  0  -0.595382  0  2.221014  0  0  -0.616345  0  2.207894  0  0  -0.32148  -0.580491  0  2.229996  0
O  O80  1  0.59849459  0.35637333  0.39859842  1  0  -0.882287  0  1.752891  0  0  -0.847133  0  1.907664  0  0  -0.861802  0  1.879249  0  0  -0.657543  -0.836494  0  1.927656  0
O  O81  1  0.40148879  0.85636252  0.60141415  1  0  -0.882469  0  1.752751  0  0  -0.8471  0  1.907887  0  0  -0.861787  0  1.879409  0  0  -0.657613  -0.836442  0  1.927925  0
O  O82  1  0.09849896  0.35636791  0.10141344  1  0  -0.88239  0  1.752877  0  0  -0.847087  0  1.907923  0  0  -0.861778  0  1.879446  0  0  -0.657514  -0.836432  0  1.927963  0
O  O83  1  0.90149959  0.85637439  0.89860003  1  0  -0.882346  0  1.752868  0  0  -0.847183  0  1.907663  0  0  -0.86185  0  1.879243  0  0  -0.657581  -0.83654  0  1.927658  0
