# generated using pymatgen
data_CdH24C36N6(O3F4)2
_symmetry_space_group_name_H-M   'P 1'
_cell_length_a   10.16372279
_cell_length_b   10.35711938
_cell_length_c   10.36327819
_cell_angle_alpha   71.95837645
_cell_angle_beta   77.48344136
_cell_angle_gamma   78.15226488
_symmetry_Int_Tables_number   1
_chemical_formula_structural   CdH24C36N6(O3F4)2
_chemical_formula_sum   'Cd1 H24 C36 N6 O6 F8'
_cell_volume   1001.33488732
_cell_formula_units_Z   1
loop_
 _symmetry_equiv_pos_site_id
 _symmetry_equiv_pos_as_xyz
  1  'x, y, z'
loop_
 _atom_site_type_symbol
 _atom_site_label
 _atom_site_symmetry_multiplicity
 _atom_site_fract_x
 _atom_site_fract_y
 _atom_site_fract_z
 _atom_site_occupancy
 _atom_site_hle17_bader_spin_density
 _atom_site_hle17_ddec_charge
 _atom_site_hle17_ddec_spin_density
 _atom_site_hle17_ddec_sum_bond_order
 _atom_site_hle17_magmom
 _atom_site_hse06_10hf_bader_spin_density
 _atom_site_hse06_10hf_ddec_charge
 _atom_site_hse06_10hf_ddec_spin_density
 _atom_site_hse06_10hf_ddec_sum_bond_order
 _atom_site_hse06_10hf_magmom
 _atom_site_hse06_bader_spin_density
 _atom_site_hse06_ddec_charge
 _atom_site_hse06_ddec_spin_density
 _atom_site_hse06_ddec_sum_bond_order
 _atom_site_hse06_magmom
 _atom_site_pbe_bader_spin_density
 _atom_site_pbe_cm5_charge
 _atom_site_pbe_ddec_charge
 _atom_site_pbe_ddec_spin_density
 _atom_site_pbe_ddec_sum_bond_order
 _atom_site_pbe_magmom
Cd  Cd0  1  0.00000403  0.49999326  0.50000106  1  0  1.017046  0  1.807841  0  0  0.802699  0  2.274024  0  0  0.85757  0  2.228195  0  0  0.780852  0.761399  0  2.306822  0
H  H1  1  0.75754872  0.53632595  0.77010474  1  0  0.08799  0  0.928455  0  0  0.09775  0  0.987833  0  0  0.100143  0  0.98529  0  0  0.120466  0.096034  0  0.989494  0
H  H2  1  0.24245172  0.46366882  0.22990696  1  0  0.08805  0  0.928373  0  0  0.097725  0  0.987831  0  0  0.100119  0  0.985289  0  0  0.120453  0.096016  0  0.989483  0
H  H3  1  0.13922974  0.65778297  0.63704321  1  0  0.074695  0  0.957716  0  0  0.083405  0  1.019982  0  0  0.08513  0  1.019291  0  0  0.113746  0.082167  0  1.020649  0
H  H4  1  0.86076886  0.34222024  0.36295093  1  0  0.074694  0  0.957614  0  0  0.083411  0  1.01989  0  0  0.085139  0  1.019191  0  0  0.113734  0.082171  0  1.02056  0
H  H5  1  0.72461781  0.61323404  0.98276049  1  0  0.119922  0  0.920541  0  0  0.134332  0  0.967755  0  0  0.137479  0  0.96763  0  0  0.117288  0.132062  0  0.968003  0
H  H6  1  0.27538462  0.38676785  0.01725067  1  0  0.119901  0  0.920607  0  0  0.134311  0  0.96782  0  0  0.137457  0  0.967697  0  0  0.117271  0.132041  0  0.968067  0
H  H7  1  0.11983955  0.74621356  0.83724406  1  0  0.112763  0  0.955909  0  0  0.120013  0  1.018212  0  0  0.124191  0  1.015599  0  0  0.104745  0.117216  0  1.019813  0
H  H8  1  0.88016003  0.25380511  0.16273955  1  0  0.112754  0  0.955975  0  0  0.119965  0  1.018317  0  0  0.124141  0  1.015704  0  0  0.104742  0.117169  0  1.019909  0
H  H9  1  0.79645873  0.74435196  0.10544170  1  0  0.119822  0  0.931961  0  0  0.126915  0  1.000123  0  0  0.13075  0  0.995403  0  0  0.104406  0.123937  0  1.00374  0
H  H10  1  0.20354555  0.25566038  0.89455252  1  0  0.119875  0  0.931927  0  0  0.126963  0  1.000055  0  0  0.130806  0  0.995321  0  0  0.104425  0.123986  0  1.003669  0
H  H11  1  0.95978665  0.65768693  0.12998647  1  0  0.118038  0  0.929449  0  0  0.130573  0  0.993271  0  0  0.132059  0  0.992967  0  0  0.105473  0.129295  0  0.9936  0
H  H12  1  0.04021722  0.34232132  0.87000807  1  0  0.118097  0  0.929463  0  0  0.130606  0  0.993269  0  0  0.132094  0  0.992965  0  0  0.105492  0.129331  0  0.993593  0
H  H13  1  0.07722192  0.18230958  0.62264856  1  0  0.079785  0  0.94657  0  0  0.084682  0  1.015732  0  0  0.087599  0  1.012896  0  0  0.110695  0.082872  0  1.017175  0
H  H14  1  0.92278061  0.81767087  0.37736309  1  0  0.079706  0  0.946446  0  0  0.084561  0  1.015672  0  0  0.087475  0  1.012841  0  0  0.110656  0.082752  0  1.017119  0
H  H15  1  0.69570423  0.41811084  0.60830313  1  0  0.083554  0  0.955484  0  0  0.091154  0  1.020228  0  0  0.093747  0  1.017465  0  0  0.113964  0.089215  0  1.02229  0
H  H16  1  0.30430723  0.58187886  0.39169732  1  0  0.083651  0  0.955392  0  0  0.091213  0  1.020125  0  0  0.093815  0  1.017366  0  0  0.113988  0.089274  0  1.022187  0
H  H17  1  0.98349511  0.96816630  0.65410720  1  0  0.104559  0  0.971371  0  0  0.109852  0  1.041935  0  0  0.112929  0  1.042052  0  0  0.09884  0.107955  0  1.041349  0
H  H18  1  0.01650157  0.03182039  0.34590084  1  0  0.104474  0  0.97138  0  0  0.109706  0  1.042012  0  0  0.112785  0  1.04213  0  0  0.098806  0.107816  0  1.041406  0
H  H19  1  0.58453533  0.21396979  0.64091084  1  0  0.128321  0  0.979079  0  0  0.134998  0  1.042464  0  0  0.138911  0  1.040752  0  0  0.106358  0.131778  0  1.044397  0
H  H20  1  0.41547319  0.78602717  0.35908419  1  0  0.128297  0  0.978949  0  0  0.13497  0  1.04242  0  0  0.138885  0  1.040706  0  0  0.106359  0.131749  0  1.044355  0
H  H21  1  0.79712680  0.86637873  0.63838015  1  0  0.100653  0  0.931566  0  0  0.113582  0  0.995461  0  0  0.114625  0  0.996265  0  0  0.100562  0.112987  0  0.994795  0
H  H22  1  0.20286291  0.13361640  0.36161517  1  0  0.100739  0  0.931094  0  0  0.113573  0  0.99537  0  0  0.114617  0  0.996171  0  0  0.100556  0.112985  0  0.994701  0
H  H23  1  0.67385017  0.90492927  0.77486543  1  0  0.113967  0  0.917998  0  0  0.128014  0  0.97532  0  0  0.130217  0  0.973766  0  0  0.107313  0.126379  0  0.976573  0
H  H24  1  0.32614618  0.09506057  0.22513692  1  0  0.114047  0  0.917749  0  0  0.127994  0  0.975406  0  0  0.130198  0  0.973852  0  0  0.107304  0.126361  0  0.976658  0
C  C25  1  0.83608627  0.58155623  0.79039696  1  0  0.136591  0  3.71891  0  0  0.101876  0  3.982959  0  0  0.110361  0  3.999932  0  0  0.049122  0.096137  0  3.971158  0
C  C26  1  0.16391991  0.41844164  0.20960694  1  0  0.136596  0  3.718754  0  0  0.101936  0  3.982767  0  0  0.110416  0  3.999744  0  0  0.049169  0.096191  0  3.970978  0
C  C27  1  0.04764141  0.65135107  0.71472307  1  0  0.132808  0  3.730377  0  0  0.102602  0  3.982232  0  0  0.110491  0  4.000589  0  0  0.040995  0.097197  0  3.969835  0
C  C28  1  0.95235580  0.34866246  0.28526541  1  0  0.132764  0  3.73025  0  0  0.102532  0  3.982106  0  0  0.110419  0  4.000465  0  0  0.041049  0.097127  0  3.969713  0
C  C29  1  0.81817034  0.62559367  0.90808036  1  0  -0.172297  0  3.695053  0  0  -0.191273  0  3.944783  0  0  -0.199941  0  3.966693  0  0  -0.08138  -0.185697  0  3.929987  0
C  C30  1  0.18183014  0.37440942  0.09192020  1  0  -0.172323  0  3.695266  0  0  -0.191309  0  3.944971  0  0  -0.199975  0  3.96688  0  0  -0.081398  -0.185731  0  3.930178  0
C  C31  1  0.03671462  0.69953065  0.82812083  1  0  -0.183061  0  3.715865  0  0  -0.199231  0  3.963933  0  0  -0.207691  0  3.984848  0  0  -0.089201  -0.1934  0  3.949152  0
C  C32  1  0.96327872  0.30048075  0.17187577  1  0  -0.182945  0  3.71588  0  0  -0.199076  0  3.963963  0  0  -0.207533  0  3.984878  0  0  -0.089209  -0.193242  0  3.949181  0
C  C33  1  0.91937594  0.68744981  0.92844494  1  0  0.168923  0  3.697787  0  0  0.184408  0  3.937819  0  0  0.189236  0  3.961242  0  0  0.016894  0.181267  0  3.921528  0
C  C34  1  0.08062122  0.31257085  0.07154435  1  0  0.168816  0  3.697906  0  0  0.184315  0  3.937858  0  0  0.189139  0  3.961285  0  0  0.01683  0.181173  0  3.921567  0
C  C35  1  0.90328449  0.73622261  0.05478933  1  0  -0.186135  0  3.694559  0  0  -0.2306  0  3.935613  0  0  -0.231277  0  3.943872  0  0  -0.152848  -0.229833  0  3.930039  0
C  C36  1  0.09671715  0.26378059  0.94520326  1  0  -0.186304  0  3.694693  0  0  -0.230708  0  3.935668  0  0  -0.231386  0  3.94393  0  0  -0.15286  -0.229939  0  3.930087  0
C  C37  1  0.95365817  0.87097524  0.02631652  1  0  -0.055205  0  3.779725  0  0  -0.059954  0  4.049303  0  0  -0.062465  0  4.071401  0  0  -0.02104  -0.058325  0  4.03453  0
C  C38  1  0.04635001  0.12902978  0.97368586  1  0  -0.055059  0  3.779461  0  0  -0.059852  0  4.049047  0  0  -0.062359  0  4.071143  0  0  -0.021023  -0.058226  0  4.034276  0
C  C39  1  0.86698733  0.99577638  0.99402478  1  0  0.1633  0  3.799  0  0  0.130221  0  4.102046  0  0  0.138121  0  4.112708  0  0  0.086645  0.124479  0  4.09532  0
C  C40  1  0.13301961  0.00422357  0.00597643  1  0  0.163405  0  3.798793  0  0  0.130311  0  4.101876  0  0  0.13821  0  4.112538  0  0  0.086666  0.124571  0  4.095153  0
C  C41  1  0.91194852  0.12088235  0.96938610  1  0  0.150603  0  3.804728  0  0  0.118955  0  4.109278  0  0  0.126727  0  4.11968  0  0  0.083558  0.113194  0  4.102935  0
C  C42  1  0.08805402  0.87912680  0.03061712  1  0  0.150693  0  3.804727  0  0  0.119028  0  4.10929  0  0  0.126799  0  4.119692  0  0  0.083547  0.113265  0  4.102949  0
C  C43  1  0.96857331  0.18457414  0.62772143  1  0  0.122636  0  3.73895  0  0  0.090288  0  4.000689  0  0  0.097671  0  4.019031  0  0  0.035841  0.085662  0  3.987678  0
C  C44  1  0.03143261  0.81540429  0.37228629  1  0  0.122898  0  3.738881  0  0  0.090538  0  4.000567  0  0  0.097922  0  4.018907  0  0  0.035835  0.085905  0  3.987566  0
C  C45  1  0.75528169  0.31567974  0.62056426  1  0  0.12986  0  3.710573  0  0  0.097894  0  3.966864  0  0  0.105796  0  3.984231  0  0  0.042125  0.092432  0  3.955284  0
C  C46  1  0.24472950  0.68431202  0.37943467  1  0  0.129781  0  3.710188  0  0  0.097878  0  3.966339  0  0  0.105768  0  3.983716  0  0  0.042101  0.092416  0  3.954759  0
C  C47  1  0.91562101  0.06558237  0.64553837  1  0  -0.182654  0  3.72554  0  0  -0.203317  0  3.984062  0  0  -0.21134  0  4.005387  0  0  -0.092534  -0.197865  0  3.968936  0
C  C48  1  0.08437635  0.93439916  0.35447298  1  0  -0.182556  0  3.725591  0  0  -0.20314  0  3.984113  0  0  -0.211167  0  4.005441  0  0  -0.092448  -0.197687  0  3.968991  0
C  C49  1  0.69439325  0.20145129  0.63845832  1  0  -0.163842  0  3.66458  0  0  -0.180968  0  3.90638  0  0  -0.18917  0  3.92644  0  0  -0.084381  -0.175502  0  3.89337  0
C  C50  1  0.30561045  0.79855079  0.36153903  1  0  -0.16371  0  3.664068  0  0  -0.180926  0  3.906108  0  0  -0.189134  0  3.926171  0  0  -0.08437  -0.175459  0  3.893095  0
C  C51  1  0.77593922  0.07305606  0.64951962  1  0  0.164191  0  3.705083  0  0  0.178221  0  3.945453  0  0  0.184377  0  3.965334  0  0  0.013597  0.174353  0  3.931402  0
C  C52  1  0.22406047  0.92694004  0.35047156  1  0  0.1645  0  3.70418  0  0  0.17819  0  3.945431  0  0  0.184356  0  3.965307  0  0  0.013587  0.174322  0  3.931381  0
C  C53  1  0.71584302  0.94609787  0.66579776  1  0  -0.175997  0  3.697656  0  0  -0.219126  0  3.943032  0  0  -0.220026  0  3.952467  0  0  -0.146397  -0.218307  0  3.936111  0
C  C54  1  0.28414950  0.05389820  0.33420060  1  0  -0.17303  0  3.699561  0  0  -0.219042  0  3.943013  0  0  -0.219934  0  3.952448  0  0  -0.146419  -0.218229  0  3.936094  0
C  C55  1  0.60503310  0.97238686  0.58139152  1  0  -0.039661  0  3.763094  0  0  -0.05546  0  4.048755  0  0  -0.057081  0  4.069082  0  0  -0.019914  -0.054021  0  4.034511  0
C  C56  1  0.39495450  0.02762143  0.41861289  1  0  -0.050596  0  3.778284  0  0  -0.055739  0  4.048843  0  0  -0.057391  0  4.069217  0  0  -0.019929  -0.054299  0  4.034601  0
C  C57  1  0.63003598  0.02000931  0.43826779  1  0  0.163783  0  3.76287  0  0  0.129068  0  4.072326  0  0  0.138258  0  4.081174  0  0  0.086267  0.123767  0  4.06567  0
C  C58  1  0.36995545  0.97998671  0.56173466  1  0  0.167007  0  3.765824  0  0  0.129274  0  4.072319  0  0  0.138478  0  4.08117  0  0  0.086362  0.123973  0  4.065659  0
C  C59  1  0.52864779  0.04704507  0.35859332  1  0  0.1812  0  3.787141  0  0  0.145802  0  4.094332  0  0  0.154779  0  4.101514  0  0  0.09062  0.139515  0  4.089116  0
C  C60  1  0.47134190  0.95296326  0.64140682  1  0  0.178089  0  3.784434  0  0  0.145732  0  4.094376  0  0  0.154702  0  4.101547  0  0  0.090585  0.139447  0  4.089158  0
N  N61  1  0.94885204  0.59442565  0.69430515  1  0  -0.339463  0  3.242256  0  0  -0.26672  0  3.514625  0  0  -0.286475  0  3.532764  0  0  -0.331064  -0.252653  0  3.502028  0
N  N62  1  0.05114817  0.40557952  0.30569390  1  0  -0.339458  0  3.242114  0  0  -0.266664  0  3.514423  0  0  -0.286423  0  3.532571  0  0  -0.331076  -0.252597  0  3.501832  0
N  N63  1  0.89055187  0.30827642  0.61377601  1  0  -0.350532  0  3.283046  0  0  -0.275915  0  3.556865  0  0  -0.295922  0  3.575463  0  0  -0.34427  -0.26168  0  3.543618  0
N  N64  1  0.10945889  0.69170407  0.38622632  1  0  -0.350801  0  3.282968  0  0  -0.276114  0  3.556633  0  0  -0.296121  0  3.575225  0  0  -0.344272  -0.261881  0  3.543393  0
N  N65  1  0.29783668  0.32811790  0.58374473  1  0  0.689502  0  4.159602  0  0  0.740562  0  4.429055  0  0  0.769125  0  4.434289  0  0  0.096706  0.721143  0  4.42476  0
N  N66  1  0.70216346  0.67188117  0.41625226  1  0  0.68972  0  4.159213  0  0  0.740448  0  4.429054  0  0  0.769012  0  4.434294  0  0  0.096628  0.721032  0  4.424759  0
O  O67  1  0.17924649  0.39118904  0.62464435  1  0  -0.534814  0  1.847861  0  0  -0.512747  0  2.094733  0  0  -0.533956  0  2.086669  0  0  -0.229651  -0.497114  0  2.099903  0
O  O68  1  0.82075724  0.60881193  0.37535911  1  0  -0.534927  0  1.847866  0  0  -0.512713  0  2.094839  0  0  -0.533914  0  2.086755  0  0  -0.229629  -0.497065  0  2.099973  0
O  O69  1  0.34053449  0.34498317  0.45711966  1  0  -0.469554  0  1.71229  0  0  -0.47486  0  1.907558  0  0  -0.488292  0  1.901825  0  0  -0.205538  -0.464929  0  1.911138  0
O  O70  1  0.65944738  0.65499671  0.54287681  1  0  -0.469576  0  1.712235  0  0  -0.474775  0  1.907582  0  0  -0.488207  0  1.901847  0  0  -0.205401  -0.464847  0  1.911159  0
O  O71  1  0.36557610  0.25178145  0.67420066  1  0  -0.437482  0  1.732128  0  0  -0.440765  0  1.926358  0  0  -0.453337  0  1.919307  0  0  -0.18765  -0.431612  0  1.931241  0
O  O72  1  0.63444262  0.74823591  0.32578835  1  0  -0.437547  0  1.731704  0  0  -0.44075  0  1.926117  0  0  -0.453323  0  1.919065  0  0  -0.187723  -0.431597  0  1.931  0
F  F73  1  0.73613349  0.99572738  0.98437128  1  0  -0.150574  0  1.220226  0  0  -0.104566  0  1.381631  0  0  -0.113164  0  1.372777  0  0  -0.08299  -0.098308  0  1.387743  0
F  F74  1  0.26386982  0.00427554  0.01563844  1  0  -0.150681  0  1.220216  0  0  -0.104664  0  1.38163  0  0  -0.113262  0  1.372778  0  0  -0.083047  -0.098408  0  1.387745  0
F  F75  1  0.82175527  0.23845156  0.93902173  1  0  -0.163915  0  1.221198  0  0  -0.119119  0  1.387703  0  0  -0.127842  0  1.379313  0  0  -0.089222  -0.112718  0  1.393257  0
F  F76  1  0.17824414  0.76155868  0.06097984  1  0  -0.163944  0  1.221062  0  0  -0.119143  0  1.387571  0  0  -0.127864  0  1.379179  0  0  -0.089217  -0.11274  0  1.393125  0
F  F77  1  0.75921046  0.04042846  0.37304648  1  0  -0.184019  0  1.232948  0  0  -0.120962  0  1.390815  0  0  -0.135581  0  1.388153  0  0  -0.086141  -0.114222  0  1.396324  0
F  F78  1  0.24078320  0.95957261  0.62695792  1  0  -0.183955  0  1.231966  0  0  -0.121041  0  1.390701  0  0  -0.13567  0  1.388032  0  0  -0.086213  -0.1143  0  1.396208  0
F  F79  1  0.56200209  0.09230285  0.21980413  1  0  -0.163161  0  1.208779  0  0  -0.120901  0  1.36917  0  0  -0.127908  0  1.357831  0  0  -0.092401  -0.115542  0  1.376798  0
F  F80  1  0.43798502  0.90770244  0.78019643  1  0  -0.163285  0  1.209598  0  0  -0.120903  0  1.369146  0  0  -0.12791  0  1.357807  0  0  -0.092366  -0.115543  0  1.376774  0
