# generated using pymatgen
data_Zn3H24C26N12(ClO3)2
_symmetry_space_group_name_H-M   'P 1'
_cell_length_a   6.82793316
_cell_length_b   11.22396666
_cell_length_c   22.38128929
_cell_angle_alpha   87.21493307
_cell_angle_beta   80.80776182
_cell_angle_gamma   72.29183439
_symmetry_Int_Tables_number   1
_chemical_formula_structural   Zn3H24C26N12(ClO3)2
_chemical_formula_sum   'Zn6 H48 C52 N24 Cl4 O12'
_cell_volume   1612.96970367
_cell_formula_units_Z   2
loop_
 _symmetry_equiv_pos_site_id
 _symmetry_equiv_pos_as_xyz
  1  'x, y, z'
loop_
 _atom_site_type_symbol
 _atom_site_label
 _atom_site_symmetry_multiplicity
 _atom_site_fract_x
 _atom_site_fract_y
 _atom_site_fract_z
 _atom_site_occupancy
 _atom_site_hle17_bader_spin_density
 _atom_site_hle17_ddec_charge
 _atom_site_hle17_ddec_spin_density
 _atom_site_hle17_ddec_sum_bond_order
 _atom_site_hle17_magmom
 _atom_site_hse06_10hf_bader_spin_density
 _atom_site_hse06_10hf_ddec_charge
 _atom_site_hse06_10hf_ddec_spin_density
 _atom_site_hse06_10hf_ddec_sum_bond_order
 _atom_site_hse06_10hf_magmom
 _atom_site_hse06_bader_spin_density
 _atom_site_hse06_ddec_charge
 _atom_site_hse06_ddec_spin_density
 _atom_site_hse06_ddec_sum_bond_order
 _atom_site_hse06_magmom
 _atom_site_pbe_bader_charge
 _atom_site_pbe_bader_spin_density
 _atom_site_pbe_cm5_charge
 _atom_site_pbe_ddec_charge
 _atom_site_pbe_ddec_spin_density
 _atom_site_pbe_ddec_sum_bond_order
 _atom_site_pbe_magmom
Zn  Zn0  1  0.89142353  0.49977768  0.50038397  1  0  0.861246  0  2.110722  0  0  0.682066  0  2.6044  0  0  0.719999  0  2.559163  0  1.150928  0  0.578757  0.655793  0  2.635419  0
Zn  Zn1  1  0.14132590  0.00014403  0.00033299  1  0  0.861013  0  2.110794  0  0  0.682206  0  2.604342  0  0  0.720159  0  2.559053  0  1.151754  0  0.57858  0.655921  0  2.6354  0
Zn  Zn2  1  0.72974170  0.11535281  0.41511313  1  0  0.99319  0  1.886659  0  0  0.807114  0  2.337665  0  0  0.852252  0  2.288454  0  1.306048  0  0.690108  0.775671  0  2.371351  0
Zn  Zn3  1  0.26142628  0.88264065  0.58504584  1  0  0.993006  0  1.881515  0  0  0.806851  0  2.331836  0  0  0.852218  0  2.282523  0  1.301815  0  0.690677  0.775259  0  2.365596  0
Zn  Zn4  1  0.89425288  0.61728346  0.08499309  1  0  0.993933  0  1.880613  0  0  0.807462  0  2.331105  0  0  0.852806  0  2.281801  0  1.306889  0  0.690845  0.775865  0  2.364858  0
Zn  Zn5  1  0.59501994  0.38468768  0.91509257  1  0  0.993777  0  1.885756  0  0  0.808074  0  2.336272  0  0  0.853193  0  2.287107  0  1.306403  0  0.690585  0.776655  0  2.369923  0
H  H6  1  0.85041867  0.23821486  0.49889044  1  0  0.396859  0  0.913204  0  0  0.366226  0  0.978691  0  0  0.375721  0  0.965074  0  0.610738  0  0.263026  0.359466  0  0.988384  0
H  H7  1  0.58948525  0.76141531  0.50065487  1  0  0.395423  0  0.915457  0  0  0.36497  0  0.980636  0  0  0.374508  0  0.966978  0  0.604918  0  0.262228  0.358197  0  0.990329  0
H  H8  1  0.10107090  0.73859391  0.00068200  1  0  0.395853  0  0.915022  0  0  0.365067  0  0.980821  0  0  0.374586  0  0.967191  0  0.603265  0  0.261881  0.358298  0  0.99051  0
H  H9  1  0.83840670  0.26158620  0.99894988  1  0  0.396466  0  0.913495  0  0  0.365851  0  0.978954  0  0  0.375342  0  0.965348  0  0.609858  0  0.262868  0.359102  0  0.988626  0
H  H10  1  0.99031432  0.09456467  0.48704710  1  0  0.41617  0  0.893377  0  0  0.382398  0  0.961583  0  0  0.394423  0  0.944242  0  0.645909  0  0.285392  0.373928  0  0.973772  0
H  H11  1  0.57308753  0.90524508  0.51258696  1  0  0.415548  0  0.89462  0  0  0.382036  0  0.962231  0  0  0.394016  0  0.944973  0  0.65074  0  0.285399  0.373591  0  0.974371  0
H  H12  1  0.22846282  0.59472674  0.01252544  1  0  0.416148  0  0.894082  0  0  0.382834  0  0.961324  0  0  0.39482  0  0.944062  0  0.640597  0  0.285791  0.374385  0  0.973471  0
H  H13  1  0.83490642  0.40518308  0.98708120  1  0  0.416608  0  0.892706  0  0  0.38303  0  0.960516  0  0  0.395011  0  0.943227  0  0.647035  0  0.285739  0.374567  0  0.972708  0
H  H14  1  0.04587328  0.25937149  0.36381616  1  0  0.088879  0  0.948188  0  0  0.09384  0  1.015645  0  0  0.096118  0  1.013898  0  0.129878  0  0.117595  0.0921  0  1.017033  0
H  H15  1  0.67077439  0.73900449  0.63567917  1  0  0.088499  0  0.949058  0  0  0.093147  0  1.017197  0  0  0.095367  0  1.015566  0  0.129142  0  0.117294  0.09144  0  1.018538  0
H  H16  1  0.15978342  0.76109078  0.13569871  1  0  0.088993  0  0.948363  0  0  0.093602  0  1.016613  0  0  0.095836  0  1.014919  0  0.132663  0  0.117269  0.09188  0  1.017955  0
H  H17  1  0.05512447  0.24090468  0.86396238  1  0  0.089752  0  0.947842  0  0  0.094218  0  1.016005  0  0  0.096502  0  1.01421  0  0.12425  0  0.117645  0.092481  0  1.017396  0
H  H18  1  0.22926758  0.29748261  0.26214601  1  0  0.098066  0  0.990125  0  0  0.109396  0  1.050788  0  0  0.111611  0  1.050898  0  0.081566  0  0.105576  0.107784  0  1.050897  0
H  H19  1  0.78938100  0.70322311  0.73686040  1  0  0.09803  0  0.987565  0  0  0.10889  0  1.049094  0  0  0.111248  0  1.048973  0  0.096665  0  0.105627  0.107218  0  1.049271  0
H  H20  1  0.24157811  0.79721166  0.23698562  1  0  0.096937  0  0.988402  0  0  0.108105  0  1.049604  0  0  0.110458  0  1.049483  0  0.071109  0  0.105254  0.10641  0  1.049846  0
H  H21  1  0.27687835  0.20230535  0.76234723  1  0  0.097644  0  0.990643  0  0  0.1091  0  1.051212  0  0  0.111382  0  1.051237  0  0.081833  0  0.105537  0.107413  0  1.051417  0
H  H22  1  0.17717699  0.19312104  0.17055740  1  0  0.100101  0  0.934169  0  0  0.111774  0  0.992706  0  0  0.114516  0  0.990043  0  0.106552  0  0.111514  0.109716  0  0.994712  0
H  H23  1  0.53859767  0.80801958  0.82869360  1  0  0.101538  0  0.931508  0  0  0.112594  0  0.990523  0  0  0.115353  0  0.987867  0  0.094747  0  0.111492  0.110496  0  0.992555  0
H  H24  1  0.09607802  0.69200367  0.32872917  1  0  0.101093  0  0.933153  0  0  0.112508  0  0.991726  0  0  0.115198  0  0.989169  0  0.115091  0  0.11158  0.11048  0  0.993678  0
H  H25  1  0.12049200  0.30599540  0.67064772  1  0  0.100325  0  0.93335  0  0  0.112033  0  0.991863  0  0  0.114707  0  0.989283  0  0.103216  0  0.111326  0.109962  0  0.993892  0
H  H26  1  0.93681424  0.06618124  0.18410923  1  0  0.111429  0  0.977563  0  0  0.116403  0  1.047649  0  0  0.11978  0  1.045925  0  0.120892  0  0.101211  0.113979  0  1.048978  0
H  H27  1  0.18439175  0.93388009  0.81571262  1  0  0.111539  0  0.975462  0  0  0.117173  0  1.044662  0  0  0.120548  0  1.042935  0  0.139049  0  0.101362  0.114736  0  1.04602  0
H  H28  1  0.86866053  0.56558668  0.31560752  1  0  0.111139  0  0.975996  0  0  0.116355  0  1.045552  0  0  0.119732  0  1.043856  0  0.138518  0  0.101281  0.113939  0  1.046858  0
H  H29  1  0.75336258  0.43324758  0.68404443  1  0  0.110993  0  0.97647  0  0  0.116088  0  1.046586  0  0  0.119519  0  1.044796  0  0.141685  0  0.100942  0.113579  0  1.048079  0
H  H30  1  0.72902079  0.96412096  0.20182641  1  0  0.111429  0  0.954828  0  0  0.119043  0  1.018607  0  0  0.122394  0  1.017092  0  0.095959  0  0.109441  0.116655  0  1.019774  0
H  H31  1  0.89280804  0.03723197  0.79819200  1  0  0.111607  0  0.954381  0  0  0.118795  0  1.01882  0  0  0.12206  0  1.017406  0  0.096078  0  0.109616  0.116442  0  1.01993  0
H  H32  1  0.67981814  0.46279168  0.29810403  1  0  0.111517  0  0.954168  0  0  0.119003  0  1.018145  0  0  0.122265  0  1.016739  0  0.094095  0  0.109597  0.116665  0  1.019264  0
H  H33  1  0.44372787  0.53637460  0.70181492  1  0  0.111858  0  0.953741  0  0  0.119258  0  1.017859  0  0  0.122507  0  1.016461  0  0.127387  0  0.109364  0.116935  0  1.018955  0
H  H34  1  0.47697483  0.85150661  0.22789186  1  0  0.085986  0  1.007204  0  0  0.087727  0  1.084154  0  0  0.091195  0  1.080475  0  0.122491  0  0.101842  0.085182  0  1.086739  0
H  H35  1  0.55563653  0.15063943  0.77242688  1  0  0.086048  0  1.008994  0  0  0.087995  0  1.085487  0  0  0.091459  0  1.081851  0  0.116787  0  0.102335  0.085458  0  1.088045  0
H  H36  1  0.45533594  0.34986962  0.27236773  1  0  0.087021  0  1.007157  0  0  0.088745  0  1.083919  0  0  0.092261  0  1.080219  0  0.121467  0  0.102373  0.086194  0  1.086519  0
H  H37  1  0.07897109  0.64881873  0.72781577  1  0  0.085746  0  1.008154  0  0  0.087311  0  1.085297  0  0  0.090873  0  1.081537  0  0.134491  0  0.101656  0.084736  0  1.087939  0
H  H38  1  0.29112974  0.85709762  0.33774071  1  0  0.107218  0  0.949626  0  0  0.11805  0  1.007277  0  0  0.120632  0  1.007255  0  0.101023  0  0.107571  0.116212  0  1.007411  0
H  H39  1  0.48753906  0.14346127  0.66295173  1  0  0.106086  0  0.949768  0  0  0.117681  0  1.006884  0  0  0.120238  0  1.006876  0  0.096928  0  0.107801  0.115827  0  1.007067  0
H  H40  1  0.37965911  0.35738355  0.16290233  1  0  0.105891  0  0.95037  0  0  0.117589  0  1.007358  0  0  0.120078  0  1.007419  0  0.080234  0  0.107479  0.115793  0  1.007455  0
H  H41  1  0.89845240  0.64279376  0.83759929  1  0  0.106133  0  0.951332  0  0  0.117906  0  1.007918  0  0  0.120494  0  1.007888  0  0.122745  0  0.107446  0.116027  0  1.008112  0
H  H42  1  0.39587187  0.97310418  0.41392035  1  0  0.084844  0  0.944778  0  0  0.09204  0  1.009681  0  0  0.094377  0  1.008039  0  0.114064  0  0.116658  0.09028  0  1.010941  0
H  H43  1  0.78564310  0.02485374  0.58676895  1  0  0.086122  0  0.943362  0  0  0.092811  0  1.008547  0  0  0.095095  0  1.006969  0  0.118565  0  0.117186  0.091064  0  1.009812  0
H  H44  1  0.55978398  0.47563941  0.08674029  1  0  0.085777  0  0.943721  0  0  0.092381  0  1.008876  0  0  0.094748  0  1.007201  0  0.117491  0  0.117203  0.090572  0  1.010229  0
H  H45  1  0.11898697  0.52678346  0.91381398  1  0  0.084449  0  0.944828  0  0  0.091824  0  1.009494  0  0  0.094099  0  1.007975  0  0.11335  0  0.116737  0.090089  0  1.010727  0
H  H46  1  0.17740968  0.29678771  0.55956667  1  0  0.128748  0  0.950291  0  0  0.135785  0  1.020491  0  0  0.139253  0  1.017595  0  0.079848  0  0.102357  0.1333  0  1.022629  0
H  H47  1  0.03547744  0.70234677  0.44091213  1  0  0.128238  0  0.95106  0  0  0.13528  0  1.021296  0  0  0.138753  0  1.01843  0  0.094935  0  0.102191  0.132791  0  1.023418  0
H  H48  1  0.48838276  0.79745576  0.94081856  1  0  0.12824  0  0.951793  0  0  0.13544  0  1.021786  0  0  0.138913  0  1.018919  0  0.088255  0  0.102417  0.132947  0  1.023902  0
H  H49  1  0.22411166  0.20313586  0.05946465  1  0  0.128697  0  0.950119  0  0  0.135865  0  1.020058  0  0  0.139309  0  1.017233  0  0.093994  0  0.102663  0.133396  0  1.02215  0
H  H50  1  0.44388729  0.28989761  0.55241245  1  0  0.142137  0  0.940556  0  0  0.151658  0  1.004807  0  0  0.154942  0  1.002755  0  0.117248  0  0.102519  0.149381  0  1.006266  0
H  H51  1  0.28768637  0.70986817  0.44752831  1  0  0.14086  0  0.939309  0  0  0.150888  0  1.003282  0  0  0.154177  0  1.00123  0  0.144687  0  0.102248  0.148594  0  1.004755  0
H  H52  1  0.74807428  0.79003911  0.94741380  1  0  0.140999  0  0.938988  0  0  0.150735  0  1.003193  0  0  0.154004  0  1.001154  0  0.144904  0  0.102179  0.148466  0  1.004636  0
H  H53  1  0.48375643  0.20998949  0.05222696  1  0  0.140946  0  0.939624  0  0  0.150471  0  1.004189  0  0  0.153779  0  1.002118  0  0.144119  0  0.102035  0.148164  0  1.005675  0
C  C54  1  0.02546984  0.21866501  0.32284978  1  0  0.142685  0  3.686336  0  0  0.111869  0  3.939917  0  0  0.118475  0  3.957907  0  0.489476  0  0.054091  0.107638  0  3.9277  0
C  C55  1  0.56770779  0.78021415  0.67668789  1  0  0.141207  0  3.689314  0  0  0.110269  0  3.943475  0  0  0.116849  0  3.961575  0  0.525658  0  0.053942  0.106019  0  3.931213  0
C  C56  1  0.09787451  0.71982875  0.17668360  1  0  0.141198  0  3.687194  0  0  0.110118  0  3.941541  0  0  0.116706  0  3.95966  0  0.458011  0  0.054099  0.105919  0  3.929226  0
C  C57  1  0.99411355  0.28142972  0.82296761  1  0  0.142311  0  3.689291  0  0  0.111412  0  3.942953  0  0  0.118053  0  3.960985  0  0.478577  0  0.054202  0.107146  0  3.93072  0
C  C58  1  0.12855970  0.23821860  0.26605607  1  0  -0.11966  0  3.725744  0  0  -0.134991  0  3.977564  0  0  -0.141923  0  4.000257  0  -0.003896  0  -0.082629  -0.130535  0  3.962296  0
C  C59  1  0.63280983  0.76181561  0.73324940  1  0  -0.117533  0  3.724601  0  0  -0.132584  0  3.976333  0  0  -0.139601  0  3.999063  0  -0.052139  0  -0.082297  -0.128052  0  3.961001  0
C  C60  1  0.14408593  0.73835261  0.23329401  1  0  -0.116277  0  3.723798  0  0  -0.131518  0  3.975661  0  0  -0.138501  0  3.99837  0  0.006571  0  -0.081916  -0.127028  0  3.960401  0
C  C61  1  0.11690265  0.26157124  0.76619629  1  0  -0.118265  0  3.7258  0  0  -0.133497  0  3.977137  0  0  -0.14046  0  3.999806  0  0.021188  0  -0.082056  -0.128974  0  3.961838  0
C  C62  1  0.09816807  0.18147606  0.21576262  1  0  0.013824  0  3.70816  0  0  -0.006017  0  3.959302  0  0  -0.002083  0  3.976962  0  -0.07744  0  -0.059865  -0.008338  0  3.947264  0
C  C63  1  0.49397985  0.81881535  0.78365453  1  0  0.011454  0  3.707644  0  0  -0.007798  0  3.958766  0  0  -0.00392  0  3.976551  0  -0.044047  0  -0.059894  -0.010045  0  3.946552  0
C  C64  1  0.06261107  0.68106481  0.28365972  1  0  0.011951  0  3.708432  0  0  -0.007589  0  3.959357  0  0  -0.003648  0  3.97715  0  -0.024976  0  -0.05966  -0.009931  0  3.947238  0
C  C65  1  0.02978268  0.31794622  0.71584718  1  0  0.012638  0  3.706386  0  0  -0.007451  0  3.957765  0  0  -0.00353  0  3.975582  0  -0.069681  0  -0.060062  -0.009695  0  3.945531  0
C  C66  1  0.96234633  0.10937085  0.22348990  1  0  -0.13692  0  3.6918  0  0  -0.156362  0  3.941214  0  0  -0.163719  0  3.962974  0  0.009946  0  -0.075124  -0.151603  0  3.92666  0
C  C67  1  0.29350184  0.89035472  0.77623118  1  0  -0.136351  0  3.689898  0  0  -0.15594  0  3.938841  0  0  -0.163265  0  3.960601  0  -0.0384  0  -0.075058  -0.151181  0  3.92423  0
C  C68  1  0.93423026  0.60919996  0.27616356  1  0  -0.135401  0  3.690454  0  0  -0.154957  0  3.938944  0  0  -0.162291  0  3.960709  0  -0.051469  0  -0.07511  -0.15022  0  3.924406  0
C  C69  1  0.82195660  0.39026279  0.72348903  1  0  -0.136285  0  3.689246  0  0  -0.155922  0  3.938242  0  0  -0.163266  0  3.960028  0  -0.030038  0  -0.074896  -0.151153  0  3.923622  0
C  C70  1  0.85974018  0.09641369  0.28168589  1  0  0.176879  0  3.746892  0  0  0.172685  0  3.984513  0  0  0.179203  0  4.004938  0  0.496978  0  0.122528  0.168351  0  3.970637  0
C  C71  1  0.23721962  0.90251036  0.71823918  1  0  0.177836  0  3.746899  0  0  0.173744  0  3.984578  0  0  0.180208  0  4.005025  0  0.505386  0  0.12367  0.169432  0  3.970686  0
C  C72  1  0.89015880  0.59719771  0.21815379  1  0  0.176619  0  3.751753  0  0  0.173432  0  3.988047  0  0  0.179911  0  4.008544  0  0.484158  0  0.123145  0.169106  0  3.97415  0
C  C73  1  0.70637659  0.40365766  0.78168414  1  0  0.17789  0  3.74811  0  0  0.174583  0  3.984235  0  0  0.18101  0  4.004774  0  0.497679  0  0.123182  0.170303  0  3.97028  0
C  C74  1  0.70526589  0.02657556  0.29401085  1  0  0.175613  0  3.754752  0  0  0.173767  0  3.988802  0  0  0.179756  0  4.009424  0  0.479844  0  0.122103  0.169807  0  3.974751  0
C  C75  1  0.02551063  0.97248410  0.70616968  1  0  0.17715  0  3.752801  0  0  0.174886  0  3.987565  0  0  0.181051  0  4.008048  0  0.451181  0  0.122798  0.170789  0  3.973627  0
C  C76  1  0.74823417  0.52736613  0.20609184  1  0  0.176066  0  3.756159  0  0  0.173045  0  3.990938  0  0  0.179161  0  4.011459  0  0.478042  0  0.12187  0.168998  0  3.976963  0
C  C77  1  0.48212715  0.47364075  0.79398736  1  0  0.175409  0  3.755398  0  0  0.173018  0  3.989652  0  0  0.179142  0  4.010122  0  0.456665  0  0.122155  0.168957  0  3.975715  0
C  C78  1  0.65597760  0.96415556  0.24876099  1  0  -0.135403  0  3.706122  0  0  -0.152819  0  3.948725  0  0  -0.160219  0  3.971584  0  -0.020188  0  -0.076232  -0.148018  0  3.933406  0
C  C79  1  0.86775286  0.03624901  0.75140987  1  0  -0.136307  0  3.702517  0  0  -0.153305  0  3.945573  0  0  -0.160656  0  3.968343  0  0.030619  0  -0.076443  -0.148502  0  3.930239  0
C  C80  1  0.65390380  0.46377464  0.25132393  1  0  -0.13487  0  3.701788  0  0  -0.15204  0  3.944721  0  0  -0.159373  0  3.967506  0  -0.030999  0  -0.075812  -0.147286  0  3.929463  0
C  C81  1  0.37053263  0.53616323  0.74872403  1  0  -0.1352  0  3.702153  0  0  -0.152073  0  3.944637  0  0  -0.159409  0  3.967462  0  -0.034633  0  -0.075891  -0.147288  0  3.929265  0
C  C82  1  0.50944510  0.90039760  0.26418524  1  0  -0.007742  0  3.740561  0  0  -0.027245  0  3.993291  0  0  -0.024799  0  4.013147  0  -0.050962  0  -0.069876  -0.028477  0  3.9798  0
C  C83  1  0.67364183  0.10052044  0.73613594  1  0  -0.008055  0  3.738562  0  0  -0.027754  0  3.991559  0  0  -0.025285  0  4.011309  0  -0.095108  0  -0.069814  -0.02898  0  3.97801  0
C  C84  1  0.52354145  0.39982027  0.23607842  1  0  -0.008757  0  3.737976  0  0  -0.028432  0  3.99105  0  0  -0.025998  0  4.010732  0  -0.026737  0  -0.070022  -0.029682  0  3.977634  0
C  C85  1  0.16021201  0.59984077  0.76412069  1  0  -0.007749  0  3.739273  0  0  -0.027129  0  3.992124  0  0  -0.02474  0  4.011863  0  -0.086097  0  -0.070041  -0.02834  0  3.978561  0
C  C86  1  0.41120827  0.90254403  0.32383806  1  0  -0.111545  0  3.708106  0  0  -0.123668  0  3.957018  0  0  -0.130525  0  3.979433  0  -0.033656  0  -0.081181  -0.119279  0  3.941966  0
C  C87  1  0.63851931  0.09743500  0.67669785  1  0  -0.109758  0  3.707401  0  0  -0.1224  0  3.956518  0  0  -0.129246  0  3.978881  0  0.026507  0  -0.081325  -0.118002  0  3.941454  0
C  C88  1  0.48503378  0.40309744  0.17666504  1  0  -0.110805  0  3.710199  0  0  -0.123583  0  3.959132  0  0  -0.130363  0  3.981538  0  0.008232  0  -0.081123  -0.119216  0  3.944063  0
C  C89  1  0.06401868  0.59746426  0.82374132  1  0  -0.111443  0  3.710534  0  0  -0.124374  0  3.959584  0  0  -0.131256  0  3.982025  0  0.048852  0  -0.0816  -0.119946  0  3.944473  0
C  C90  1  0.46723401  0.96753187  0.36650608  1  0  0.149238  0  3.677229  0  0  0.116038  0  3.932362  0  0  0.122753  0  3.949985  0  0.528464  0  0.054521  0.111684  0  3.920432  0
C  C91  1  0.80278530  0.03109476  0.63404013  1  0  0.148981  0  3.677732  0  0  0.115807  0  3.934114  0  0  0.122618  0  3.951729  0  0.490986  0  0.054862  0.111404  0  3.922156  0
C  C92  1  0.58332366  0.46928242  0.13400481  1  0  0.150321  0  3.678904  0  0  0.117305  0  3.934299  0  0  0.124062  0  3.951862  0  0.481649  0  0.054958  0.112923  0  3.922429  0
C  C93  1  0.18490026  0.53248764  0.86642495  1  0  0.15109  0  3.677401  0  0  0.117653  0  3.933084  0  0  0.124364  0  3.950733  0  0.449372  0  0.05508  0.113307  0  3.921116  0
C  C94  1  0.32460830  0.31133483  0.46965878  1  0  0.385844  0  3.727928  0  0  0.359518  0  3.99041  0  0  0.373397  0  4.006534  0  1.012045  0  0.225944  0.350192  0  3.979493  0
C  C95  1  0.10531382  0.68798764  0.53057525  1  0  0.387745  0  3.731112  0  0  0.360451  0  3.99483  0  0  0.37437  0  4.010988  0  1.010741  0  0.22613  0.351093  0  3.983905  0
C  C96  1  0.54380832  0.81203187  0.03046254  1  0  0.38711  0  3.728992  0  0  0.359551  0  3.992923  0  0  0.373441  0  4.009094  0  0.988375  0  0.226063  0.350213  0  3.981967  0
C  C97  1  0.38556790  0.18869630  0.96951647  1  0  0.386006  0  3.728784  0  0  0.358587  0  3.992973  0  0  0.372467  0  4.009118  0  0.99414  0  0.225649  0.349266  0  3.982042  0
C  C98  1  0.33013123  0.25952394  0.53182153  1  0  -0.372561  0  3.688816  0  0  -0.408566  0  3.927001  0  0  -0.415928  0  3.930664  0  -0.050919  0  -0.158058  -0.403477  0  3.924489  0
C  C99  1  0.12226681  0.73988831  0.46840201  1  0  -0.371165  0  3.688505  0  0  -0.407414  0  3.926472  0  0  -0.414787  0  3.93012  0  -0.029526  0  -0.157953  -0.40228  0  3.923918  0
C  C100  1  0.61270401  0.76003673  0.96832064  1  0  -0.370327  0  3.687064  0  0  -0.406526  0  3.924945  0  0  -0.413898  0  3.928659  0  -0.0069  0  -0.157962  -0.401407  0  3.922356  0
C  C101  1  0.33951070  0.24040712  0.03169589  1  0  -0.370419  0  3.68738  0  0  -0.406358  0  3.925066  0  0  -0.413764  0  3.92885  0  -0.075416  0  -0.157583  -0.401237  0  3.922523  0
C  C102  1  0.39397790  0.11664254  0.53473641  1  0  0.728717  0  3.800081  0  0  0.679832  0  4.097111  0  0  0.713426  0  4.089751  0  1.615217  0  0.220489  0.656981  0  4.101411  0
C  C103  1  0.04555086  0.88275756  0.46552630  1  0  0.726155  0  3.804764  0  0  0.677158  0  4.102222  0  0  0.710742  0  4.094902  0  1.54514  0  0.219282  0.654336  0  4.106487  0
C  C104  1  0.67884721  0.61714411  0.96548502  1  0  0.725521  0  3.806507  0  0  0.677324  0  4.102526  0  0  0.71091  0  4.095213  0  1.545503  0  0.219725  0.654478  0  4.106787  0
C  C105  1  0.26057376  0.38328852  0.03466938  1  0  0.726104  0  3.802958  0  0  0.678316  0  4.098434  0  0  0.71191  0  4.091125  0  1.619822  0  0.220262  0.655456  0  4.102714  0
N  N106  1  0.89454416  0.14958351  0.33025193  1  0  -0.340737  0  3.267392  0  0  -0.269189  0  3.531682  0  0  -0.286851  0  3.547619  0  -1.239938  0  -0.316109  -0.25723  0  3.520774  0
N  N107  1  0.37487527  0.84871297  0.66956408  1  0  -0.341112  0  3.266194  0  0  -0.269077  0  3.529956  0  0  -0.286724  0  3.545885  0  -1.249575  0  -0.316493  -0.257142  0  3.519076  0
N  N108  1  0.97384695  0.65114287  0.16951550  1  0  -0.340663  0  3.267378  0  0  -0.268844  0  3.530578  0  0  -0.286504  0  3.546533  0  -1.224562  0  -0.315798  -0.256878  0  3.519645  0
N  N109  1  0.79418554  0.35060755  0.83029914  1  0  -0.341692  0  3.270762  0  0  -0.270012  0  3.53421  0  0  -0.287735  0  3.550302  0  -1.237622  0  -0.316656  -0.258035  0  3.523235  0
N  N110  1  0.61161916  0.02660081  0.35198166  1  0  -0.33722  0  3.260018  0  0  -0.266089  0  3.520061  0  0  -0.283458  0  3.536294  0  -1.254212  0  -0.312667  -0.254261  0  3.508905  0
N  N111  1  0.99103460  0.97155538  0.64840050  1  0  -0.338666  0  3.2645  0  0  -0.26717  0  3.525474  0  0  -0.284833  0  3.54182  0  -1.238825  0  -0.314362  -0.255149  0  3.514235  0
N  N112  1  0.71259668  0.52845665  0.14833456  1  0  -0.339084  0  3.26591  0  0  -0.266801  0  3.52599  0  0  -0.284427  0  3.542327  0  -1.230594  0  -0.313957  -0.254797  0  3.514753  0
N  N113  1  0.38838717  0.47349018  0.85193801  1  0  -0.338899  0  3.261378  0  0  -0.26784  0  3.52203  0  0  -0.28526  0  3.53821  0  -1.24667  0  -0.313401  -0.25599  0  3.510914  0
N  N114  1  0.47877696  0.27830781  0.42283251  1  0  -0.356604  0  3.187682  0  0  -0.296555  0  3.487851  0  0  -0.314772  0  3.499472  0  -0.781993  0  -0.241512  -0.284332  0  3.479916  0
N  N115  1  0.17947643  0.72053955  0.57710819  1  0  -0.356226  0  3.188331  0  0  -0.295804  0  3.489112  0  0  -0.314112  0  3.500758  0  -0.78356  0  -0.241226  -0.283528  0  3.481158  0
N  N116  1  0.65046598  0.77946687  0.07701312  1  0  -0.357938  0  3.188124  0  0  -0.297236  0  3.488915  0  0  -0.315541  0  3.500505  0  -0.786409  0  -0.242039  -0.284954  0  3.481001  0
N  N117  1  0.50677890  0.22172613  0.92270666  1  0  -0.356045  0  3.187699  0  0  -0.295966  0  3.488095  0  0  -0.314144  0  3.499738  0  -0.772174  0  -0.241847  -0.283774  0  3.480138  0
N  N118  1  0.40983726  0.34760441  0.37493284  1  0  -0.070902  0  2.984655  0  0  -0.064524  0  3.28834  0  0  -0.062517  0  3.29818  0  -0.134145  0  -0.089863  -0.065599  0  3.281558  0
N  N119  1  0.13124418  0.65088380  0.62506916  1  0  -0.072952  0  2.984927  0  0  -0.066915  0  3.288901  0  0  -0.064866  0  3.298713  0  -0.104625  0  -0.091367  -0.068032  0  3.282177  0
N  N120  1  0.53258183  0.84919463  0.12495914  1  0  -0.071465  0  2.98446  0  0  -0.065175  0  3.287701  0  0  -0.063115  0  3.297514  0  -0.118092  0  -0.090335  -0.066282  0  3.280933  0
N  N121  1  0.50715069  0.15244075  0.87480600  1  0  -0.071828  0  2.983467  0  0  -0.06538  0  3.287024  0  0  -0.063374  0  3.296859  0  -0.121553  0  -0.090195  -0.066466  0  3.280266  0
N  N122  1  0.22118410  0.42072345  0.39171871  1  0  -0.091106  0  2.940744  0  0  -0.088046  0  3.236645  0  0  -0.08648  0  3.247275  0  -0.114844  0  -0.101416  -0.088875  0  3.22937  0
N  N123  1  0.03224600  0.57805657  0.60860086  1  0  -0.089077  0  2.940899  0  0  -0.085746  0  3.236767  0  0  -0.084211  0  3.247411  0  -0.133065  0  -0.099441  -0.086565  0  3.229509  0
N  N124  1  0.36085575  0.92206956  0.10845916  1  0  -0.089904  0  2.94394  0  0  -0.086601  0  3.240108  0  0  -0.085075  0  3.250766  0  -0.117925  0  -0.100073  -0.087405  0  3.232816  0
N  N125  1  0.39158440  0.07932545  0.89157211  1  0  -0.09038  0  2.938281  0  0  -0.086959  0  3.233733  0  0  -0.085396  0  3.244377  0  -0.129745  0  -0.100426  -0.087799  0  3.226473  0
N  N126  1  0.16310384  0.39924695  0.45114882  1  0  -0.347239  0  3.224457  0  0  -0.276071  0  3.526112  0  0  -0.295223  0  3.538442  0  -0.783046  0  -0.249478  -0.263212  0  3.517689  0
N  N127  1  0.01258866  0.60007084  0.54933665  1  0  -0.348935  0  3.227131  0  0  -0.2771  0  3.528578  0  0  -0.296246  0  3.540852  0  -0.792051  0  -0.249549  -0.264265  0  3.520207  0
N  N128  1  0.36323770  0.90002630  0.04919636  1  0  -0.347985  0  3.225133  0  0  -0.276557  0  3.527062  0  0  -0.295715  0  3.539398  0  -0.785905  0  -0.248934  -0.263702  0  3.518655  0
N  N129  1  0.31197793  0.10080756  0.95099724  1  0  -0.347832  0  3.225147  0  0  -0.276792  0  3.527644  0  0  -0.295923  0  3.539979  0  -0.783412  0  -0.249935  -0.263955  0  3.519213  0
Cl  Cl130  1  0.68718380  0.61578423  0.43535838  1  0  -0.548924  0  0.946025  0  0  -0.481374  0  1.202939  0  0  -0.496525  0  1.179398  0  -0.655602  0  -0.283512  -0.470509  0  1.21918  0
Cl  Cl131  1  0.73590714  0.38329787  0.56529942  1  0  -0.550344  0  0.945227  0  0  -0.48224  0  1.202174  0  0  -0.497303  0  1.178539  0  -0.656043  0  -0.284358  -0.471396  0  1.218431  0
Cl  Cl132  1  0.86945924  0.11656023  0.06531240  1  0  -0.550073  0  0.94422  0  0  -0.481918  0  1.200773  0  0  -0.497045  0  1.177215  0  -0.657284  0  -0.284337  -0.471064  0  1.217032  0
Cl  Cl133  1  0.05302873  0.88412585  0.93533769  1  0  -0.549057  0  0.947071  0  0  -0.481258  0  1.204213  0  0  -0.496343  0  1.180607  0  -0.657061  0  -0.283334  -0.470438  0  1.220485  0
O  O134  1  0.91698661  0.17431847  0.46694287  1  0  -0.814513  0  1.942929  0  0  -0.751587  0  2.145128  0  0  -0.772693  0  2.111363  0  -1.262076  0  -0.579353  -0.736642  0  2.168533  0
O  O135  1  0.55947726  0.82519760  0.53264514  1  0  -0.812086  0  1.947156  0  0  -0.748706  0  2.150603  0  0  -0.769907  0  2.116752  0  -1.260374  0  -0.578673  -0.733723  0  2.174081  0
O  O136  1  0.13498698  0.67475083  0.03263662  1  0  -0.813535  0  1.945021  0  0  -0.750132  0  2.148569  0  0  -0.771358  0  2.114751  0  -1.248299  0  -0.578999  -0.735096  0  2.171974  0
O  O137  1  0.84110228  0.32547417  0.96700001  1  0  -0.814502  0  1.942342  0  0  -0.751653  0  2.144673  0  0  -0.772686  0  2.11092  0  -1.264022  0  -0.579666  -0.73678  0  2.168122  0
O  O138  1  0.54070918  0.05314551  0.49493077  1  0  -0.659029  0  2.053971  0  0  -0.582781  0  2.29561  0  0  -0.610865  0  2.283857  0  -1.196721  0  -0.309667  -0.563196  0  2.303194  0
O  O139  1  0.08867335  0.94629293  0.50497586  1  0  -0.658893  0  2.044522  0  0  -0.582916  0  2.284603  0  0  -0.610846  0  2.272838  0  -1.193326  0  -0.309113  -0.563514  0  2.292252  0
O  O140  1  0.78541648  0.55356478  0.00493803  1  0  -0.658761  0  2.046693  0  0  -0.583467  0  2.286748  0  0  -0.611389  0  2.274956  0  -1.194651  0  -0.30917  -0.563983  0  2.294384  0
O  O141  1  0.34377987  0.44679677  0.99485126  1  0  -0.658143  0  2.053241  0  0  -0.58266  0  2.29481  0  0  -0.610673  0  2.2829  0  -1.202166  0  -0.309786  -0.563154  0  2.302541  0
O  O142  1  0.29948118  0.06984467  0.57819534  1  0  -0.617259  0  1.990798  0  0  -0.560391  0  2.244589  0  0  -0.585777  0  2.234028  0  -1.179668  0  -0.317881  -0.542595  0  2.251204  0
O  O143  1  0.94796810  0.92929636  0.42235325  1  0  -0.617693  0  1.996285  0  0  -0.55987  0  2.250043  0  0  -0.585321  0  2.239466  0  -1.176688  0  -0.317761  -0.542054  0  2.25669  0
O  O144  1  0.62788756  0.57063056  0.92228105  1  0  -0.61777  0  1.995727  0  0  -0.560497  0  2.249751  0  0  -0.585889  0  2.239026  0  -1.176637  0  -0.318243  -0.54269  0  2.256475  0
O  O145  1  0.11955515  0.43013876  0.07817383  1  0  -0.616486  0  1.993736  0  0  -0.559847  0  2.247102  0  0  -0.585244  0  2.236593  0  -1.181531  0  -0.317631  -0.542047  0  2.253688  0
