# generated using pymatgen
data_Zr3H25C25O16
_symmetry_space_group_name_H-M   'P 1'
_cell_length_a   15.43952442
_cell_length_b   17.41117649
_cell_length_c   25.57108313
_cell_angle_alpha   88.71446905
_cell_angle_beta   89.82846748
_cell_angle_gamma   64.74401315
_symmetry_Int_Tables_number   1
_chemical_formula_structural   Zr3H25C25O16
_chemical_formula_sum   'Zr12 H100 C100 O64'
_cell_volume   6215.21235768
_cell_formula_units_Z   4
loop_
 _symmetry_equiv_pos_site_id
 _symmetry_equiv_pos_as_xyz
  1  'x, y, z'
loop_
 _atom_site_type_symbol
 _atom_site_label
 _atom_site_symmetry_multiplicity
 _atom_site_fract_x
 _atom_site_fract_y
 _atom_site_fract_z
 _atom_site_occupancy
 _atom_site_pbe_bader_charge
 _atom_site_pbe_bader_spin_density
 _atom_site_pbe_cm5_charge
 _atom_site_pbe_ddec_charge
 _atom_site_pbe_ddec_spin_density
 _atom_site_pbe_ddec_sum_bond_order
 _atom_site_pbe_magmom
Zr  Zr0  1  0.95262632  0.10189931  0.96633509  1  2.62141  0  1.581709  2.359124  0  2.733848  0
Zr  Zr1  1  0.08869250  0.81590947  0.04603974  1  2.608124  0  1.570933  2.328206  0  2.796241  0
Zr  Zr2  1  0.85635780  0.95518767  0.99987808  1  2.627528  0  1.564164  2.391743  0  2.784372  0
Zr  Zr3  1  0.18631154  0.96144827  0.01282536  1  2.631172  0  1.566991  2.382847  0  2.778436  0
Zr  Zr4  1  0.98041713  0.02421936  0.09677870  1  2.614708  0  1.542885  2.376829  0  2.779784  0
Zr  Zr5  1  0.06351449  0.89366404  0.91766006  1  2.6143  0  1.564487  2.370552  0  2.739167  0
Zr  Zr6  1  0.09964187  0.80057877  0.46525264  1  2.622032  0  1.583397  2.359584  0  2.734628  0
Zr  Zr7  1  0.96282943  0.07876878  0.54675118  1  2.609351  0  1.571309  2.331054  0  2.790927  0
Zr  Zr8  1  0.19888940  0.93810169  0.50866253  1  2.628791  0  1.563782  2.390551  0  2.780356  0
Zr  Zr9  1  0.86307988  0.94233357  0.50197433  1  2.63164  0  1.572962  2.390526  0  2.770622  0
Zr  Zr10  1  0.05724534  0.86732512  0.59631470  1  2.615927  0  1.543585  2.375258  0  2.783686  0
Zr  Zr11  1  0.00109380  0.01343343  0.41764769  1  2.612681  0  1.567345  2.373721  0  2.739446  0
H  H12  1  0.06072974  0.12570667  0.04837740  1  0.605558  0  0.330428  0.424964  0  0.85719  0
H  H13  1  0.92251922  0.89047005  0.11098052  1  0.600588  0  0.323985  0.420411  0  0.871662  0
H  H14  1  0.23685079  0.79547752  0.97351432  1  0.606664  0  0.336329  0.437303  0  0.834437  0
H  H15  1  0.87527383  0.01536517  0.89768859  1  0.577746  0  0.32172  0.407241  0  0.886879  0
H  H16  1  0.79050560  0.12011355  0.12479410  1  0.584988  0  0.320085  0.407243  0  0.884047  0
H  H17  1  0.75230501  0.94560448  0.91749104  1  0.591811  0  0.295411  0.381717  0  0.925527  0
H  H18  1  0.98341161  0.79502960  0.87419960  1  0.588049  0  0.319897  0.408202  0  0.884824  0
H  H19  1  0.10147316  0.02863609  0.16947235  1  0.634136  0  0.31519  0.416267  0  0.879239  0
H  H20  1  0.24904973  0.06006060  0.06451232  1  0.588936  0  0.291744  0.379605  0  0.92882  0
H  H21  1  0.30910410  0.95723678  0.93966631  1  0.603159  0  0.296901  0.386535  0  0.918118  0
H  H22  1  0.24775402  0.88738411  0.90862310  1  0.649971  0  0.278815  0.40616  0  0.935842  0
H  H23  1  0.94636122  0.98100584  0.19267884  1  0.587502  0  0.287913  0.396764  0  0.903981  0
H  H24  1  0.17778664  0.71947539  0.13137409  1  0.638576  0  0.325845  0.415735  0  0.88174  0
H  H25  1  0.89472976  0.14875736  0.86018788  1  0.611209  0  0.323159  0.4018  0  0.885089  0
H  H26  1  0.00272292  0.95120538  0.81900774  1  0.599905  0  0.292042  0.386501  0  0.919132  0
H  H27  1  0.15875953  0.03694688  0.11601861  1  0.660783  0  0.280876  0.400875  0  0.940059  0
H  H28  1  0.07782169  0.71367051  0.12508992  1  0.629867  0  0.322343  0.408052  0  0.895816  0
H  H29  1  0.73338409  0.95443942  0.07289834  1  0.594058  0  0.29733  0.388014  0  0.915716  0
H  H30  1  0.78579136  0.03784409  0.09831397  1  0.650564  0  0.277943  0.40323  0  0.939684  0
H  H31  1  0.18771003  0.90559196  0.85221717  1  0.623501  0  0.311507  0.405415  0  0.895714  0
H  H32  1  0.89060247  0.87564475  0.89786840  1  0.647319  0  0.276404  0.406695  0  0.936242  0
H  H33  1  0.99107009  0.05953771  0.85886262  1  0.66197  0  0.281163  0.406056  0  0.931549  0
H  H34  1  0.97934002  0.77387650  0.54062028  1  0.602239  0  0.329838  0.424305  0  0.857842  0
H  H35  1  0.12158979  0.99432721  0.61766031  1  0.606144  0  0.32874  0.428594  0  0.85621  0
H  H36  1  0.82406551  0.10955762  0.46703659  1  0.617813  0  0.331256  0.426106  0  0.855928  0
H  H37  1  0.18825884  0.88987260  0.40356563  1  0.582309  0  0.321511  0.406904  0  0.886687  0
H  H38  1  0.23969102  0.76566479  0.63543806  1  0.618797  0  0.318146  0.401888  0  0.892595  0
H  H39  1  0.31593117  0.95400563  0.43283614  1  0.583392  0  0.296237  0.384527  0  0.92009  0
H  H40  1  0.08969183  0.11300366  0.38380551  1  0.62598  0  0.319689  0.408554  0  0.884673  0
H  H41  1  0.92703234  0.86082885  0.66209523  1  0.631907  0  0.314808  0.417254  0  0.878139  0
H  H42  1  0.78269783  0.85146355  0.55034057  1  0.596794  0  0.29378  0.381321  0  0.926643  0
H  H43  1  0.70533033  0.03844394  0.44627692  1  0.577332  0  0.294441  0.381295  0  0.925856  0
H  H44  1  0.88214926  0.01121862  0.34532770  1  0.616718  0  0.312294  0.40792  0  0.89123  0
H  H45  1  0.08094413  0.90354526  0.69386756  1  0.579763  0  0.285462  0.393234  0  0.910449  0
H  H46  1  0.86735904  0.17140867  0.62963351  1  0.630397  0  0.324125  0.413083  0  0.888054  0
H  H47  1  0.16798149  0.76150229  0.36064791  1  0.618665  0  0.324158  0.403454  0  0.882444  0
H  H48  1  0.06919282  0.96422375  0.31940312  1  0.592508  0  0.29405  0.389461  0  0.913706  0
H  H49  1  0.87475252  0.86090505  0.60546155  1  0.641051  0  0.2808  0.403127  0  0.937243  0
H  H50  1  0.96839668  0.17683576  0.62665602  1  0.637237  0  0.325118  0.413883  0  0.885556  0
H  H51  1  0.35687901  0.83798957  0.55802996  1  0.58494  0  0.295187  0.386115  0  0.919662  0
H  H52  1  0.25315806  0.84598169  0.60860251  1  0.651705  0  0.276875  0.401046  0  0.944152  0
H  H53  1  0.81499755  0.02532245  0.39833464  1  0.649528  0  0.27822  0.407754  0  0.933414  0
H  H54  1  0.17863038  0.02731830  0.40764601  1  0.640542  0  0.276847  0.408247  0  0.93395  0
H  H55  1  0.07469912  0.85295874  0.35745998  1  0.655237  0  0.282196  0.406563  0  0.93066  0
H  H56  1  0.58815254  0.72592640  0.34988712  1  0.066968  0  0.106062  0.109475  0  0.991589  0
H  H57  1  0.60077723  0.50094328  0.42956026  1  0.06285  0  0.099644  0.102743  0  1.024578  0
H  H58  1  0.43385108  0.58131141  0.45930928  1  0.080516  0  0.104824  0.107746  0  0.995454  0
H  H59  1  0.42671296  0.80853715  0.38553996  1  0.051822  0  0.101877  0.101071  0  0.998618  0
H  H60  1  0.74709935  0.50623552  0.47266192  1  0.067486  0  0.103596  0.106091  0  0.99699  0
H  H61  1  0.80288198  0.41663863  0.31504109  1  0.076362  0  0.098541  0.102682  0  1.033026  0
H  H62  1  0.88547710  0.26864638  0.34938997  1  0.088769  0  0.107345  0.11142  0  0.994624  0
H  H63  1  0.82867132  0.35712486  0.50661260  1  0.112234  0  0.106524  0.111118  0  0.993985  0
H  H64  1  0.90398119  0.52950528  0.35957125  1  0.063859  0  0.102376  0.104125  0  0.99784  0
H  H65  1  0.65582933  0.69787539  0.44366749  1  0.082044  0  0.099898  0.106795  0  1.029017  0
H  H66  1  0.74417473  0.77851631  0.47189307  1  0.089153  0  0.107478  0.109565  0  1.004586  0
H  H67  1  0.99385453  0.60965978  0.39032197  1  0.101438  0  0.108905  0.114334  0  0.986282  0
H  H68  1  0.61544245  0.51308288  0.20995100  1  0.06988  0  0.102959  0.105755  0  0.996721  0
H  H69  1  0.78784191  0.65258134  0.20785348  1  0.072846  0  0.098207  0.101555  0  1.031216  0
H  H70  1  0.79179535  0.64881104  0.30321812  1  0.06985  0  0.099636  0.104607  0  1.030065  0
H  H71  1  0.61993061  0.50878729  0.30598034  1  0.066148  0  0.103051  0.105711  0  0.994976  0
H  H72  1  0.98297589  0.61652591  0.11419838  1  0.06368  0  0.100531  0.09918  0  1.005714  0
H  H73  1  0.73123631  0.78419870  0.02926285  1  0.106922  0  0.111474  0.11813  0  0.990194  0
H  H74  1  0.64214771  0.70689672  0.06545995  1  0.117408  0  0.10355  0.111966  0  1.018723  0
H  H75  1  0.89400946  0.53863280  0.15110310  1  0.055161  0  0.10348  0.10627  0  0.994543  0
H  H76  1  0.57918820  0.51767487  0.09122586  1  0.073277  0  0.098491  0.103068  0  1.025781  0
H  H77  1  0.58626960  0.73632973  0.16288576  1  0.061436  0  0.10411  0.106293  0  0.996643  0
H  H78  1  0.42011796  0.82473494  0.13152958  1  0.108917  0  0.112182  0.119494  0  0.980057  0
H  H79  1  0.40879044  0.60369971  0.06651062  1  0.066611  0  0.102587  0.10489  0  0.997375  0
H  H80  1  0.86611173  0.27547889  0.16466869  1  0.099071  0  0.108534  0.114956  0  0.991286  0
H  H81  1  0.79475064  0.37430967  0.00763072  1  0.092368  0  0.109161  0.115191  0  0.989654  0
H  H82  1  0.72276016  0.52158970  0.04085279  1  0.06961  0  0.104012  0.107084  0  0.996744  0
H  H83  1  0.79556182  0.42171808  0.19825762  1  0.066581  0  0.097577  0.102491  0  1.034747  0
H  H84  1  0.38611187  0.38564948  0.55012611  1  0.060626  0  0.098316  0.102746  0  1.035582  0
H  H85  1  0.20412885  0.45386108  0.68543702  1  0.078039  0  0.102109  0.105982  0  1.008278  0
H  H86  1  0.12946994  0.60387457  0.65345969  1  0.095006  0  0.108883  0.115716  0  0.987475  0
H  H87  1  0.30352360  0.53386943  0.51587684  1  0.069339  0  0.106032  0.109072  0  0.996862  0
H  H88  1  0.40568407  0.14494176  0.64150336  1  0.083496  0  0.105954  0.110032  0  0.991636  0
H  H89  1  0.16109573  0.37817604  0.60117730  1  0.088993  0  0.098904  0.104279  0  1.023985  0
H  H90  1  0.07475957  0.29531912  0.57084001  1  0.060963  0  0.103553  0.106339  0  0.994969  0
H  H91  1  0.32192600  0.06273904  0.60655861  1  0.141399  0  0.111524  0.120203  0  0.985944  0
H  H92  1  0.40369606  0.24451635  0.54695713  1  0.061883  0  0.1061  0.109021  0  0.996583  0
H  H93  1  0.52527910  0.27654747  0.69165672  1  0.075315  0  0.097576  0.10128  0  1.044043  0
H  H94  1  0.68684715  0.20119204  0.65570182  1  0.059632  0  0.101378  0.098505  0  1.000151  0
H  H95  1  0.56631589  0.16178901  0.51320048  1  0.064006  0  0.105707  0.106282  0  0.996043  0
H  H96  1  0.26850132  0.24849249  0.80978738  1  0.055951  0  0.099636  0.103367  0  1.026509  0
H  H97  1  0.41036968  0.41412839  0.80045619  1  0.044545  0  0.103572  0.106627  0  0.99324  0
H  H98  1  0.41158223  0.40658447  0.70485220  1  0.0654  0  0.104146  0.105406  0  0.991849  0
H  H99  1  0.27741639  0.23498522  0.71508164  1  0.037518  0  0.098998  0.104588  0  1.027763  0
H  H100  1  0.24352002  0.49485459  0.81407371  1  0.051955  0  0.099123  0.103364  0  1.03252  0
H  H101  1  0.31236860  0.39653538  0.97202244  1  0.054721  0  0.103638  0.105929  0  0.998761  0
H  H102  1  0.23432987  0.54384567  0.00488026  1  0.101416  0  0.106323  0.110939  0  0.995046  0
H  H103  1  0.16838075  0.64101500  0.84719826  1  0.103102  0  0.107265  0.110305  0  0.995416  0
H  H104  1  0.39649293  0.21056403  0.94814980  1  0.096677  0  0.102082  0.110906  0  1.019726  0
H  H105  1  0.14677454  0.37676733  0.86007503  1  0.08533  0  0.103323  0.105491  0  0.99474  0
H  H106  1  0.05845208  0.29571601  0.89439772  1  0.078973  0  0.109367  0.114833  0  0.986815  0
H  H107  1  0.30898793  0.13010872  0.98095732  1  0.089414  0  0.105709  0.107889  0  1.003476  0
H  H108  1  0.45686231  0.18198789  0.85094972  1  0.07095  0  0.103763  0.108556  0  0.998798  0
H  H109  1  0.45770915  0.40157274  0.92463683  1  0.057517  0  0.098831  0.10208  0  1.025664  0
H  H110  1  0.62766359  0.31724632  0.95061561  1  0.08284  0  0.106222  0.110088  0  0.988696  0
H  H111  1  0.62171253  0.09581599  0.88276681  1  0.103675  0  0.102694  0.101328  0  0.99981  0
C  C112  1  0.33592591  0.34216537  0.87260757  1  0.041113  0  0.013632  -0.007071  0  3.786492  0
C  C113  1  0.34764921  0.31586698  0.64205891  1  0.070452  0  0.014386  -0.003073  0  3.77492  0
C  C114  1  0.70359928  0.57515206  0.14099840  1  0.03839  0  0.014294  -0.006503  0  3.785983  0
C  C115  1  0.71438587  0.56564106  0.37246461  1  0.05237  0  0.014178  -0.004423  0  3.785064  0
C  C116  1  0.87466941  0.22691208  0.06495414  1  1.532401  0  0.231746  0.630606  0  4.12658  0
C  C117  1  0.13412099  0.14879479  0.95578986  1  1.549794  0  0.228495  0.631669  0  4.133079  0
C  C118  1  0.73124034  0.14424836  0.94221800  1  1.566221  0  0.228005  0.631146  0  4.134482  0
C  C119  1  0.90745547  0.76404856  0.05282060  1  1.565894  0  0.228074  0.631737  0  4.135758  0
C  C120  1  0.15309005  0.69029483  0.94746311  1  1.489518  0  0.232882  0.63671  0  4.119145  0
C  C121  1  0.30906695  0.77577480  0.07382265  1  1.571698  0  0.232808  0.634485  0  4.130511  0
C  C122  1  0.16692456  0.66822022  0.56418096  1  1.548504  0  0.232143  0.633306  0  4.129598  0
C  C123  1  0.91895874  0.75750390  0.44747568  1  1.549705  0  0.230091  0.630025  0  4.129881  0
C  C124  1  0.32552203  0.75408333  0.44999601  1  1.568268  0  0.227906  0.634794  0  4.139622  0
C  C125  1  0.14766740  0.12181103  0.56394709  1  1.595721  0  0.23015  0.634149  0  4.137386  0
C  C126  1  0.90869554  0.21388691  0.44970494  1  1.542536  0  0.2316  0.635201  0  4.116434  0
C  C127  1  0.73454306  0.12336793  0.56096464  1  1.558728  0  0.232865  0.641524  0  4.119977  0
C  C128  1  0.55548055  0.69434176  0.37504623  1  0.01508  0  -0.087913  -0.122883  0  3.994559  0
C  C129  1  0.60863052  0.60835873  0.38956489  1  -0.062334  0  -0.002039  0.066853  0  3.916209  0
C  C130  1  0.56279927  0.56812967  0.41901214  1  -0.031998  0  -0.095438  -0.139487  0  3.997029  0
C  C131  1  0.46865630  0.61343603  0.43622445  1  -0.059832  0  -0.087881  -0.097704  0  3.98848  0
C  C132  1  0.42045808  0.70073031  0.42614495  1  -0.003609  0  -0.021787  -0.035886  0  3.995145  0
C  C133  1  0.46432080  0.74061765  0.39448657  1  -0.074214  0  -0.091117  -0.106012  0  4.008386  0
C  C134  1  0.77595540  0.45406609  0.44541311  1  0.059709  0  -0.089869  -0.135079  0  3.991183  0
C  C135  1  0.76586507  0.47222978  0.39125773  1  -0.078741  0  0.003104  0.080944  0  3.903521  0
C  C136  1  0.80736878  0.40454803  0.35709566  1  -0.05703  0  -0.096351  -0.14511  0  3.999108  0
C  C137  1  0.85448405  0.32120808  0.37615458  1  -0.023254  0  -0.083454  -0.079909  0  3.984328  0
C  C138  1  0.86162995  0.30354915  0.42998123  1  -0.045426  0  -0.024821  -0.056248  0  3.995436  0
C  C139  1  0.82227042  0.37104271  0.46466098  1  -0.12445  0  -0.082541  -0.082417  0  3.97743  0
C  C140  1  0.86850416  0.58445304  0.38420280  1  -0.073781  0  -0.090543  -0.135414  0  3.987563  0
C  C141  1  0.77122731  0.61080502  0.39664157  1  -0.067666  0  -0.000154  0.074555  0  3.908774  0
C  C142  1  0.72925889  0.67817048  0.43086513  1  -0.048157  0  -0.098168  -0.148195  0  4.016775  0
C  C143  1  0.77917884  0.72329774  0.44756047  1  -0.019016  0  -0.085109  -0.083297  0  3.995032  0
C  C144  1  0.87359965  0.70086811  0.43191207  1  -0.027677  0  -0.020437  -0.043121  0  3.981365  0
C  C145  1  0.91936637  0.62887726  0.40141312  1  -0.010894  0  -0.082124  -0.088198  0  3.971079  0
C  C146  1  0.65655423  0.54112849  0.23029932  1  -0.010885  0  -0.091602  -0.127421  0  4.001472  0
C  C147  1  0.70671704  0.57838432  0.20107660  1  -0.020886  0  -0.007566  0.062493  0  3.937971  0
C  C148  1  0.75250965  0.61878301  0.22864623  1  -0.091015  0  -0.098544  -0.136857  0  4.010961  0
C  C149  1  0.75478944  0.61660842  0.28344177  1  -0.019842  0  -0.097718  -0.134891  0  4.004762  0
C  C150  1  0.71147493  0.57385929  0.31231765  1  -0.048231  0  -0.00882  0.05891  0  3.938509  0
C  C151  1  0.65900087  0.53876446  0.28452933  1  -0.104007  0  -0.092543  -0.128125  0  4.00392  0
C  C152  1  0.90765106  0.63698263  0.10416047  1  -0.020453  0  -0.088426  -0.094403  0  3.99894  0
C  C153  1  0.86136336  0.70825038  0.07103444  1  -0.009217  0  -0.024822  -0.051779  0  3.99192  0
C  C154  1  0.76616227  0.73073859  0.05650443  1  -0.04486  0  -0.082551  -0.080841  0  3.976323  0
C  C155  1  0.71635394  0.68693218  0.07728176  1  -0.073556  0  -0.092879  -0.141638  0  3.996164  0
C  C156  1  0.75937678  0.62025886  0.11392203  1  -0.090709  0  0.00257  0.078024  0  3.898691  0
C  C157  1  0.85735109  0.59344904  0.12497783  1  -0.041977  0  -0.090877  -0.133708  0  3.988316  0
C  C158  1  0.54445253  0.58442724  0.10131560  1  -0.036193  0  -0.098441  -0.147174  0  4.009181  0
C  C159  1  0.59619163  0.62161090  0.12695094  1  -0.035905  0  -0.00211  0.069114  0  3.925196  0
C  C160  1  0.54807632  0.70740113  0.14076480  1  0.032851  0  -0.089722  -0.130392  0  3.99952  0
C  C161  1  0.45484631  0.75677297  0.12427834  1  -0.096233  0  -0.081029  -0.088485  0  3.976198  0
C  C162  1  0.40472301  0.71968833  0.09658706  1  -0.092493  0  -0.02073  -0.038535  0  3.995442  0
C  C163  1  0.44852820  0.63272943  0.08716548  1  -0.012289  0  -0.089558  -0.098845  0  3.996264  0
C  C164  1  0.83318105  0.32989770  0.13784272  1  -0.014469  0  -0.084169  -0.084024  0  3.985311  0
C  C165  1  0.83230955  0.31561326  0.08429576  1  -0.071607  0  -0.023778  -0.05254  0  3.991644  0
C  C166  1  0.79295707  0.38560778  0.04945751  1  -0.032347  0  -0.082054  -0.083904  0  3.973038  0
C  C167  1  0.75268932  0.46771714  0.06833536  1  -0.052626  0  -0.090321  -0.135308  0  3.990771  0
C  C168  1  0.75000022  0.48268352  0.12230557  1  -0.008872  0  0.000863  0.077718  0  3.902603  0
C  C169  1  0.79320636  0.41241183  0.15645230  1  -0.042499  0  -0.09683  -0.146202  0  4.003797  0
C  C170  1  0.32867773  0.43239951  0.57271776  1  -0.033201  0  -0.09625  -0.142914  0  3.992666  0
C  C171  1  0.30163256  0.40846832  0.62049713  1  -0.014336  0  0.001361  0.076374  0  3.901377  0
C  C172  1  0.22766738  0.47108347  0.64863032  1  -0.063085  0  -0.093972  -0.140012  0  4.006856  0
C  C173  1  0.18507797  0.55512366  0.63083747  1  -0.033968  0  -0.084499  -0.091235  0  3.987586  0
C  C174  1  0.21271729  0.57807914  0.58297666  1  0.013897  0  -0.022368  -0.046178  0  3.99918  0
C  C175  1  0.28348267  0.51584052  0.55354353  1  -0.071915  0  -0.083541  -0.084038  0  3.98194  0
C  C176  1  0.33325496  0.17838449  0.62573708  1  -0.151188  0  -0.089422  -0.13295  0  4.001943  0
C  C177  1  0.29000850  0.26773327  0.62319972  1  0.048169  0  -0.002489  0.068658  0  3.918056  0
C  C178  1  0.19634686  0.30904996  0.60370421  1  -0.073467  0  -0.095823  -0.141154  0  3.992321  0
C  C179  1  0.14751018  0.26268288  0.58635190  1  -0.00474  0  -0.087857  -0.09458  0  3.994832  0
C  C180  1  0.19327143  0.17400365  0.58646695  1  -0.105985  0  -0.022307  -0.045221  0  3.997255  0
C  C181  1  0.28666585  0.13196446  0.60665380  1  -0.017555  0  -0.081727  -0.088887  0  3.972958  0
C  C182  1  0.46538751  0.23631228  0.57095099  1  0.001339  0  -0.09019  -0.134931  0  4.009247  0
C  C183  1  0.45122371  0.26881828  0.62174666  1  -0.026272  0  0.00027  0.072933  0  3.899565  0
C  C184  1  0.53263098  0.25509408  0.65158454  1  -0.042982  0  -0.096192  -0.140295  0  3.993397  0
C  C185  1  0.62462348  0.21168700  0.63145703  1  -0.042902  0  -0.087532  -0.09342  0  4.000862  0
C  C186  1  0.63758739  0.17750776  0.58164971  1  -0.041505  0  -0.018677  -0.032277  0  3.983849  0
C  C187  1  0.55667375  0.18998777  0.55162537  1  -0.039454  0  -0.084483  -0.090033  0  3.989124  0
C  C188  1  0.30086509  0.28327671  0.78743502  1  -0.028864  0  -0.097614  -0.13578  0  4.010709  0
C  C189  1  0.33561685  0.33464517  0.81276694  1  0.042639  0  -0.007504  0.062168  0  3.939692  0
C  C190  1  0.37908460  0.37599309  0.78184043  1  -0.104726  0  -0.093315  -0.131588  0  4.002844  0
C  C191  1  0.38212281  0.36984355  0.72778295  1  -0.04539  0  -0.091945  -0.128802  0  4.012829  0
C  C192  1  0.34598903  0.31880489  0.70214114  1  -0.045375  0  -0.008398  0.060237  0  3.936458  0
C  C193  1  0.30640529  0.27518332  0.73308209  1  -0.054286  0  -0.096357  -0.131553  0  4.001634  0
C  C194  1  0.24361304  0.50450489  0.85596017  1  -0.016584  0  -0.096163  -0.145967  0  4.000658  0
C  C195  1  0.28727492  0.43478202  0.89041166  1  -0.037109  0  0.002587  0.080543  0  3.906877  0
C  C196  1  0.28199789  0.45016700  0.94439716  1  -0.03085  0  -0.0904  -0.134978  0  3.991769  0
C  C197  1  0.23805296  0.53222692  0.96305824  1  -0.039333  0  -0.082677  -0.082442  0  3.976675  0
C  C198  1  0.19756277  0.60181633  0.92802183  1  0.013606  0  -0.023201  -0.053892  0  3.99304  0
C  C199  1  0.20016503  0.58702772  0.87440640  1  -0.08325  0  -0.083355  -0.080135  0  3.985486  0
C  C200  1  0.32282207  0.22984594  0.93550953  1  -0.055323  0  -0.09665  -0.146865  0  4.010796  0
C  C201  1  0.27997355  0.29680147  0.89917921  1  -0.042707  0  0.001442  0.075414  0  3.909944  0
C  C202  1  0.18274547  0.32233483  0.88659561  1  -0.098782  0  -0.090071  -0.133236  0  3.982956  0
C  C203  1  0.13276746  0.27740784  0.90578307  1  -0.012174  0  -0.081086  -0.085186  0  3.969656  0
C  C204  1  0.17923735  0.20581567  0.93859401  1  -0.018376  0  -0.02331  -0.049716  0  3.988708  0
C  C205  1  0.27354612  0.18445538  0.95445152  1  -0.048858  0  -0.087883  -0.087579  0  3.999323  0
C  C206  1  0.49319490  0.21163837  0.87389858  1  -0.017813  0  -0.090496  -0.129786  0  3.999366  0
C  C207  1  0.44321087  0.29718585  0.88780841  1  -0.068163  0  -0.001329  0.070839  0  3.912685  0
C  C208  1  0.49345185  0.33488234  0.91445181  1  0.005694  0  -0.096412  -0.144038  0  3.999049  0
C  C209  1  0.58931049  0.28746539  0.92941974  1  -0.004284  0  -0.085515  -0.09143  0  3.97734  0
C  C210  1  0.63495359  0.20061557  0.91979138  1  -0.093688  0  -0.020856  -0.036949  0  3.989175  0
C  C211  1  0.58624199  0.16339604  0.89099781  1  -0.077712  0  -0.088998  -0.098477  0  4.007442  0
O  O212  1  0.95859146  0.11941962  0.87528044  1  -1.267441  0  -0.600233  -0.806555  0  2.024132  0
O  O213  1  0.88565872  0.21703058  0.01573091  1  -1.170006  0  -0.353174  -0.61353  0  2.294592  0
O  O214  1  0.79799185  0.16961509  0.94024377  1  -1.194557  0  -0.364598  -0.645402  0  2.254912  0
O  O215  1  0.19238893  0.07751114  0.97583304  1  -1.211388  0  -0.36194  -0.658084  0  2.384237  0
O  O216  1  0.73854714  0.07369848  0.96115098  1  -1.184526  0  -0.342382  -0.612917  0  2.314558  0
O  O217  1  0.04428422  0.17291672  0.94972963  1  -1.167292  0  -0.351232  -0.608804  0  2.250623  0
O  O218  1  0.89783839  0.16673801  0.09939739  1  -1.192641  0  -0.35664  -0.641644  0  2.300529  0
O  O219  1  0.90559616  0.04392177  0.02318349  1  -1.223697  0  -0.781219  -1.174951  0  2.056093  0
O  O220  1  0.04946030  0.07807660  0.03677593  1  -1.242947  0  -0.694296  -1.062713  0  2.311407  0
O  O221  1  0.91749719  0.00035149  0.92789553  1  -1.228114  0  -0.695287  -1.063567  0  2.319943  0
O  O222  1  0.07634183  0.99390335  0.95367489  1  -1.216787  0  -0.778747  -1.142169  0  2.017833  0
O  O223  1  0.28906233  0.91423877  0.95220961  1  -1.246581  0  -0.655522  -0.924048  0  1.891905  0
O  O224  1  0.82218513  0.05831949  0.12493874  1  -1.235194  0  -0.608232  -0.82981  0  2.031787  0
O  O225  1  0.10222680  0.92401670  0.06505907  1  -1.223249  0  -0.775108  -1.153675  0  2.004653  0
O  O226  1  0.95199503  0.90891586  0.08283985  1  -1.256782  0  -0.673327  -1.048802  0  2.183559  0
O  O227  1  0.99850040  0.86842265  0.98484636  1  -1.21939  0  -0.790702  -1.163779  0  2.092839  0
O  O228  1  0.17563913  0.84133782  0.98217752  1  -1.239975  0  -0.687145  -1.03992  0  2.247318  0
O  O229  1  0.74975660  0.99789797  0.05737701  1  -1.240379  0  -0.661723  -0.928901  0  1.886013  0
O  O230  1  0.85235951  0.83389244  0.03080236  1  -1.195909  0  -0.347573  -0.622601  0  2.35799  0
O  O231  1  0.99695782  0.74058446  0.06204060  1  -1.197319  0  -0.355297  -0.646149  0  2.292293  0
O  O232  1  0.04104296  0.96440040  0.84429114  1  -1.268542  0  -0.651056  -0.951004  0  1.868017  0
O  O233  1  0.14892354  0.69980708  0.99685581  1  -1.151773  0  -0.35533  -0.617595  0  2.304015  0
O  O234  1  0.81218037  0.90700616  0.93391391  1  -1.238394  0  -0.652495  -0.918448  0  1.908496  0
O  O235  1  0.95430335  0.85685683  0.87480212  1  -1.243465  0  -0.613642  -0.842255  0  2.009037  0
O  O236  1  0.20897269  0.86669474  0.88258566  1  -1.269232  0  -0.620861  -0.827732  0  2.006844  0
O  O237  1  0.12318185  0.75091489  0.91310552  1  -1.198216  0  -0.359016  -0.646796  0  2.295769  0
O  O238  1  0.10789731  0.75223670  0.13122892  1  -1.227349  0  -0.583719  -0.773176  0  2.008365  0
O  O239  1  0.23777607  0.01075229  0.07391835  1  -1.23548  0  -0.661118  -0.928312  0  1.880663  0
O  O240  1  0.24385368  0.74789413  0.07369788  1  -1.206696  0  -0.368354  -0.666524  0  2.292698  0
O  O241  1  0.30037606  0.84639622  0.05527531  1  -1.168791  0  -0.331704  -0.579028  0  2.311285  0
O  O242  1  0.09467631  0.05883757  0.13597960  1  -1.289491  0  -0.614582  -0.818435  0  2.036304  0
O  O243  1  0.99728839  0.98779839  0.17378845  1  -1.236474  0  -0.702326  -0.983589  0  1.782929  0
O  O244  1  0.10324670  0.79175290  0.37377600  1  -1.263055  0  -0.600111  -0.80643  0  2.02193  0
O  O245  1  0.16248552  0.68223264  0.51492935  1  -1.19072  0  -0.353926  -0.612565  0  2.294635  0
O  O246  1  0.25696390  0.73231927  0.44385846  1  -1.189217  0  -0.35707  -0.634402  0  2.259682  0
O  O247  1  0.86063848  0.82863665  0.46517297  1  -1.185524  0  -0.358523  -0.629547  0  2.378584  0
O  O248  1  0.32104197  0.81905275  0.47389780  1  -1.193699  0  -0.346859  -0.642737  0  2.311135  0
O  O249  1  0.00931142  0.73269209  0.44281454  1  -1.189242  0  -0.355857  -0.61582  0  2.243026  0
O  O250  1  0.13527137  0.72469824  0.59929708  1  -1.2011  0  -0.356957  -0.639586  0  2.298274  0
O  O251  1  0.14060864  0.85199233  0.52612925  1  -1.22546  0  -0.785023  -1.189774  0  2.090527  0
O  O252  1  0.99481222  0.82080148  0.53118601  1  -1.240869  0  -0.693916  -1.065522  0  2.312069  0
O  O253  1  0.14420375  0.90260474  0.43261249  1  -1.232873  0  -0.693864  -1.059053  0  2.313213  0
O  O254  1  0.97929931  0.91171866  0.44850266  1  -1.215357  0  -0.777  -1.127138  0  1.982329  0
O  O255  1  0.76741990  0.99419543  0.43717109  1  -1.22426  0  -0.65421  -0.919803  0  1.895408  0
O  O256  1  0.21080761  0.82744867  0.63330062  1  -1.274087  0  -0.60794  -0.827532  0  2.042511  0
O  O257  1  0.94131151  0.97190612  0.56113646  1  -1.225988  0  -0.774245  -1.150412  0  1.988917  0
O  O258  1  0.09426760  0.97964685  0.58747162  1  -1.257671  0  -0.66884  -1.030612  0  2.138326  0
O  O259  1  0.05945924  0.02932084  0.48916434  1  -1.217821  0  -0.790469  -1.161785  0  2.092898  0
O  O260  1  0.88385930  0.06254847  0.47745200  1  -1.255148  0  -0.69831  -1.066267  0  2.32836  0
O  O261  1  0.29812900  0.88342032  0.57042003  1  -1.227857  0  -0.65915  -0.924556  0  1.882034  0
O  O262  1  0.20412992  0.05248450  0.54419428  1  -1.180559  0  -0.34567  -0.600048  0  2.337296  0
O  O263  1  0.05627057  0.14917621  0.56687269  1  -1.225777  0  -0.358134  -0.652966  0  2.298068  0
O  O264  1  0.02990087  0.94967291  0.34382675  1  -1.25722  0  -0.650768  -0.953936  0  1.873022  0
O  O265  1  0.90766723  0.20030196  0.49891601  1  -1.172988  0  -0.355395  -0.616544  0  2.292389  0
O  O266  1  0.25296741  0.98886630  0.44656221  1  -1.235051  0  -0.653163  -0.924381  0  1.913392  0
O  O267  1  0.11695863  0.05125912  0.38247091  1  -1.271232  0  -0.613403  -0.842025  0  2.004245  0
O  O268  1  0.85847738  0.04718527  0.37579542  1  -1.265723  0  -0.621495  -0.833903  0  2.001553  0
O  O269  1  0.94550321  0.15622481  0.41550394  1  -1.193667  0  -0.359219  -0.645679  0  2.299964  0
O  O270  1  0.93715542  0.13846944  0.63111876  1  -1.225956  0  -0.583963  -0.777132  0  2.014533  0
O  O271  1  0.80076630  0.89593411  0.56079787  1  -1.242431  0  -0.661488  -0.929447  0  1.875654  0
O  O272  1  0.80433530  0.14205665  0.57216537  1  -1.198573  0  -0.360543  -0.658092  0  2.276661  0
O  O273  1  0.74021252  0.06234428  0.53300284  1  -1.182959  0  -0.338992  -0.610558  0  2.32781  0
O  O274  1  0.93631544  0.83364399  0.62819440  1  -1.265196  0  -0.614948  -0.817784  0  2.026649  0
O  O275  1  0.03067940  0.89960682  0.67300846  1  -1.230949  0  -0.703418  -0.986926  0  1.780787  0
