# generated using pymatgen
data_GdPH11C9SNO9
_symmetry_space_group_name_H-M   'P 1'
_cell_length_a   6.75272327
_cell_length_b   13.34190424
_cell_length_c   15.04109650
_cell_angle_alpha   90.51980182
_cell_angle_beta   90.00004074
_cell_angle_gamma   89.99998644
_symmetry_Int_Tables_number   1
_chemical_formula_structural   GdPH11C9SNO9
_chemical_formula_sum   'Gd4 P4 H44 C36 S4 N4 O36'
_cell_volume   1355.05959734
_cell_formula_units_Z   4
loop_
 _symmetry_equiv_pos_site_id
 _symmetry_equiv_pos_as_xyz
  1  'x, y, z'
loop_
 _atom_site_type_symbol
 _atom_site_label
 _atom_site_symmetry_multiplicity
 _atom_site_fract_x
 _atom_site_fract_y
 _atom_site_fract_z
 _atom_site_occupancy
 _atom_site_hle17_bader_spin_density
 _atom_site_hle17_ddec_charge
 _atom_site_hle17_ddec_spin_density
 _atom_site_hle17_ddec_sum_bond_order
 _atom_site_hle17_magmom
 _atom_site_hse06_10hf_bader_spin_density
 _atom_site_hse06_10hf_ddec_charge
 _atom_site_hse06_10hf_ddec_spin_density
 _atom_site_hse06_10hf_ddec_sum_bond_order
 _atom_site_hse06_10hf_magmom
 _atom_site_hse06_bader_spin_density
 _atom_site_hse06_ddec_charge
 _atom_site_hse06_ddec_spin_density
 _atom_site_hse06_ddec_sum_bond_order
 _atom_site_hse06_magmom
 _atom_site_pbe_bader_spin_density
 _atom_site_pbe_cm5_charge
 _atom_site_pbe_ddec_charge
 _atom_site_pbe_ddec_spin_density
 _atom_site_pbe_ddec_sum_bond_order
 _atom_site_pbe_magmom
Gd  Gd0  1  0.87264534  0.54800159  0.61925147  1  0  2.292053  0  1.746522  0  0  2.220848  0  2.075151  0  0  2.262633  0  2.032273  0  0  1.508627  2.184545  0  2.115472  0
Gd  Gd1  1  0.37264581  0.45199871  0.88074873  1  0  2.292019  0  1.746562  0  0  2.22084  0  2.075139  0  0  2.262607  0  2.032291  0  0  1.508637  2.184538  0  2.115463  0
Gd  Gd2  1  0.12735178  0.45199937  0.38075007  1  0  2.291985  0  1.746604  0  0  2.220747  0  2.075266  0  0  2.262522  0  2.032408  0  0  1.508612  2.184477  0  2.115537  0
Gd  Gd3  1  0.62735427  0.54800076  0.11925080  1  0  2.292004  0  1.746577  0  0  2.220796  0  2.075208  0  0  2.262552  0  2.032377  0  0  1.508627  2.184498  0  2.115539  0
P  P4  1  0.86634140  0.37554751  0.80329104  1  0  1.527357  0  4.946847  0  0  1.364301  0  5.458272  0  0  1.416739  0  5.413651  0  0  0.376217  1.327765  0  5.486955  0
P  P5  1  0.36634150  0.62445204  0.69670850  1  0  1.527355  0  4.946825  0  0  1.36428  0  5.458313  0  0  1.416709  0  5.413711  0  0  0.376268  1.32775  0  5.486997  0
P  P6  1  0.13365868  0.62445270  0.19670983  1  0  1.527349  0  4.94678  0  0  1.364266  0  5.458294  0  0  1.416692  0  5.413695  0  0  0.376244  1.327734  0  5.486979  0
P  P7  1  0.63365562  0.37554818  0.30329105  1  0  1.527288  0  4.946936  0  0  1.364214  0  5.458405  0  0  1.416648  0  5.413795  0  0  0.376234  1.327681  0  5.48709  0
H  H8  1  0.84895449  0.22196350  0.94264918  1  0  0.135905  0  0.935689  0  0  0.145001  0  0.990373  0  0  0.149115  0  0.988626  0  0  0.12294  0.14195  0  0.991973  0
H  H9  1  0.34895874  0.77803606  0.55735035  1  0  0.135885  0  0.935678  0  0  0.145008  0  0.990322  0  0  0.149121  0  0.98857  0  0  0.12293  0.141952  0  0.991928  0
H  H10  1  0.15104263  0.77803672  0.05735036  1  0  0.135878  0  0.93571  0  0  0.144981  0  0.990387  0  0  0.149093  0  0.98864  0  0  0.122923  0.14193  0  0.991983  0
H  H11  1  0.65104727  0.22196266  0.44265118  1  0  0.135851  0  0.935732  0  0  0.144943  0  0.990414  0  0  0.149055  0  0.988665  0  0  0.122912  0.14189  0  0.992009  0
H  H12  1  0.85240054  0.03462168  0.93560904  1  0  0.096669  0  0.926552  0  0  0.111932  0  0.981046  0  0  0.114314  0  0.979281  0  0  0.113967  0.110212  0  0.982302  0
H  H13  1  0.35240175  0.96537788  0.56438982  1  0  0.09667  0  0.926494  0  0  0.111923  0  0.980999  0  0  0.114305  0  0.979235  0  0  0.113969  0.110204  0  0.98225  0
H  H14  1  0.14759954  0.96537779  0.06439049  1  0  0.096669  0  0.926502  0  0  0.111921  0  0.981008  0  0  0.114302  0  0.979243  0  0  0.113968  0.110201  0  0.982254  0
H  H15  1  0.64760129  0.03462234  0.43560773  1  0  0.096692  0  0.926527  0  0  0.111942  0  0.981029  0  0  0.114324  0  0.979264  0  0  0.113966  0.110222  0  0.982276  0
H  H16  1  0.85184198  0.87568746  0.84237038  1  0  0.117045  0  0.953031  0  0  0.1255  0  1.014864  0  0  0.129019  0  1.012311  0  0  0.105773  0.122956  0  1.016664  0
H  H17  1  0.35184373  0.12431135  0.65762915  1  0  0.117054  0  0.953031  0  0  0.125514  0  1.014853  0  0  0.129034  0  1.012298  0  0  0.105772  0.122968  0  1.016652  0
H  H18  1  0.14815810  0.12431201  0.15762849  1  0  0.117054  0  0.953049  0  0  0.125512  0  1.014875  0  0  0.129031  0  1.012323  0  0  0.105776  0.122967  0  1.016671  0
H  H19  1  0.64815783  0.87568662  0.34237104  1  0  0.117028  0  0.953049  0  0  0.125485  0  1.014879  0  0  0.129001  0  1.012331  0  0  0.105749  0.12294  0  1.016674  0
H  H20  1  0.85734188  0.79668775  0.69269792  1  0  0.117279  0  0.955027  0  0  0.124994  0  1.018837  0  0  0.128287  0  1.017243  0  0  0.113825  0.122631  0  1.019965  0
H  H21  1  0.35734087  0.20331256  0.80730029  1  0  0.117266  0  0.954996  0  0  0.124997  0  1.018789  0  0  0.128292  0  1.017193  0  0  0.11382  0.122627  0  1.019912  0
H  H22  1  0.14265968  0.20331322  0.30730030  1  0  0.117249  0  0.955002  0  0  0.124979  0  1.018796  0  0  0.128273  0  1.017201  0  0  0.113815  0.12261  0  1.019922  0
H  H23  1  0.64265773  0.79668691  0.19269858  1  0  0.117271  0  0.954997  0  0  0.124998  0  1.018795  0  0  0.128293  0  1.017198  0  0  0.113809  0.122631  0  1.019923  0
H  H24  1  0.86249671  0.89954351  0.55819676  1  0  0.099212  0  0.949602  0  0  0.109947  0  1.008282  0  0  0.112799  0  1.00652  0  0  0.104603  0.10779  0  1.0097  0
H  H25  1  0.36249152  0.10045680  0.94180211  1  0  0.099216  0  0.949613  0  0  0.109969  0  1.008282  0  0  0.112819  0  1.006523  0  0  0.104662  0.10781  0  1.009696  0
H  H26  1  0.13751078  0.10045746  0.44180146  1  0  0.09922  0  0.949627  0  0  0.109976  0  1.008291  0  0  0.112826  0  1.006533  0  0  0.104663  0.107817  0  1.009698  0
H  H27  1  0.63750412  0.89954342  0.05819810  1  0  0.099204  0  0.949652  0  0  0.109952  0  1.008316  0  0  0.112802  0  1.006557  0  0  0.104631  0.107796  0  1.009728  0
H  H28  1  0.86582001  0.08840596  0.56998929  1  0  0.11946  0  0.965119  0  0  0.127027  0  1.027877  0  0  0.130514  0  1.026447  0  0  0.108021  0.124519  0  1.028978  0
H  H29  1  0.36581590  0.91159434  0.93000958  1  0  0.11949  0  0.965147  0  0  0.127027  0  1.027933  0  0  0.130514  0  1.026503  0  0  0.108041  0.124519  0  1.029038  0
H  H30  1  0.13418599  0.91159501  0.43000959  1  0  0.1195  0  0.965184  0  0  0.127029  0  1.027978  0  0  0.130516  0  1.026548  0  0  0.108053  0.124519  0  1.029076  0
H  H31  1  0.63417973  0.08840438  0.06998995  1  0  0.119477  0  0.965176  0  0  0.127038  0  1.027934  0  0  0.130525  0  1.026504  0  0  0.108026  0.12453  0  1.029028  0
H  H32  1  0.86534617  0.23024942  0.66238214  1  0  0.315474  0  0.910584  0  0  0.290751  0  0.978307  0  0  0.300414  0  0.970522  0  0  0.31505  0.283907  0  0.98387  0
H  H33  1  0.36534790  0.76975089  0.83761807  1  0  0.315488  0  0.910588  0  0  0.290759  0  0.978313  0  0  0.300423  0  0.970529  0  0  0.315038  0.283918  0  0.983878  0
H  H34  1  0.13465391  0.76975080  0.33761807  1  0  0.315485  0  0.910574  0  0  0.290757  0  0.978304  0  0  0.300419  0  0.970522  0  0  0.315043  0.283914  0  0.983868  0
H  H35  1  0.63465366  0.23024933  0.16238347  1  0  0.315529  0  0.910533  0  0  0.290802  0  0.978251  0  0  0.300463  0  0.970469  0  0  0.315066  0.283959  0  0.983815  0
H  H36  1  0.83575961  0.65124152  0.81073578  1  0  0.46088  0  0.822189  0  0  0.433596  0  0.877489  0  0  0.443824  0  0.862558  0  0  0.309877  0.426343  0  0.888056  0
H  H37  1  0.33575834  0.34875879  0.68926508  1  0  0.460811  0  0.822268  0  0  0.433522  0  0.877579  0  0  0.443753  0  0.862645  0  0  0.309852  0.426269  0  0.888147  0
H  H38  1  0.16424047  0.34875945  0.18926510  1  0  0.460844  0  0.822216  0  0  0.433557  0  0.877525  0  0  0.443786  0  0.862593  0  0  0.309875  0.426305  0  0.888092  0
H  H39  1  0.66424026  0.65124068  0.31073445  1  0  0.460842  0  0.822218  0  0  0.433549  0  0.877537  0  0  0.443777  0  0.862607  0  0  0.309908  0.426298  0  0.888102  0
H  H40  1  0.05406312  0.61070099  0.79156159  1  0  0.436363  0  0.861423  0  0  0.409456  0  0.918732  0  0  0.419413  0  0.904071  0  0  0.310469  0.402374  0  0.92912  0
H  H41  1  0.55406286  0.38929935  0.70843851  1  0  0.436364  0  0.86142  0  0  0.409457  0  0.918731  0  0  0.419413  0  0.904072  0  0  0.310484  0.402374  0  0.929119  0
H  H42  1  0.94593548  0.38929922  0.20843862  1  0  0.436358  0  0.861426  0  0  0.409452  0  0.918734  0  0  0.419408  0  0.904075  0  0  0.310482  0.40237  0  0.929122  0
H  H43  1  0.44593425  0.61070012  0.29156102  1  0  0.436348  0  0.861438  0  0  0.409439  0  0.918752  0  0  0.419397  0  0.904091  0  0  0.310469  0.402357  0  0.929139  0
H  H44  1  0.70940155  0.36626147  0.55054850  1  0  0.423457  0  0.869441  0  0  0.394873  0  0.936668  0  0  0.404914  0  0.921788  0  0  0.302044  0.387787  0  0.947152  0
H  H45  1  0.20940057  0.63373810  0.94945232  1  0  0.423457  0  0.869443  0  0  0.394873  0  0.936669  0  0  0.404914  0  0.921787  0  0  0.302055  0.387788  0  0.94715  0
H  H46  1  0.29059853  0.63373800  0.44945303  1  0  0.42349  0  0.869391  0  0  0.394906  0  0.936618  0  0  0.404947  0  0.921737  0  0  0.302063  0.387819  0  0.947102  0
H  H47  1  0.79059951  0.36626137  0.05054722  1  0  0.423463  0  0.869431  0  0  0.394876  0  0.936663  0  0  0.404917  0  0.921782  0  0  0.302041  0.387791  0  0.947145  0
H  H48  1  0.66583387  0.44095091  0.47577274  1  0  0.443325  0  0.840486  0  0  0.416824  0  0.904647  0  0  0.426755  0  0.890046  0  0  0.313414  0.409793  0  0.914934  0
H  H49  1  0.16583373  0.55904996  0.02422815  1  0  0.443313  0  0.840486  0  0  0.416818  0  0.904644  0  0  0.426748  0  0.890046  0  0  0.31342  0.409787  0  0.91493  0
H  H50  1  0.33416473  0.55904855  0.52422879  1  0  0.443377  0  0.840532  0  0  0.416878  0  0.90459  0  0  0.426807  0  0.889992  0  0  0.313437  0.409845  0  0.914876  0
H  H51  1  0.83416487  0.44095100  0.97577206  1  0  0.443418  0  0.840463  0  0  0.416923  0  0.904517  0  0  0.426852  0  0.88992  0  0  0.313463  0.409891  0  0.914803  0
C  C52  1  0.85782042  0.23783274  0.80030920  1  0  0.020417  0  3.558572  0  0  0.026826  0  3.813114  0  0  0.033829  0  3.824258  0  0  0.149742  0.022078  0  3.806095  0
C  C53  1  0.35782194  0.76216681  0.69969033  1  0  0.0205  0  3.558663  0  0  0.026908  0  3.813204  0  0  0.033911  0  3.824346  0  0  0.149785  0.022155  0  3.806194  0
C  C54  1  0.14218114  0.76216748  0.19969034  1  0  0.020461  0  3.558537  0  0  0.026871  0  3.813097  0  0  0.033874  0  3.82424  0  0  0.149746  0.022119  0  3.806088  0
C  C55  1  0.64218110  0.23783341  0.30030988  1  0  0.020488  0  3.558535  0  0  0.026915  0  3.813044  0  0  0.033916  0  3.824186  0  0  0.149753  0.022166  0  3.806029  0
C  C56  1  0.85524672  0.18204779  0.87937374  1  0  -0.080008  0  3.676854  0  0  -0.101517  0  3.932548  0  0  -0.109413  0  3.951482  0  0  -0.06197  -0.096686  0  3.920372  0
C  C57  1  0.35524957  0.81795177  0.62062513  1  0  -0.080011  0  3.6768  0  0  -0.10152  0  3.932466  0  0  -0.109415  0  3.951399  0  0  -0.061979  -0.096687  0  3.920293  0
C  C58  1  0.14475336  0.81795168  0.12062580  1  0  -0.08001  0  3.676823  0  0  -0.101529  0  3.932526  0  0  -0.109419  0  3.951449  0  0  -0.061959  -0.096696  0  3.920345  0
C  C59  1  0.64475643  0.18204920  0.37937509  1  0  -0.07999  0  3.67689  0  0  -0.101489  0  3.932551  0  0  -0.10939  0  3.951503  0  0  -0.061974  -0.096653  0  3.920362  0
C  C60  1  0.85531042  0.07881662  0.87491729  1  0  -0.019294  0  3.672373  0  0  -0.046741  0  3.925007  0  0  -0.040721  0  3.940813  0  0  -0.048445  -0.050471  0  3.914409  0
C  C61  1  0.35531471  0.92118293  0.62508157  1  0  -0.019268  0  3.672207  0  0  -0.046717  0  3.924851  0  0  -0.0407  0  3.940659  0  0  -0.048427  -0.050441  0  3.914243  0
C  C62  1  0.14468670  0.92118285  0.12508091  1  0  -0.019247  0  3.672217  0  0  -0.046675  0  3.924848  0  0  -0.040656  0  3.940654  0  0  -0.048413  -0.050393  0  3.914231  0
C  C63  1  0.64469129  0.07881804  0.37491731  1  0  -0.01929  0  3.672375  0  0  -0.04673  0  3.924995  0  0  -0.040713  0  3.940799  0  0  -0.048416  -0.050451  0  3.91438  0
C  C64  1  0.85760722  0.02791024  0.79199436  1  0  0.003762  0  3.812972  0  0  0.022696  0  4.041626  0  0  0.018014  0  4.067336  0  0  0.000375  0.025474  0  4.024657  0
C  C65  1  0.35760569  0.97208857  0.70800450  1  0  0.003778  0  3.812798  0  0  0.022721  0  4.041458  0  0  0.018036  0  4.067174  0  0  0.000389  0.025498  0  4.024487  0
C  C66  1  0.14239286  0.97208848  0.20800384  1  0  0.003783  0  3.812879  0  0  0.022698  0  4.041526  0  0  0.018012  0  4.067245  0  0  0.000343  0.025474  0  4.02456  0
C  C67  1  0.64239439  0.02791090  0.29199504  1  0  0.003784  0  3.812882  0  0  0.022707  0  4.041522  0  0  0.018025  0  4.067233  0  0  0.000402  0.025483  0  4.024556  0
C  C68  1  0.85679696  0.92208086  0.78307866  1  0  -0.099053  0  3.706541  0  0  -0.122661  0  3.962645  0  0  -0.123863  0  3.983537  0  0  -0.082482  -0.121547  0  3.948652  0
C  C69  1  0.35679734  0.07791870  0.71692087  1  0  -0.099125  0  3.706461  0  0  -0.122734  0  3.962576  0  0  -0.123939  0  3.983471  0  0  -0.082485  -0.121618  0  3.948573  0
C  C70  1  0.14320608  0.07791861  0.21692021  1  0  -0.099204  0  3.706533  0  0  -0.12282  0  3.962658  0  0  -0.124024  0  3.983551  0  0  -0.082533  -0.121704  0  3.94866  0
C  C71  1  0.64320125  0.92208077  0.28307999  1  0  -0.099129  0  3.706538  0  0  -0.122747  0  3.96266  0  0  -0.123951  0  3.983552  0  0  -0.082509  -0.121631  0  3.948667  0
C  C72  1  0.85812081  0.87787443  0.69991096  1  0  -0.048498  0  3.701034  0  0  -0.069166  0  3.962365  0  0  -0.07319  0  3.985236  0  0  -0.081754  -0.066705  0  3.947357  0
C  C73  1  0.35811687  0.12212587  0.80008924  1  0  -0.048404  0  3.700952  0  0  -0.069083  0  3.962273  0  0  -0.073107  0  3.985146  0  0  -0.081736  -0.066611  0  3.947248  0
C  C74  1  0.14188519  0.12212579  0.30008792  1  0  -0.048292  0  3.700796  0  0  -0.068958  0  3.962107  0  0  -0.072981  0  3.984977  0  0  -0.081661  -0.066488  0  3.947089  0
C  C75  1  0.64187877  0.87787434  0.19991163  1  0  -0.048418  0  3.701054  0  0  -0.069093  0  3.962372  0  0  -0.073117  0  3.985246  0  0  -0.081692  -0.066624  0  3.94736  0
C  C76  1  0.86097292  0.93752796  0.62264762  1  0  -0.029897  0  3.743382  0  0  -0.046485  0  3.99855  0  0  -0.045849  0  4.020143  0  0  -0.077363  -0.04664  0  3.984007  0
C  C77  1  0.36096616  0.06247309  0.87735126  1  0  -0.029894  0  3.743519  0  0  -0.046506  0  3.998711  0  0  -0.045872  0  4.020308  0  0  -0.077408  -0.046655  0  3.984158  0
C  C78  1  0.13903604  0.06247301  0.37735127  1  0  -0.029918  0  3.743446  0  0  -0.046539  0  3.998654  0  0  -0.045904  0  4.020248  0  0  -0.077416  -0.046683  0  3.984089  0
C  C79  1  0.63902799  0.93752713  0.12264894  1  0  -0.029875  0  3.743541  0  0  -0.046478  0  3.998725  0  0  -0.045843  0  4.020321  0  0  -0.077381  -0.046631  0  3.984172  0
C  C80  1  0.86188240  0.04088653  0.62846474  1  0  -0.177672  0  3.721726  0  0  -0.19709  0  3.976947  0  0  -0.203992  0  3.998161  0  0  -0.092774  -0.192533  0  3.962613  0
C  C81  1  0.36187670  0.95911452  0.87153481  1  0  -0.177746  0  3.721884  0  0  -0.19713  0  3.977119  0  0  -0.204032  0  3.998335  0  0  -0.092817  -0.192578  0  3.962789  0
C  C82  1  0.13812657  0.95911519  0.37153482  1  0  -0.177749  0  3.721932  0  0  -0.197146  0  3.977151  0  0  -0.204047  0  3.998363  0  0  -0.092832  -0.192586  0  3.962805  0
C  C83  1  0.63812042  0.04088570  0.12846540  1  0  -0.177714  0  3.721813  0  0  -0.197146  0  3.977033  0  0  -0.204048  0  3.998247  0  0  -0.092805  -0.192584  0  3.962687  0
C  C84  1  0.85972925  0.08685831  0.71340872  1  0  0.216118  0  3.725253  0  0  0.206543  0  3.962826  0  0  0.213789  0  3.98466  0  0  0.12433  0.201774  0  3.948281  0
C  C85  1  0.35972788  0.91314124  0.78659015  1  0  0.216131  0  3.725253  0  0  0.206526  0  3.962855  0  0  0.213772  0  3.98469  0  0  0.124297  0.201759  0  3.948313  0
C  C86  1  0.14027527  0.91314190  0.28659016  1  0  0.216137  0  3.725246  0  0  0.206615  0  3.96273  0  0  0.213862  0  3.984563  0  0  0.124348  0.201846  0  3.94819  0
C  C87  1  0.64027369  0.08685748  0.21341005  1  0  0.216147  0  3.725219  0  0  0.206618  0  3.962717  0  0  0.213865  0  3.984548  0  0  0.124332  0.201849  0  3.948178  0
S  S88  1  0.91056469  0.69295568  0.46047260  1  0  1.585141  0  5.840776  0  0  1.459459  0  6.402188  0  0  1.515642  0  6.363404  0  0  0.559858  1.420806  0  6.42684  0
S  S89  1  0.41056765  0.30704442  0.03952770  1  0  1.585128  0  5.840769  0  0  1.459442  0  6.402176  0  0  1.515624  0  6.363392  0  0  0.559895  1.420791  0  6.426823  0
S  S90  1  0.08943094  0.30704379  0.53953092  1  0  1.585451  0  5.840186  0  0  1.459806  0  6.401541  0  0  1.515994  0  6.362744  0  0  0.560052  1.421148  0  6.426204  0
S  S91  1  0.58943539  0.69295655  0.96047052  1  0  1.58512  0  5.840722  0  0  1.459442  0  6.402122  0  0  1.515624  0  6.36334  0  0  0.55989  1.420791  0  6.426765  0
N  N92  1  0.85944786  0.18936985  0.72209021  1  0  -0.237781  0  3.446128  0  0  -0.174227  0  3.65842  0  0  -0.189617  0  3.674632  0  0  -0.325535  -0.164225  0  3.647872  0
N  N93  1  0.35944949  0.81063045  0.77790933  1  0  -0.237866  0  3.446282  0  0  -0.174286  0  3.65856  0  0  -0.189676  0  3.674771  0  0  -0.32553  -0.164282  0  3.648018  0
N  N94  1  0.14055222  0.81063037  0.27791000  1  0  -0.237853  0  3.446154  0  0  -0.174305  0  3.658427  0  0  -0.189694  0  3.674637  0  0  -0.325526  -0.164298  0  3.647883  0
N  N95  1  0.64055356  0.18936976  0.22209088  1  0  -0.237876  0  3.446161  0  0  -0.174326  0  3.658419  0  0  -0.189714  0  3.674628  0  0  -0.325521  -0.164321  0  3.647875  0
O  O96  1  0.82196811  0.40774708  0.70775869  1  0  -0.954394  0  2.049213  0  0  -0.885744  0  2.313547  0  0  -0.910747  0  2.291802  0  0  -0.450193  -0.867119  0  2.327674  0
O  O97  1  0.32196837  0.59225248  0.79224150  1  0  -0.954389  0  2.049219  0  0  -0.885742  0  2.313559  0  0  -0.910745  0  2.291817  0  0  -0.450188  -0.867107  0  2.327685  0
O  O98  1  0.17803197  0.59225163  0.29224217  1  0  -0.954392  0  2.0493  0  0  -0.885702  0  2.313577  0  0  -0.910705  0  2.291836  0  0  -0.450169  -0.867072  0  2.327703  0
O  O99  1  0.67803023  0.40774849  0.20775938  1  0  -0.954351  0  2.049261  0  0  -0.885694  0  2.31359  0  0  -0.910695  0  2.291849  0  0  -0.450162  -0.867064  0  2.32772  0
O  O100  1  0.70599280  0.40671547  0.86961708  1  0  -0.939121  0  2.032515  0  0  -0.870289  0  2.297561  0  0  -0.896602  0  2.276373  0  0  -0.442031  -0.850466  0  2.311134  0
O  O101  1  0.20599133  0.59328411  0.63038107  1  0  -0.939136  0  2.032502  0  0  -0.8703  0  2.297555  0  0  -0.896613  0  2.276368  0  0  -0.442056  -0.850469  0  2.311126  0
O  O102  1  0.29400579  0.59328325  0.13038245  1  0  -0.939109  0  2.03241  0  0  -0.870282  0  2.297482  0  0  -0.89659  0  2.276294  0  0  -0.442067  -0.850452  0  2.311058  0
O  O103  1  0.79400283  0.40671686  0.36961848  1  0  -0.939052  0  2.032482  0  0  -0.870229  0  2.29755  0  0  -0.896542  0  2.276362  0  0  -0.442057  -0.850404  0  2.311122  0
O  O104  1  0.07342280  0.39935892  0.83491665  1  0  -0.932609  0  2.038993  0  0  -0.867337  0  2.315317  0  0  -0.895149  0  2.295018  0  0  -0.470986  -0.846241  0  2.328191  0
O  O105  1  0.57342090  0.60063767  0.66508276  1  0  -0.932604  0  2.039035  0  0  -0.86733  0  2.315377  0  0  -0.895142  0  2.295078  0  0  -0.47101  -0.846229  0  2.32825  0
O  O106  1  0.92657580  0.60064130  0.16508422  1  0  -0.932601  0  2.038999  0  0  -0.867319  0  2.315329  0  0  -0.895127  0  2.295034  0  0  -0.470979  -0.846216  0  2.328202  0
O  O107  1  0.42657474  0.39935805  0.33491740  1  0  -0.932618  0  2.039044  0  0  -0.867331  0  2.315374  0  0  -0.895143  0  2.295075  0  0  -0.471001  -0.846235  0  2.328243  0
O  O108  1  0.84180880  0.71562875  0.55250493  1  0  -0.780223  0  1.969899  0  0  -0.740876  0  2.239268  0  0  -0.761747  0  2.222239  0  0  -0.399188  -0.725294  0  2.250038  0
O  O109  1  0.34181390  0.28437006  0.94749526  1  0  -0.780281  0  1.969857  0  0  -0.740905  0  2.239195  0  0  -0.76177  0  2.222164  0  0  -0.399223  -0.725322  0  2.249963  0
O  O110  1  0.15818240  0.28436847  0.44749658  1  0  -0.780361  0  1.96966  0  0  -0.741008  0  2.239014  0  0  -0.761873  0  2.221973  0  0  -0.399272  -0.725434  0  2.249794  0
O  O111  1  0.65818618  0.71563091  0.05250496  1  0  -0.78025  0  1.969812  0  0  -0.740881  0  2.239157  0  0  -0.761746  0  2.222126  0  0  -0.399193  -0.725298  0  2.24993  0
O  O112  1  0.92642647  0.57935797  0.45843340  1  0  -0.911081  0  2.144527  0  0  -0.864534  0  2.423171  0  0  -0.886552  0  2.405119  0  0  -0.463493  -0.847652  0  2.434571  0
O  O113  1  0.42642641  0.42064138  0.04156690  1  0  -0.911065  0  2.144491  0  0  -0.864541  0  2.423172  0  0  -0.886551  0  2.405114  0  0  -0.463495  -0.847656  0  2.434577  0
O  O114  1  0.07357065  0.42064150  0.54156813  1  0  -0.911178  0  2.144499  0  0  -0.864632  0  2.423133  0  0  -0.886646  0  2.40507  0  0  -0.463513  -0.847749  0  2.434533  0
O  O115  1  0.57357811  0.57935809  0.95843131  1  0  -0.91105  0  2.144407  0  0  -0.864525  0  2.423075  0  0  -0.886533  0  2.405015  0  0  -0.463496  -0.84764  0  2.434481  0
O  O116  1  0.11170771  0.73684379  0.44517952  1  0  -0.727682  0  1.971438  0  0  -0.665852  0  2.208945  0  0  -0.688342  0  2.192504  0  0  -0.341922  -0.650156  0  2.219925  0
O  O117  1  0.61171023  0.26315634  0.05482068  1  0  -0.727735  0  1.971417  0  0  -0.66589  0  2.208916  0  0  -0.688381  0  2.192473  0  0  -0.341969  -0.650202  0  2.219901  0
O  O118  1  0.88828941  0.26315717  0.55482401  1  0  -0.727796  0  1.97143  0  0  -0.665967  0  2.208921  0  0  -0.688454  0  2.192472  0  0  -0.342025  -0.650271  0  2.219904  0
O  O119  1  0.38829133  0.73684313  0.94517753  1  0  -0.727713  0  1.971431  0  0  -0.665878  0  2.20893  0  0  -0.688368  0  2.192484  0  0  -0.341987  -0.650186  0  2.219916  0
O  O120  1  0.77217158  0.72805931  0.39227050  1  0  -0.693023  0  1.919421  0  0  -0.635399  0  2.153178  0  0  -0.656294  0  2.135177  0  0  -0.339592  -0.620862  0  2.165232  0
O  O121  1  0.27217614  0.27194005  0.10772974  1  0  -0.692938  0  1.919412  0  0  -0.635344  0  2.153198  0  0  -0.656244  0  2.1352  0  0  -0.339572  -0.6208  0  2.165246  0
O  O122  1  0.22782406  0.27193940  0.60773235  1  0  -0.692988  0  1.919222  0  0  -0.635409  0  2.152997  0  0  -0.656321  0  2.135004  0  0  -0.339568  -0.620864  0  2.165047  0
O  O123  1  0.72782690  0.72806241  0.89227049  1  0  -0.69296  0  1.919427  0  0  -0.635355  0  2.153194  0  0  -0.656255  0  2.1352  0  0  -0.339555  -0.620808  0  2.16524  0
O  O124  1  0.92372853  0.62322701  0.76395630  1  0  -0.918467  0  1.861823  0  0  -0.878477  0  2.04968  0  0  -0.896326  0  2.017523  0  0  -0.635311  -0.864975  0  2.072086  0
O  O125  1  0.42372881  0.37677254  0.73604458  1  0  -0.918405  0  1.861888  0  0  -0.878416  0  2.049739  0  0  -0.896262  0  2.017584  0  0  -0.635317  -0.864903  0  2.072117  0
O  O126  1  0.07627007  0.37677246  0.23604456  1  0  -0.918416  0  1.861832  0  0  -0.87842  0  2.049678  0  0  -0.896265  0  2.017526  0  0  -0.63531  -0.864901  0  2.072044  0
O  O127  1  0.57626979  0.62322693  0.26395496  1  0  -0.918405  0  1.86187  0  0  -0.878415  0  2.049725  0  0  -0.896259  0  2.017575  0  0  -0.635343  -0.864892  0  2.072095  0
O  O128  1  0.64858903  0.43271989  0.54062160  1  0  -0.861124  0  1.842533  0  0  -0.824187  0  2.029591  0  0  -0.841601  0  1.999661  0  0  -0.626124  -0.811199  0  2.050502  0
O  O129  1  0.14859105  0.56727969  0.95937985  1  0  -0.8611  0  1.842546  0  0  -0.824168  0  2.029617  0  0  -0.84158  0  1.999688  0  0  -0.626128  -0.811175  0  2.050524  0
O  O130  1  0.35140957  0.56727882  0.45937992  1  0  -0.861184  0  1.842588  0  0  -0.824249  0  2.029581  0  0  -0.841662  0  1.999648  0  0  -0.626159  -0.811261  0  2.050489  0
O  O131  1  0.85140903  0.43272053  0.04062035  1  0  -0.861206  0  1.842556  0  0  -0.824278  0  2.02957  0  0  -0.841688  0  1.999639  0  0  -0.626167  -0.811286  0  2.050479  0
