# generated using pymatgen
data_ZnH16C17N6ClO2
_symmetry_space_group_name_H-M   'P 1'
_cell_length_a   8.92303486
_cell_length_b   8.87198681
_cell_length_c   11.73295345
_cell_angle_alpha   99.87649139
_cell_angle_beta   106.63610962
_cell_angle_gamma   91.94611886
_symmetry_Int_Tables_number   1
_chemical_formula_structural   ZnH16C17N6ClO2
_chemical_formula_sum   'Zn2 H32 C34 N12 Cl2 O4'
_cell_volume   873.36997104
_cell_formula_units_Z   2
loop_
 _symmetry_equiv_pos_site_id
 _symmetry_equiv_pos_as_xyz
  1  'x, y, z'
loop_
 _atom_site_type_symbol
 _atom_site_label
 _atom_site_symmetry_multiplicity
 _atom_site_fract_x
 _atom_site_fract_y
 _atom_site_fract_z
 _atom_site_occupancy
 _atom_site_hle17_bader_spin_density
 _atom_site_hle17_ddec_charge
 _atom_site_hle17_ddec_spin_density
 _atom_site_hle17_ddec_sum_bond_order
 _atom_site_hle17_magmom
 _atom_site_hse06_10hf_bader_spin_density
 _atom_site_hse06_10hf_ddec_charge
 _atom_site_hse06_10hf_ddec_spin_density
 _atom_site_hse06_10hf_ddec_sum_bond_order
 _atom_site_hse06_10hf_magmom
 _atom_site_hse06_bader_spin_density
 _atom_site_hse06_ddec_charge
 _atom_site_hse06_ddec_spin_density
 _atom_site_hse06_ddec_sum_bond_order
 _atom_site_hse06_magmom
 _atom_site_pbe_bader_spin_density
 _atom_site_pbe_cm5_charge
 _atom_site_pbe_ddec_charge
 _atom_site_pbe_ddec_spin_density
 _atom_site_pbe_ddec_sum_bond_order
 _atom_site_pbe_magmom
Zn  Zn0  1  0.03690708  0.66530505  0.26938933  1  0  0.936375  0  2.017095  0  0  0.755967  0  2.502029  0  0  0.7979  0  2.452598  0  0  0.636362  0.72651  0  2.537037  0
Zn  Zn1  1  0.96309144  0.33469534  0.73061089  1  0  0.936386  0  2.01708  0  0  0.755976  0  2.502015  0  0  0.797883  0  2.452573  0  0  0.636372  0.726513  0  2.537019  0
H  H2  1  0.53091078  0.50418700  0.21197391  1  0  0.104431  0  0.947218  0  0  0.118196  0  1.011481  0  0  0.119801  0  1.012308  0  0  0.096678  0.116953  0  1.011147  0
H  H3  1  0.46908997  0.49581225  0.78802579  1  0  0.104434  0  0.947215  0  0  0.118167  0  1.01151  0  0  0.11977  0  1.012337  0  0  0.096664  0.116922  0  1.011176  0
H  H4  1  0.54641521  0.69958546  0.28032846  1  0  0.111015  0  0.928379  0  0  0.123026  0  0.9929  0  0  0.126105  0  0.990442  0  0  0.100284  0.120756  0  0.994934  0
H  H5  1  0.45358437  0.30041379  0.71967099  1  0  0.111019  0  0.928383  0  0  0.123021  0  0.992909  0  0  0.126099  0  0.99045  0  0  0.100285  0.12075  0  0.994943  0
H  H6  1  0.58045551  0.30449414  0.35669711  1  0  0.07752  0  0.989945  0  0  0.086342  0  1.05852  0  0  0.088487  0  1.058967  0  0  0.088466  0.084804  0  1.058322  0
H  H7  1  0.41954407  0.69550511  0.64330234  1  0  0.077506  0  0.989938  0  0  0.086319  0  1.058536  0  0  0.088464  0  1.058979  0  0  0.088452  0.084779  0  1.058339  0
H  H8  1  0.48995947  0.76995427  0.46975650  1  0  0.084854  0  0.957781  0  0  0.096346  0  1.018912  0  0  0.099003  0  1.018172  0  0  0.092949  0.094781  0  1.018816  0
H  H9  1  0.51004139  0.23004613  0.53024423  1  0  0.084841  0  0.957785  0  0  0.096334  0  1.018917  0  0  0.09899  0  1.018177  0  0  0.092946  0.094769  0  1.018821  0
H  H10  1  0.08308802  0.69507152  0.56075230  1  0  0.127024  0  0.950274  0  0  0.132559  0  1.020204  0  0  0.135778  0  1.016038  0  0  0.146363  0.130434  0  1.022463  0
H  H11  1  0.91691283  0.30492888  0.43924758  1  0  0.12705  0  0.950215  0  0  0.13261  0  1.020126  0  0  0.135807  0  1.015983  0  0  0.146381  0.130483  0  1.022388  0
H  H12  1  0.22751908  0.00606596  0.37036560  1  0  0.096284  0  0.970678  0  0  0.094965  0  1.049501  0  0  0.098536  0  1.045261  0  0  0.127696  0.091928  0  1.053087  0
H  H13  1  0.77248177  0.99393445  0.62963427  1  0  0.096299  0  0.970669  0  0  0.094981  0  1.049491  0  0  0.098552  0  1.045251  0  0  0.127703  0.091943  0  1.053076  0
H  H14  1  0.08296469  0.94759815  0.75292221  1  0  0.087456  0  0.939231  0  0  0.094864  0  1.015358  0  0  0.095869  0  1.014959  0  0  0.110532  0.094121  0  1.015541  0
H  H15  1  0.91703499  0.05240224  0.24707656  1  0  0.08746  0  0.939254  0  0  0.094877  0  1.015356  0  0  0.095881  0  1.014959  0  0  0.110547  0.094134  0  1.01554  0
H  H16  1  0.22903759  0.09663857  0.76670098  1  0  0.113932  0  0.941636  0  0  0.125455  0  1.007975  0  0  0.127645  0  1.006132  0  0  0.12174  0.123755  0  1.009423  0
H  H17  1  0.77096200  0.90336068  0.23329932  1  0  0.113938  0  0.941634  0  0  0.12546  0  1.007973  0  0  0.127651  0  1.006129  0  0  0.12174  0.12376  0  1.009421  0
H  H18  1  0.14909461  0.76338411  0.87684418  1  0  0.089908  0  0.972627  0  0  0.097695  0  1.039851  0  0  0.099687  0  1.040608  0  0  0.094117  0.096931  0  1.037988  0
H  H19  1  0.85090487  0.23661400  0.12315424  1  0  0.089913  0  0.972641  0  0  0.097694  0  1.039876  0  0  0.099683  0  1.040635  0  0  0.094116  0.09693  0  1.038013  0
H  H20  1  0.34672420  0.63659746  0.01470701  1  0  0.085287  0  0.95673  0  0  0.096557  0  1.017312  0  0  0.098898  0  1.016614  0  0  0.095301  0.094773  0  1.017982  0
H  H21  1  0.65327528  0.36340064  0.98529142  1  0  0.085285  0  0.956765  0  0  0.096554  0  1.017354  0  0  0.098893  0  1.016657  0  0  0.095292  0.09477  0  1.018024  0
H  H22  1  0.63104629  0.68725182  0.03846296  1  0  0.104641  0  0.968223  0  0  0.113556  0  1.033568  0  0  0.117029  0  1.031644  0  0  0.098971  0.111175  0  1.034417  0
H  H23  1  0.36895437  0.31274629  0.96153742  1  0  0.104664  0  0.968213  0  0  0.113571  0  1.033564  0  0  0.117047  0  1.031633  0  0  0.09894  0.111191  0  1.034413  0
H  H24  1  0.51827225  0.99721802  0.78641648  1  0  0.103299  0  0.935504  0  0  0.116166  0  0.994283  0  0  0.119038  0  0.992836  0  0  0.105433  0.114009  0  0.995357  0
H  H25  1  0.48172862  0.00278238  0.21358596  1  0  0.103303  0  0.93548  0  0  0.116168  0  0.994266  0  0  0.119041  0  0.99282  0  0  0.105433  0.11401  0  0.995341  0
H  H26  1  0.79103845  0.98187231  0.90098942  1  0  0.105429  0  0.962526  0  0  0.116128  0  1.032088  0  0  0.118059  0  1.030417  0  0  0.104464  0.114632  0  1.03371  0
H  H27  1  0.20896006  0.01812809  0.09900996  1  0  0.10545  0  0.962543  0  0  0.116135  0  1.032116  0  0  0.118067  0  1.030445  0  0  0.104451  0.114639  0  1.033739  0
H  H28  1  0.83924503  0.86161814  0.01161295  1  0  0.096534  0  0.947455  0  0  0.110336  0  1.011988  0  0  0.111526  0  1.011425  0  0  0.106231  0.109404  0  1.012352  0
H  H29  1  0.16075583  0.13838226  0.98838778  1  0  0.096545  0  0.947454  0  0  0.110351  0  1.011982  0  0  0.111542  0  1.011419  0  0  0.106241  0.109419  0  1.012346  0
H  H30  1  0.86374314  0.56769496  0.93207343  1  0  0.109966  0  0.937063  0  0  0.117588  0  1.004987  0  0  0.120392  0  1.001219  0  0  0.137998  0.115051  0  1.008393  0
H  H31  1  0.13625644  0.43230429  0.06792602  1  0  0.109953  0  0.937016  0  0  0.117571  0  1.004952  0  0  0.120376  0  1.001181  0  0  0.137978  0.115035  0  1.008357  0
H  H32  1  0.85565683  0.61984754  0.58012196  1  0  0.110971  0  0.961697  0  0  0.117063  0  1.025823  0  0  0.119853  0  1.023359  0  0  0.136322  0.114965  0  1.027594  0
H  H33  1  0.14434285  0.38015285  0.41987766  1  0  0.110988  0  0.961706  0  0  0.117078  0  1.025829  0  0  0.119869  0  1.023362  0  0  0.13634  0.114982  0  1.0276  0
C  C34  1  0.76248204  0.59513479  0.31104300  1  0  0.698244  0  3.83579  0  0  0.64889  0  4.141891  0  0  0.682147  0  4.134812  0  0  0.203748  0.6267  0  4.145018  0
C  C35  1  0.23751765  0.40486561  0.68895748  1  0  0.698276  0  3.835789  0  0  0.648921  0  4.141889  0  0  0.682177  0  4.13481  0  0  0.203747  0.62673  0  4.145015  0
C  C36  1  0.58638422  0.58722326  0.29655126  1  0  -0.304725  0  3.706565  0  0  -0.34656  0  3.946256  0  0  -0.352438  0  3.954191  0  0  -0.162759  -0.342811  0  3.941683  0
C  C37  1  0.41361547  0.41277714  0.70344836  1  0  -0.304717  0  3.706627  0  0  -0.346532  0  3.94631  0  0  -0.352407  0  3.954241  0  0  -0.162731  -0.342782  0  3.941735  0
C  C38  1  0.54040658  0.54232766  0.40059729  1  0  0.110145  0  3.766803  0  0  0.131672  0  3.998583  0  0  0.132099  0  4.023092  0  0  -0.018625  0.13111  0  3.982684  0
C  C39  1  0.45959291  0.45767044  0.59940285  1  0  0.110099  0  3.766819  0  0  0.131667  0  3.99855  0  0  0.132094  0  4.023058  0  0  -0.01866  0.131106  0  3.982649  0
C  C40  1  0.54642013  0.39104545  0.42026705  1  0  -0.117656  0  3.758875  0  0  -0.140004  0  4.011787  0  0  -0.142012  0  4.033102  0  0  -0.104113  -0.138646  0  3.997557  0
C  C41  1  0.45357946  0.60895379  0.57973326  1  0  -0.117596  0  3.75879  0  0  -0.139955  0  4.0117  0  0  -0.141961  0  4.033011  0  0  -0.10411  -0.138595  0  3.997464  0
C  C42  1  0.49317828  0.65079234  0.48207189  1  0  -0.125685  0  3.762338  0  0  -0.144477  0  4.010152  0  0  -0.147525  0  4.032254  0  0  -0.101793  -0.142569  0  3.995484  0
C  C43  1  0.50682131  0.34920691  0.51792842  1  0  -0.125624  0  3.762287  0  0  -0.144431  0  4.01009  0  0  -0.147482  0  4.032198  0  0  -0.101779  -0.142525  0  3.995424  0
C  C44  1  0.12683540  0.79756659  0.53735030  1  0  0.187191  0  3.596616  0  0  0.105462  0  3.862763  0  0  0.120928  0  3.872901  0  0  0.172166  0.095906  0  3.855097  0
C  C45  1  0.87316438  0.20243496  0.46264949  1  0  0.187184  0  3.596497  0  0  0.105422  0  3.862642  0  0  0.120908  0  3.872788  0  0  0.172143  0.095865  0  3.854979  0
C  C46  1  0.20544572  0.95623180  0.44306622  1  0  0.186857  0  3.710836  0  0  0.135964  0  3.997155  0  0  0.146765  0  4.010191  0  0  0.141709  0.129418  0  3.987549  0
C  C47  1  0.79455513  0.04376861  0.55693365  1  0  0.186806  0  3.710787  0  0  0.135903  0  3.997103  0  0  0.146701  0  4.01014  0  0  0.141679  0.129357  0  3.987497  0
C  C48  1  0.19984489  0.97161030  0.74333246  1  0  -0.07169  0  3.638705  0  0  -0.148566  0  3.883406  0  0  -0.144858  0  3.892925  0  0  -0.047497  -0.150621  0  3.876598  0
C  C49  1  0.80015597  0.02839010  0.25666827  1  0  -0.071698  0  3.638732  0  0  -0.148577  0  3.883445  0  0  -0.14487  0  3.892967  0  0  -0.04751  -0.150632  0  3.876638  0
C  C50  1  0.32000495  0.88807465  0.82202374  1  0  0.066256  0  3.767961  0  0  0.088155  0  4.010331  0  0  0.086956  0  4.035356  0  0  -0.014988  0.088438  0  3.993646  0
C  C51  1  0.67999464  0.11192460  0.17797571  1  0  0.066219  0  3.767928  0  0  0.088118  0  4.010304  0  0  0.086918  0  4.035332  0  0  -0.015002  0.088402  0  3.993621  0
C  C52  1  0.27317799  0.78508010  0.88556771  1  0  -0.106774  0  3.723901  0  0  -0.126209  0  3.967451  0  0  -0.129178  0  3.99042  0  0  -0.090834  -0.124328  0  3.950755  0
C  C53  1  0.72682159  0.21491915  0.11443088  1  0  -0.106734  0  3.723872  0  0  -0.126163  0  3.967423  0  0  -0.129128  0  3.990388  0  0  -0.090807  -0.124282  0  3.950728  0
C  C54  1  0.38471765  0.71268480  0.96275626  1  0  -0.044892  0  3.774683  0  0  -0.056557  0  4.022511  0  0  -0.058277  0  4.044975  0  0  -0.08886  -0.055578  0  4.006963  0
C  C55  1  0.61528173  0.28731216  0.03724114  1  0  -0.044849  0  3.774739  0  0  -0.056521  0  4.022573  0  0  -0.05824  0  4.045036  0  0  -0.088826  -0.055542  0  4.007025  0
C  C56  1  0.54378810  0.74091988  0.97542695  1  0  -0.130895  0  3.730926  0  0  -0.151734  0  3.97818  0  0  -0.155122  0  4.000059  0  0  -0.092534  -0.148293  0  3.961621  0
C  C57  1  0.45621140  0.25907821  0.02457403  1  0  -0.131028  0  3.730982  0  0  -0.151882  0  3.978251  0  0  -0.15527  0  4.00013  0  0  -0.092559  -0.14844  0  3.961692  0
C  C58  1  0.59196667  0.84214012  0.91038060  1  0  0.075597  0  3.762709  0  0  0.095855  0  4.00826  0  0  0.094654  0  4.034163  0  0  -0.012745  0.09693  0  3.989571  0
C  C59  1  0.40803282  0.15785798  0.08961953  1  0  0.075611  0  3.762813  0  0  0.095905  0  4.008313  0  0  0.094707  0  4.034216  0  0  -0.012743  0.096982  0  3.989626  0
C  C60  1  0.48007502  0.91603206  0.83488730  1  0  -0.148916  0  3.701179  0  0  -0.17903  0  3.950949  0  0  -0.181514  0  3.971807  0  0  -0.085392  -0.176951  0  3.936594  0
C  C61  1  0.51992584  0.08396834  0.16511257  1  0  -0.148868  0  3.701265  0  0  -0.178985  0  3.951013  0  0  -0.181471  0  3.971874  0  0  -0.085366  -0.176906  0  3.936659  0
C  C62  1  0.76361492  0.86971613  0.92116011  1  0  -0.074978  0  3.635987  0  0  -0.153081  0  3.880009  0  0  -0.149858  0  3.890137  0  0  -0.051513  -0.155262  0  3.872564  0
C  C63  1  0.23638477  0.13028427  0.07884036  1  0  -0.074995  0  3.636039  0  0  -0.153102  0  3.880058  0  0  -0.149881  0  3.890187  0  0  -0.051502  -0.155285  0  3.872614  0
C  C64  1  0.85203890  0.61330580  0.85032874  1  0  0.171294  0  3.646566  0  0  0.091928  0  3.910579  0  0  0.10626  0  3.921997  0  0  0.164117  0.083087  0  3.90293  0
C  C65  1  0.14796068  0.38669344  0.14967071  1  0  0.171235  0  3.646516  0  0  0.091863  0  3.910538  0  0  0.106194  0  3.921959  0  0  0.16406  0.08302  0  3.902889  0
C  C66  1  0.85023537  0.64553637  0.67295390  1  0  0.208427  0  3.670684  0  0  0.15385  0  3.959406  0  0  0.164899  0  3.972633  0  0  0.153284  0.146778  0  3.950086  0
C  C67  1  0.14976432  0.35446403  0.32704658  1  0  0.208462  0  3.67061  0  0  0.153888  0  3.959324  0  0  0.16494  0  3.972549  0  0  0.153288  0.146814  0  3.950005  0
N  N68  1  0.13486642  0.81149654  0.42738117  1  0  -0.402053  0  3.281753  0  0  -0.319437  0  3.587225  0  0  -0.341277  0  3.597238  0  0  -0.351568  -0.304689  0  3.580045  0
N  N69  1  0.86513443  0.18850386  0.57261870  1  0  -0.402038  0  3.281689  0  0  -0.319397  0  3.587143  0  0  -0.341227  0  3.597135  0  0  -0.351551  -0.304647  0  3.57996  0
N  N70  1  0.23961507  0.03209647  0.55624786  1  0  -0.259645  0  2.824528  0  0  -0.257671  0  3.085431  0  0  -0.266135  0  3.100721  0  0  -0.217823  -0.251625  0  3.074718  0
N  N71  1  0.76038578  0.96790393  0.44375202  1  0  -0.259608  0  2.824488  0  0  -0.25763  0  3.085394  0  0  -0.266093  0  3.100686  0  0  -0.217803  -0.251584  0  3.074681  0
N  N72  1  0.18810292  0.92963243  0.61446508  1  0  0.04629  0  3.53888  0  0  0.167708  0  3.725047  0  0  0.156239  0  3.749892  0  0  -0.129034  0.174024  0  3.710332  0
N  N73  1  0.81189677  0.07036797  0.38553454  1  0  0.046266  0  3.538873  0  0  0.167676  0  3.725055  0  0  0.156206  0  3.749899  0  0  -0.129042  0.173994  0  3.710337  0
N  N74  1  0.81122380  0.75425533  0.83593409  1  0  0.056702  0  3.548599  0  0  0.174726  0  3.739454  0  0  0.164615  0  3.763056  0  0  -0.128316  0.180136  0  3.72487  0
N  N75  1  0.18877589  0.24574507  0.16406639  1  0  0.056729  0  3.548612  0  0  0.174754  0  3.73947  0  0  0.164644  0  3.763072  0  0  -0.128317  0.180164  0  3.724888  0
N  N76  1  0.80889389  0.77698197  0.72339610  1  0  -0.270845  0  2.855758  0  0  -0.264543  0  3.124147  0  0  -0.273409  0  3.13813  0  0  -0.212957  -0.258227  0  3.115336  0
N  N77  1  0.19110580  0.22301843  0.27660437  1  0  -0.270862  0  2.85574  0  0  -0.26457  0  3.124137  0  0  -0.273436  0  3.13812  0  0  -0.212967  -0.258254  0  3.115328  0
N  N78  1  0.87872651  0.54184127  0.74874302  1  0  -0.405542  0  3.297152  0  0  -0.322087  0  3.603293  0  0  -0.343859  0  3.613971  0  0  -0.353305  -0.308424  0  3.596814  0
N  N79  1  0.12127435  0.45815913  0.25125771  1  0  -0.40554  0  3.297011  0  0  -0.322069  0  3.603127  0  0  -0.343849  0  3.613818  0  0  -0.353248  -0.308404  0  3.59665  0
Cl  Cl80  1  0.10612832  0.76976213  0.12671446  1  0  -0.594791  0  0.915987  0  0  -0.534639  0  1.1907  0  0  -0.548853  0  1.167146  0  0  -0.311224  -0.524111  0  1.207547  0
Cl  Cl81  1  0.89387264  0.23023942  0.87328644  1  0  -0.594794  0  0.916001  0  0  -0.534641  0  1.190708  0  0  -0.548851  0  1.167159  0  0  -0.311226  -0.524109  0  1.207554  0
O  O82  1  0.80350008  0.65208405  0.22805284  1  0  -0.665187  0  2.037312  0  0  -0.591477  0  2.311266  0  0  -0.620049  0  2.297063  0  0  -0.342214  -0.571656  0  2.319962  0
O  O83  1  0.19649950  0.34791520  0.77194661  1  0  -0.665208  0  2.037309  0  0  -0.591502  0  2.311264  0  0  -0.620065  0  2.297056  0  0  -0.34222  -0.571677  0  2.319958  0
O  O84  1  0.85906986  0.54874498  0.39545814  1  0  -0.627689  0  1.938064  0  0  -0.570979  0  2.166841  0  0  -0.594834  0  2.159033  0  0  -0.316833  -0.553751  0  2.170913  0
O  O85  1  0.14092993  0.45125656  0.60454165  1  0  -0.627726  0  1.938071  0  0  -0.570993  0  2.16683  0  0  -0.594849  0  2.15902  0  0  -0.31683  -0.553766  0  2.170899  0
