# generated using pymatgen
data_CuH42C40(N3O)4
_symmetry_space_group_name_H-M   'P 1'
_cell_length_a   10.47632175
_cell_length_b   11.86200516
_cell_length_c   17.01659931
_cell_angle_alpha   89.99906051
_cell_angle_beta   103.23442375
_cell_angle_gamma   90.00094892
_symmetry_Int_Tables_number   1
_chemical_formula_structural   CuH42C40(N3O)4
_chemical_formula_sum   'Cu2 H84 C80 N24 O8'
_cell_volume   2058.49388467
_cell_formula_units_Z   2
loop_
 _symmetry_equiv_pos_site_id
 _symmetry_equiv_pos_as_xyz
  1  'x, y, z'
loop_
 _atom_site_type_symbol
 _atom_site_label
 _atom_site_symmetry_multiplicity
 _atom_site_fract_x
 _atom_site_fract_y
 _atom_site_fract_z
 _atom_site_occupancy
 _atom_site_pbe_bader_charge
 _atom_site_pbe_bader_spin_density
 _atom_site_pbe_cm5_charge
 _atom_site_pbe_ddec_charge
 _atom_site_pbe_ddec_spin_density
 _atom_site_pbe_ddec_sum_bond_order
 _atom_site_pbe_magmom
Cu  Cu0  1  0.00000268  0.00000763  0.99999578  1  1.075132  0.5993  0.794923  0.722286  0.781809  2.34744  0.597
Cu  Cu1  1  0.99999994  0.50000030  0.49999660  1  1.075226  -0.599293  0.794958  0.722284  -0.781804  2.347451  -0.597
H  H2  1  0.82460618  0.21401951  0.93363222  1  0.192152  0.000666  0.136553  0.116649  0.000259  1.022554  0.001
H  H3  1  0.82461570  0.28599383  0.43363134  1  0.192244  -0.000666  0.136515  0.116634  -0.000259  1.022549  -0.001
H  H4  1  0.17538475  0.78598480  0.06635971  1  0.192253  0.000665  0.136549  0.11671  0.000259  1.022609  0.001
H  H5  1  0.17538308  0.71400627  0.56635817  1  0.192381  -0.000666  0.136551  0.116728  -0.000259  1.022583  -0.001
H  H6  1  0.58319512  0.07844055  0.84536498  1  0.063878  -2.4e-05  0.102283  0.106892  -3.4e-05  1.019525  0.0
H  H7  1  0.58316457  0.42156885  0.34536453  1  0.064138  2.4e-05  0.102283  0.10679  3.4e-05  1.019543  0.0
H  H8  1  0.41681640  0.92155956  0.15464102  1  0.063955  -2.4e-05  0.102308  0.106936  -3.4e-05  1.019554  0.0
H  H9  1  0.41682537  0.57843799  0.65464195  1  0.063997  2.4e-05  0.102269  0.106858  3.4e-05  1.019568  0.0
H  H10  1  0.75385308  0.94060018  0.07596414  1  0.135157  0.001012  0.116977  0.117646  0.000432  1.029595  0.001
H  H11  1  0.75384705  0.55939905  0.57596141  1  0.135461  -0.001013  0.116957  0.117624  -0.000433  1.029424  -0.001
H  H12  1  0.24615845  0.05940751  0.92403716  1  0.135465  0.001013  0.116996  0.117631  0.000433  1.02953  0.001
H  H13  1  0.24616546  0.44058672  0.42404415  1  0.135493  -0.001014  0.116985  0.117648  -0.000433  1.029509  -0.001
H  H14  1  0.61442544  0.32526917  0.91881519  1  0.075542  6.7e-05  0.119811  0.105423  2.7e-05  0.973891  0.0
H  H15  1  0.61441755  0.17473052  0.41881606  1  0.075593  -6.7e-05  0.119814  0.105412  -2.7e-05  0.973956  0.0
H  H16  1  0.38557725  0.67474020  0.08119191  1  0.075008  6.7e-05  0.119792  0.105395  2.7e-05  0.973832  0.0
H  H17  1  0.38557829  0.82526031  0.58118890  1  0.075155  -6.7e-05  0.119821  0.10542  -2.7e-05  0.973843  0.0
H  H18  1  0.51468541  0.29892555  0.98784321  1  0.114533  0.000322  0.118312  0.110765  0.000178  0.987354  0.0
H  H19  1  0.51469263  0.20107782  0.48785002  1  0.11527  -0.000322  0.11827  0.110709  -0.000178  0.98737  0.0
H  H20  1  0.48530847  0.70107793  0.01215854  1  0.114703  0.000322  0.118308  0.110713  0.000178  0.987475  0.0
H  H21  1  0.48530517  0.79892734  0.51215345  1  0.114939  -0.000322  0.118318  0.110744  -0.000178  0.987352  0.0
H  H22  1  0.30299453  0.32383496  0.88958241  1  0.103858  -2e-06  0.106435  0.122673  -3e-06  1.032196  0.0
H  H23  1  0.30298371  0.17615080  0.38958697  1  0.104041  2e-06  0.106402  0.122703  3e-06  1.032131  0.0
H  H24  1  0.69701308  0.67617695  0.11041187  1  0.104341  -2e-06  0.106443  0.122655  -3e-06  1.032161  0.0
H  H25  1  0.69701605  0.82384088  0.61041326  1  0.10418  2e-06  0.106435  0.122705  3e-06  1.032187  0.0
H  H26  1  0.53585763  0.08355580  0.04830570  1  0.129186  0.001187  0.120569  0.118978  0.000594  1.02949  0.001
H  H27  1  0.53584439  0.41644304  0.54829375  1  0.12899  -0.001188  0.120547  0.118911  -0.000594  1.029377  -0.001
H  H28  1  0.46416076  0.91645695  0.95170656  1  0.12872  0.001188  0.120578  0.119019  0.000594  1.029385  0.001
H  H29  1  0.46417008  0.58354357  0.45171502  1  0.128726  -0.001188  0.120576  0.119008  -0.000594  1.029438  -0.001
H  H30  1  0.36117754  0.96644020  0.66192387  1  0.093942  -4e-06  0.116552  0.103797  -2e-06  0.966047  0.0
H  H31  1  0.36114393  0.53355637  0.16192037  1  0.094027  4e-06  0.116539  0.103848  2e-06  0.966023  0.0
H  H32  1  0.63883790  0.03356833  0.33807681  1  0.094267  -4e-06  0.116538  0.103799  -2e-06  0.966223  0.0
H  H33  1  0.63883916  0.46644457  0.83808162  1  0.094147  4e-06  0.116595  0.10378  2e-06  0.96609  0.0
H  H34  1  0.52269163  0.96077213  0.72331836  1  0.070846  8e-06  0.117494  0.106179  7e-06  0.977403  0.0
H  H35  1  0.52265811  0.53922449  0.22331305  1  0.070838  -8e-06  0.117387  0.105954  -7e-06  0.977669  0.0
H  H36  1  0.47732185  0.03923387  0.27668557  1  0.070628  8e-06  0.117399  0.10608  7e-06  0.977524  0.0
H  H37  1  0.47732400  0.46078320  0.77668586  1  0.070677  -8e-06  0.117472  0.106049  -7e-06  0.977565  0.0
H  H38  1  0.18619882  0.07375378  0.70426013  1  0.06563  -2e-06  0.105485  0.110872  -1e-06  1.00166  0.0
H  H39  1  0.18616540  0.42622958  0.20426099  1  0.066594  2e-06  0.10545  0.110819  1e-06  1.001737  0.0
H  H40  1  0.81381270  0.92624464  0.29574117  1  0.065683  -2e-06  0.105461  0.110837  -1e-06  1.001701  0.0
H  H41  1  0.81382553  0.57375872  0.79573565  1  0.065901  2e-06  0.105432  0.110791  1e-06  1.001762  0.0
H  H42  1  0.02561898  0.18925965  0.74019257  1  0.061527  -2.5e-05  0.11078  0.09072  -1.2e-05  1.00009  0.0
H  H43  1  0.02560141  0.31072392  0.24019875  1  0.06133  2.5e-05  0.110842  0.090827  1.2e-05  1.000008  0.0
H  H44  1  0.97439157  0.81074214  0.25980330  1  0.061656  -2.5e-05  0.110795  0.09075  -1.2e-05  1.00003  0.0
H  H45  1  0.97439638  0.68927619  0.75980708  1  0.061308  2.5e-05  0.110825  0.090811  1.2e-05  0.999995  0.0
H  H46  1  0.06229637  0.27256180  0.83041524  1  0.188496  -0.00017  0.115757  0.120356  -8.7e-05  1.046863  0.0
H  H47  1  0.06228144  0.22741680  0.33042039  1  0.187949  0.00017  0.115754  0.120317  8.7e-05  1.046911  0.0
H  H48  1  0.93771124  0.72744673  0.16958081  1  0.188339  -0.00017  0.115749  0.120394  -8.7e-05  1.046863  0.0
H  H49  1  0.93772028  0.77257234  0.66958012  1  0.18814  0.00017  0.115773  0.12036  8.7e-05  1.046884  0.0
H  H50  1  0.16519628  0.47565401  0.81596587  1  0.166074  -0.001302  0.126724  0.141205  -0.000651  1.013114  -0.001
H  H51  1  0.16519979  0.02433148  0.31596361  1  0.166526  0.001302  0.126729  0.141201  0.000651  1.01318  0.001
H  H52  1  0.83481427  0.52434693  0.18402589  1  0.165888  -0.001302  0.126694  0.141275  -0.000651  1.013071  -0.001
H  H53  1  0.83480782  0.97567200  0.68402715  1  0.166226  0.001302  0.126755  0.141292  0.000651  1.013103  0.001
H  H54  1  0.13115959  0.61431913  0.67802224  1  0.086213  -0.000918  0.113405  0.101473  -0.000374  1.057914  -0.001
H  H55  1  0.13116182  0.88567289  0.17801919  1  0.086068  0.000919  0.113409  0.101457  0.000375  1.057765  0.001
H  H56  1  0.86882743  0.38568688  0.32197090  1  0.086295  -0.000917  0.113366  0.101465  -0.000374  1.05769  -0.001
H  H57  1  0.86883205  0.11432721  0.82197374  1  0.086086  0.000918  0.113389  0.101489  0.000374  1.057747  0.001
H  H58  1  0.00254706  0.28584759  0.60657367  1  0.159897  -0.000549  0.142389  0.114168  -0.00018  0.986573  0.0
H  H59  1  0.00252408  0.21414721  0.10658430  1  0.160017  0.000549  0.142332  0.114123  0.00018  0.98652  0.0
H  H60  1  0.99745270  0.71415504  0.39341775  1  0.159969  -0.000549  0.142368  0.114179  -0.00018  0.986549  0.0
H  H61  1  0.99746195  0.78585711  0.89341282  1  0.160169  0.000548  0.142312  0.114075  0.00018  0.986676  0.0
H  H62  1  0.75307695  0.83171640  0.93507041  1  0.011234  -0.000112  0.077857  0.120306  -9.2e-05  1.056386  0.0
H  H63  1  0.75307484  0.66826594  0.43507159  1  0.011036  0.000112  0.077967  0.12043  9.2e-05  1.056391  0.0
H  H64  1  0.24693163  0.16826178  0.06494281  1  0.011146  -0.000112  0.077936  0.120426  -9.2e-05  1.056253  0.0
H  H65  1  0.24692198  0.33173164  0.56492646  1  0.011026  0.000112  0.077927  0.120375  9.2e-05  1.056382  0.0
H  H66  1  0.76639080  0.68974088  0.90291501  1  0.037544  -3e-06  0.082784  0.129464  -3e-06  1.037596  0.0
H  H67  1  0.76638206  0.81024747  0.40291244  1  0.037491  3e-06  0.082802  0.129551  3e-06  1.037595  0.0
H  H68  1  0.23361876  0.31024236  0.09709542  1  0.037933  -3e-06  0.082834  0.129587  -3e-06  1.037403  0.0
H  H69  1  0.23360201  0.18974674  0.59708028  1  0.037416  3e-06  0.082804  0.12953  3e-06  1.037556  0.0
H  H70  1  0.66503567  0.71935493  0.96930237  1  0.006087  -6e-06  0.083082  0.13089  5e-06  1.043746  0.0
H  H71  1  0.66502843  0.78062111  0.46930623  1  0.005814  5e-06  0.083068  0.130862  -6e-06  1.043744  0.0
H  H72  1  0.33496997  0.28062410  0.03070574  1  0.006574  -5e-06  0.083094  0.130836  6e-06  1.043767  0.0
H  H73  1  0.33496741  0.21937309  0.53069286  1  0.006135  5e-06  0.083062  0.130859  -6e-06  1.043676  0.0
H  H74  1  0.17549199  0.86240673  0.73095142  1  0.103357  -7e-06  0.120561  0.12506  -9e-06  1.016391  0.0
H  H75  1  0.17546881  0.63758806  0.23095114  1  0.103965  7e-06  0.120603  0.125159  9e-06  1.016508  0.0
H  H76  1  0.82451366  0.13759927  0.26904259  1  0.103346  -7e-06  0.120526  0.125104  -9e-06  1.016419  0.0
H  H77  1  0.82451036  0.36240951  0.76905264  1  0.103665  7e-06  0.120598  0.125153  9e-06  1.016451  0.0
H  H78  1  0.21063263  0.67531179  0.83256032  1  0.072964  -4e-06  0.109749  0.100767  -5e-06  1.00922  0.0
H  H79  1  0.21061039  0.82468618  0.33255098  1  0.072666  4e-06  0.109783  0.100756  5e-06  1.00909  0.0
H  H80  1  0.78937203  0.32469927  0.16743943  1  0.073405  -4e-06  0.109745  0.100739  -5e-06  1.009098  0.0
H  H81  1  0.78936387  0.17530634  0.66745681  1  0.073195  4e-06  0.109765  0.100781  5e-06  1.00923  0.0
H  H82  1  0.58044374  0.80101091  0.81964895  1  0.080047  3e-06  0.125905  0.093249  6e-06  1.02079  0.0
H  H83  1  0.58042249  0.69898766  0.31964002  1  0.080269  -3e-06  0.125877  0.093179  -6e-06  1.020838  0.0
H  H84  1  0.41955798  0.19900521  0.18036036  1  0.079986  3e-06  0.125921  0.093297  6e-06  1.020847  0.0
H  H85  1  0.41955765  0.30101666  0.68036038  1  0.079998  -3e-06  0.125914  0.093189  -6e-06  1.020765  0.0
C  C86  1  0.45539303  0.20764340  0.87452242  1  -0.052857  -6e-06  -0.011273  0.099272  -5e-06  3.97886  0.0
C  C87  1  0.45537617  0.29235756  0.37452420  1  -0.05193  6e-06  -0.011285  0.099156  5e-06  3.979172  0.0
C  C88  1  0.54461653  0.79236850  0.12547919  1  -0.051657  -6e-06  -0.011338  0.099077  -5e-06  3.979092  0.0
C  C89  1  0.54462065  0.70763917  0.62547561  1  -0.051687  6e-06  -0.011326  0.099093  5e-06  3.979043  0.0
C  C90  1  0.77374487  0.15757468  0.96650684  1  0.953001  -0.001773  0.140102  0.080511  -0.000338  3.896731  0.0
C  C91  1  0.77375036  0.34243379  0.46650474  1  0.953038  0.001775  0.140164  0.080591  0.000339  3.896552  0.0
C  C92  1  0.22625293  0.84243133  0.03349194  1  0.953193  -0.001773  0.140135  0.080478  -0.000338  3.896844  0.0
C  C93  1  0.22625234  0.65756210  0.53349003  1  0.952562  0.001774  0.140138  0.08047  0.000339  3.896663  0.0
C  C94  1  0.48453090  0.11431926  0.83130636  1  -0.044273  -0.000209  -0.090689  -0.188993  -0.000143  3.938501  0.0
C  C95  1  0.48450273  0.38568230  0.33130901  1  -0.044771  0.000209  -0.090691  -0.188689  0.000143  3.938793  0.0
C  C96  1  0.51548062  0.88568759  0.16869612  1  -0.045557  -0.000209  -0.090591  -0.188697  -0.000143  3.93864  0.0
C  C97  1  0.51549016  0.61431275  0.66869554  1  -0.044966  0.000208  -0.090675  -0.188711  0.000143  3.938709  0.0
C  C98  1  0.73403081  0.01779440  0.04131654  1  0.433556  0.001006  -0.001904  -0.035081  0.001401  3.980429  0.001
C  C99  1  0.73402839  0.48220241  0.54131418  1  0.433733  -0.001006  -0.001863  -0.034958  -0.001401  3.980601  -0.001
C  C100  1  0.26597777  0.98220992  0.95868611  1  0.433369  0.001007  -0.001873  -0.034938  0.001401  3.980658  0.001
C  C101  1  0.26597921  0.51779010  0.45868891  1  0.433657  -0.001006  -0.001904  -0.03511  -0.001402  3.981078  -0.001
C  C102  1  0.55900484  0.25941622  0.94204918  1  0.29418  0.001289  -0.0374  -0.104439  0.000967  3.873425  0.001
C  C103  1  0.55899993  0.24058128  0.44204795  1  0.293388  -0.00129  -0.03733  -0.104219  -0.000967  3.873365  -0.001
C  C104  1  0.44099295  0.74058809  0.05795548  1  0.294584  0.001289  -0.037361  -0.104266  0.000967  3.873395  0.001
C  C105  1  0.44099689  0.75941293  0.55795245  1  0.294132  -0.001289  -0.03739  -0.10431  -0.000967  3.8734  -0.001
C  C106  1  0.32877432  0.25276999  0.85537060  1  -0.099248  -0.000122  -0.090564  -0.197111  -6.8e-05  3.913704  0.0
C  C107  1  0.32876558  0.24721863  0.35537874  1  -0.09948  0.000122  -0.090572  -0.197043  6.8e-05  3.913574  0.0
C  C108  1  0.67123230  0.74723770  0.14462296  1  -0.09964  -0.000122  -0.090632  -0.197093  -6.8e-05  3.913527  0.0
C  C109  1  0.67123712  0.75277557  0.64462307  1  -0.099255  0.000122  -0.090528  -0.197065  6.8e-05  3.913519  0.0
C  C110  1  0.62673339  0.08757456  0.02847434  1  0.271653  0.003891  -0.000127  -0.103464  0.002554  3.936735  0.003
C  C111  1  0.62673479  0.41242775  0.52846921  1  0.271444  -0.003893  -6.7e-05  -0.103332  -0.002555  3.936791  -0.003
C  C112  1  0.37326931  0.91243482  0.97153218  1  0.272644  0.003891  -0.00013  -0.103559  0.002554  3.937047  0.003
C  C113  1  0.37327183  0.58756224  0.47153375  1  0.272317  -0.003893  -0.000124  -0.103488  -0.002555  3.937061  -0.003
C  C114  1  0.38864316  0.06632319  0.76972105  1  -0.054234  3.3e-05  -0.009429  0.111929  2.3e-05  3.996961  0.0
C  C115  1  0.38861574  0.43367253  0.26972502  1  -0.054866  -3.3e-05  -0.009634  0.111469  -2.3e-05  3.99689  0.0
C  C116  1  0.61137229  0.93368113  0.23027904  1  -0.054693  3.3e-05  -0.009547  0.111535  2.3e-05  3.997061  0.0
C  C117  1  0.61138206  0.56632336  0.73027493  1  -0.054817  -3.3e-05  -0.00959  0.111498  -2.3e-05  3.997445  0.0
C  C118  1  0.41849096  0.96361658  0.72468024  1  0.286599  2e-06  -0.043082  -0.114502  3e-06  3.907941  0.0
C  C119  1  0.41846033  0.53638356  0.22467360  1  0.286876  -2e-06  -0.042933  -0.114132  -3e-06  3.90764  0.0
C  C120  1  0.58152350  0.03639111  0.27532265  1  0.286883  2e-06  -0.042982  -0.114256  3e-06  3.907908  0.0
C  C121  1  0.58152471  0.46362160  0.77532749  1  0.286965  -1e-06  -0.043116  -0.114251  -3e-06  3.907772  0.0
C  C122  1  0.23118581  0.20451593  0.79430153  1  0.001399  0.000125  -0.007631  0.116928  8.7e-05  3.977217  0.0
C  C123  1  0.23116311  0.29547102  0.29430892  1  0.000709  -0.000125  -0.007621  0.116722  -8.7e-05  3.977434  0.0
C  C124  1  0.76882767  0.79548923  0.20569770  1  0.00083  0.000125  -0.007486  0.116939  8.7e-05  3.977173  0.0
C  C125  1  0.76883664  0.70451644  0.70569307  1  0.000408  -0.000125  -0.007679  0.116749  -8.7e-05  3.977209  0.0
C  C126  1  0.26219439  0.11173808  0.75174386  1  0.018068  -0.000198  -0.090322  -0.205385  -0.000124  3.966406  0.0
C  C127  1  0.26216724  0.38825201  0.25174838  1  0.017124  0.000198  -0.090126  -0.205059  0.000124  3.966547  0.0
C  C128  1  0.73781910  0.88826708  0.24825831  1  0.018274  -0.000198  -0.090284  -0.20517  -0.000124  3.966416  0.0
C  C129  1  0.73782957  0.61173291  0.74825026  1  0.017819  0.000198  -0.090086  -0.205004  0.000124  3.966631  0.0
C  C130  1  0.09357124  0.25130911  0.77472878  1  0.248827  -0.001235  -0.052334  -0.130341  -0.000901  3.877024  -0.001
C  C131  1  0.09355272  0.24867041  0.27473377  1  0.249803  0.001235  -0.052398  -0.130437  0.000901  3.877369  0.001
C  C132  1  0.90643538  0.74869690  0.22526302  1  0.248913  -0.001236  -0.05236  -0.130338  -0.000902  3.876813  -0.001
C  C133  1  0.90644410  0.75132379  0.72526311  1  0.249491  0.001235  -0.052351  -0.130475  0.000901  3.877175  0.001
C  C134  1  0.12909115  0.45932506  0.75201509  1  0.345206  -0.004125  -0.004394  -0.125384  -0.00281  3.910001  -0.003
C  C135  1  0.12908706  0.04066226  0.25201627  1  0.34467  0.004125  -0.004481  -0.125435  0.00281  3.910003  0.003
C  C136  1  0.87091548  0.54067505  0.24797729  1  0.34501  -0.004125  -0.004472  -0.125627  -0.00281  3.910056  -0.003
C  C137  1  0.87091172  0.95933869  0.74797794  1  0.345185  0.004123  -0.004557  -0.125726  0.00281  3.909978  0.003
C  C138  1  0.11151969  0.52554388  0.68385435  1  0.371147  -0.001783  -0.006122  -0.038346  -0.00203  4.014724  -0.002
C  C139  1  0.11151448  0.97445194  0.18385276  1  0.371472  0.001782  -0.006166  -0.038379  0.002029  4.014601  0.002
C  C140  1  0.88847909  0.47445960  0.31613751  1  0.371643  -0.001783  -0.006117  -0.038227  -0.00203  4.014573  -0.002
C  C141  1  0.88848626  0.02555154  0.81613997  1  0.370944  0.001784  -0.006051  -0.038294  0.002029  4.014649  0.002
C  C142  1  0.04163096  0.35730162  0.64408495  1  0.953568  0.002197  0.143807  0.091187  0.000892  3.913197  0.001
C  C143  1  0.04160982  0.14269118  0.14409137  1  0.953589  -0.002197  0.143702  0.091197  -0.000892  3.913298  -0.001
C  C144  1  0.95836880  0.64270269  0.35590822  1  0.953764  0.002196  0.143733  0.091051  0.000892  3.91358  0.001
C  C145  1  0.95837818  0.85730893  0.85590367  1  0.953725  -0.002197  0.143692  0.091044  -0.000891  3.913554  -0.001
C  C146  1  0.87374634  0.72095665  0.02559044  1  1.571015  -0.000108  0.170525  0.663699  -3.9e-05  4.215611  0.0
C  C147  1  0.87374568  0.77903117  0.52559124  1  1.571469  0.000108  0.170668  0.663838  4e-05  4.215476  0.0
C  C148  1  0.12625733  0.27901901  0.97441681  1  1.57191  -0.000108  0.170493  0.66372  -4e-05  4.216934  0.0
C  C149  1  0.12625017  0.22097315  0.47439903  1  1.571701  0.000108  0.170599  0.663666  4e-05  4.215688  0.0
C  C150  1  0.75765927  0.74324803  0.95415152  1  -0.064122  -8.7e-05  -0.26641  -0.529542  -7.2e-05  3.933134  0.0
C  C151  1  0.75765166  0.75673477  0.45415267  1  -0.063678  8.7e-05  -0.266601  -0.529823  7.1e-05  3.933167  0.0
C  C152  1  0.24234343  0.25673100  0.04585793  1  -0.065177  -8.7e-05  -0.266543  -0.529763  -7.2e-05  3.933129  0.0
C  C153  1  0.24234025  0.24326281  0.54584175  1  -0.063657  8.7e-05  -0.266515  -0.529667  7.1e-05  3.93292  0.0
C  C154  1  0.26346041  0.82074792  0.76426293  1  0.276702  5.5e-05  -0.013997  -0.133945  3.1e-05  3.949132  0.0
C  C155  1  0.26343101  0.67924905  0.26425954  1  0.276403  -5.5e-05  -0.014028  -0.134119  -3.1e-05  3.949307  0.0
C  C156  1  0.73654818  0.17926230  0.23573678  1  0.277149  5.5e-05  -0.013881  -0.133924  3.1e-05  3.949303  0.0
C  C157  1  0.73654815  0.32074768  0.73574719  1  0.276176  -5.5e-05  -0.013956  -0.134048  -3.1e-05  3.949145  0.0
C  C158  1  0.28361541  0.72837354  0.81481136  1  0.397385  6e-06  -0.01574  -0.039046  -5e-06  4.080597  0.0
C  C159  1  0.28359235  0.77162000  0.31480487  1  0.396979  -6e-06  -0.015793  -0.038882  5e-06  4.080645  0.0
C  C160  1  0.71638827  0.27163752  0.18518942  1  0.396724  7e-06  -0.015778  -0.038957  -5e-06  4.080453  0.0
C  C161  1  0.71638289  0.22837504  0.68520071  1  0.397358  -6e-06  -0.01577  -0.039001  5e-06  4.080821  0.0
C  C162  1  0.47538668  0.78989745  0.81142515  1  0.99319  2.9e-05  0.123984  0.075852  2.6e-05  3.992703  0.0
C  C163  1  0.47536757  0.71009979  0.31141933  1  0.992599  -2.9e-05  0.12402  0.075974  -2.6e-05  3.992626  0.0
C  C164  1  0.52461602  0.21011446  0.18857843  1  0.992401  2.9e-05  0.123996  0.075892  2.6e-05  3.992723  0.0
C  C165  1  0.52461356  0.28990200  0.68858415  1  0.992252  -2.9e-05  0.123998  0.075874  -2.6e-05  3.992661  0.0
N  N166  1  0.82408004  0.06244311  0.00201893  1  -1.193685  0.090063  -0.372398  -0.272337  0.060619  3.653325  0.079
N  N167  1  0.82407497  0.43756436  0.50201965  1  -1.194027  -0.090062  -0.372447  -0.272301  -0.060618  3.653655  -0.079
N  N168  1  0.17592462  0.93756458  0.99797787  1  -1.194094  0.090061  -0.372485  -0.27236  0.060617  3.65351  0.079
N  N169  1  0.17592970  0.56242984  0.49797657  1  -1.193509  -0.090059  -0.372457  -0.272218  -0.060616  3.653734  -0.079
N  N170  1  0.65354163  0.17557480  0.98152535  1  -1.256236  0.00278  -0.245874  0.041294  0.001674  3.793223  0.002
N  N171  1  0.65353704  0.32442736  0.48151851  1  -1.256022  -0.002781  -0.245947  0.040899  -0.001674  3.792984  -0.002
N  N172  1  0.34646008  0.82443457  0.01847868  1  -1.256666  0.00278  -0.245907  0.041165  0.001674  3.793245  0.002
N  N173  1  0.34646664  0.67556769  0.51847992  1  -1.256688  -0.00278  -0.245914  0.041112  -0.001674  3.792976  -0.002
N  N174  1  0.08400870  0.35326877  0.72533526  1  -1.215958  -0.002173  -0.242447  0.053803  -0.001295  3.778233  -0.002
N  N175  1  0.08399644  0.14671683  0.22533936  1  -1.215952  0.002172  -0.242278  0.053976  0.001295  3.778571  0.002
N  N176  1  0.91599793  0.64673133  0.27465830  1  -1.215884  -0.002173  -0.242257  0.053893  -0.001295  3.77816  -0.002
N  N177  1  0.91599940  0.85328327  0.77465679  1  -1.215783  0.002172  -0.242233  0.054274  0.001295  3.778448  0.002
N  N178  1  0.05675962  0.46067243  0.61741098  1  -1.192783  -0.090529  -0.37192  -0.269896  -0.061177  3.632982  -0.079
N  N179  1  0.05674668  0.03932375  0.11741445  1  -1.193098  0.090529  -0.371836  -0.269902  0.061177  3.633009  0.079
N  N180  1  0.94323720  0.53933189  0.38258354  1  -1.193285  -0.090526  -0.371927  -0.26985  -0.061176  3.633065  -0.079
N  N181  1  0.94324523  0.96067804  0.88258408  1  -1.193218  0.090525  -0.371899  -0.269871  0.061175  3.632999  0.079
N  N182  1  0.38734253  0.85917994  0.76239930  1  -1.214916  6e-06  -0.251553  0.023285  4e-06  3.790398  0.0
N  N183  1  0.38731842  0.64081886  0.26239533  1  -1.215447  -6e-06  -0.251576  0.023064  -4e-06  3.790177  0.0
N  N184  1  0.61266703  0.14083196  0.23759996  1  -1.215171  6e-06  -0.251558  0.023026  4e-06  3.790748  0.0
N  N185  1  0.61266368  0.35918040  0.73760887  1  -1.215031  -6e-06  -0.251607  0.023177  -4e-06  3.790286  0.0
N  N186  1  0.41605651  0.70927115  0.84380317  1  -1.159629  2.1e-05  -0.362982  -0.339491  1.2e-05  3.303901  0.0
N  N187  1  0.41603767  0.79072532  0.34379470  1  -1.158349  -2.1e-05  -0.362914  -0.339423  -1.2e-05  3.303907  0.0
N  N188  1  0.58394717  0.29074244  0.15620231  1  -1.158626  2.1e-05  -0.363005  -0.339536  1.2e-05  3.303843  0.0
N  N189  1  0.58394444  0.20927226  0.65621067  1  -1.158411  -2.1e-05  -0.362983  -0.339403  -1.2e-05  3.304093  0.0
O  O190  1  0.87688035  0.62672092  0.06083998  1  -1.212895  -0.000249  -0.392388  -0.633564  -0.000148  2.040915  0.0
O  O191  1  0.87687526  0.87327370  0.56083261  1  -1.213001  0.00025  -0.392317  -0.633511  0.000148  2.04105  0.0
O  O192  1  0.12312235  0.37325305  0.93916713  1  -1.213214  -0.000249  -0.392317  -0.633526  -0.000148  2.041736  0.0
O  O193  1  0.12311568  0.12672809  0.43916108  1  -1.213235  0.00025  -0.392346  -0.63347  0.000148  2.041195  0.0
O  O194  1  0.95857178  0.79983071  0.04561837  1  -1.210434  -0.001525  -0.364362  -0.645567  -0.001018  2.162146  -0.001
O  O195  1  0.95856891  0.70015196  0.54561976  1  -1.210704  0.001525  -0.364472  -0.645677  0.001018  2.162057  0.001
O  O196  1  0.04143680  0.20014579  0.95438898  1  -1.210746  -0.001524  -0.364402  -0.645659  -0.001018  2.162734  -0.001
O  O197  1  0.04143576  0.29985910  0.45436940  1  -1.210878  0.001525  -0.364401  -0.645605  0.001018  2.162207  0.001
