# generated using pymatgen
data_HgH17C16S2NCl2
_symmetry_space_group_name_H-M   'P 1'
_cell_length_a   14.27627165
_cell_length_b   14.76127288
_cell_length_c   23.43174419
_cell_angle_alpha   100.51141291
_cell_angle_beta   90.02795870
_cell_angle_gamma   118.92061517
_symmetry_Int_Tables_number   1
_chemical_formula_structural   HgH17C16S2NCl2
_chemical_formula_sum   'Hg8 H136 C128 S16 N8 Cl16'
_cell_volume   4226.93823564
_cell_formula_units_Z   8
loop_
 _symmetry_equiv_pos_site_id
 _symmetry_equiv_pos_as_xyz
  1  'x, y, z'
loop_
 _atom_site_type_symbol
 _atom_site_label
 _atom_site_symmetry_multiplicity
 _atom_site_fract_x
 _atom_site_fract_y
 _atom_site_fract_z
 _atom_site_occupancy
 _atom_site_pbe_bader_charge
 _atom_site_pbe_bader_spin_density
 _atom_site_pbe_cm5_charge
 _atom_site_pbe_ddec_charge
 _atom_site_pbe_ddec_spin_density
 _atom_site_pbe_ddec_sum_bond_order
 _atom_site_pbe_magmom
Hg  Hg0  1  0.31908260  0.67070559  0.90983002  1  0.80887  0  0.479962  0.571811  0  2.648862  0
Hg  Hg1  1  0.64792429  0.32934171  0.59003720  1  0.809495  0  0.479781  0.572002  0  2.649478  0
Hg  Hg2  1  0.68090837  0.32929224  0.09016851  1  0.80877  0  0.479987  0.57183  0  2.648778  0
Hg  Hg3  1  0.35207937  0.67065770  0.40996535  1  0.809585  0  0.479796  0.571995  0  2.649527  0
Hg  Hg4  1  0.05747625  0.64120921  0.06530654  1  0.79745  0  0.495101  0.507146  0  2.622855  0
Hg  Hg5  1  0.41635745  0.35874597  0.43444693  1  0.795716  0  0.495387  0.50766  0  2.622977  0
Hg  Hg6  1  0.94252440  0.35879258  0.93469544  1  0.797463  0  0.495127  0.507186  0  2.622898  0
Hg  Hg7  1  0.58364540  0.64125740  0.56555395  1  0.795716  0  0.495403  0.507706  0  2.622925  0
H  H8  1  0.88106818  0.12078910  0.90483217  1  0.133064  0  0.084239  0.092173  0  1.101399  0
H  H9  1  0.75997612  0.87915429  0.59549666  1  0.10992  0  0.084555  0.092124  0  1.1009  0
H  H10  1  0.11893067  0.87921190  0.09516801  1  0.133034  0  0.084224  0.092129  0  1.101474  0
H  H11  1  0.24002654  0.12084591  0.40450300  1  0.109943  0  0.084537  0.092153  0  1.100865  0
H  H12  1  0.71945881  0.79157426  0.81975285  1  0.05084  0  0.096803  0.102526  0  1.044265  0
H  H13  1  0.92783063  0.20847677  0.68039943  1  0.05689  0  0.096732  0.102229  0  1.044923  0
H  H14  1  0.28053864  0.20842673  0.18024733  1  0.050532  0  0.096793  0.102496  0  1.044271  0
H  H15  1  0.07217303  0.79152264  0.31960227  1  0.056955  0  0.096715  0.102217  0  1.044907  0
H  H16  1  0.48783011  0.90031345  0.94504389  1  0.122029  0  0.089546  0.117013  0  1.039597  0
H  H17  1  0.58730222  0.09989737  0.55496584  1  0.104898  0  0.08919  0.116078  0  1.040224  0
H  H18  1  0.51217374  0.09968912  0.05495732  1  0.121773  0  0.08953  0.117015  0  1.039606  0
H  H19  1  0.41269926  0.90010047  0.44503312  1  0.104945  0  0.089164  0.116059  0  1.040219  0
H  H20  1  0.52252351  0.03731479  0.95535932  1  0.0649  0  0.090156  0.106302  0  1.05171  0
H  H21  1  0.48527660  0.96275970  0.54467501  1  0.065332  0  0.089804  0.10595  0  1.051348  0
H  H22  1  0.47747644  0.96268699  0.04464137  1  0.06494  0  0.090178  0.106333  0  1.05164  0
H  H23  1  0.51472566  0.03723971  0.45532584  1  0.065322  0  0.089811  0.105967  0  1.051354  0
H  H24  1  0.11836340  0.70998707  0.91907512  1  0.118961  0  0.100116  0.080233  0  1.032648  0
H  H25  1  0.40762836  0.28949979  0.58063021  1  0.113175  0  0.100101  0.080208  0  1.033096  0
H  H26  1  0.88163558  0.29000998  0.08091905  1  0.11904  0  0.100168  0.080296  0  1.032632  0
H  H27  1  0.59237131  0.71049724  0.41937378  1  0.113122  0  0.100166  0.080289  0  1.033018  0
H  H28  1  0.05584361  0.84021932  0.95153982  1  0.094354  0  0.100788  0.107637  0  1.031748  0
H  H29  1  0.21493530  0.15904655  0.54806961  1  0.084289  0  0.100931  0.107771  0  1.032579  0
H  H30  1  0.94415577  0.15977852  0.04845274  1  0.094395  0  0.100769  0.107629  0  1.031726  0
H  H31  1  0.78506508  0.84095048  0.45193480  1  0.084154  0  0.100873  0.107676  0  1.032654  0
H  H32  1  0.19472749  0.03523213  0.97668681  1  0.056215  0  0.110979  0.106409  0  0.991777  0
H  H33  1  0.15903952  0.96413466  0.52297479  1  0.088351  0  0.110985  0.106087  0  0.992145  0
H  H34  1  0.80527039  0.96476413  0.02330813  1  0.055961  0  0.11099  0.106434  0  0.991745  0
H  H35  1  0.84096086  0.03586237  0.47702835  1  0.08839  0  0.11101  0.106102  0  0.992168  0
H  H36  1  0.38768662  0.08770674  0.96692347  1  0.123324  0  0.095704  0.12322  0  1.04083  0
H  H37  1  0.29972245  0.91191273  0.53288989  1  0.118575  0  0.096013  0.12375  0  1.03998  0
H  H38  1  0.61231354  0.91229268  0.03307524  1  0.123298  0  0.095709  0.123185  0  1.040811  0
H  H39  1  0.70027903  0.08808509  0.46711291  1  0.118616  0  0.096046  0.123795  0  1.039994  0
H  H40  1  0.97035471  0.05576457  0.95333555  1  0.04483  0  0.083044  0.122416  0  1.037245  0
H  H41  1  0.91400487  0.94386575  0.54692499  1  0.036829  0  0.083045  0.122841  0  1.037665  0
H  H42  1  0.02964625  0.94423643  0.04666378  1  0.044829  0  0.08306  0.122422  0  1.03722  0
H  H43  1  0.08599850  0.05613446  0.45307467  1  0.036812  0  0.083043  0.122833  0  1.037641  0
H  H44  1  0.04374952  0.98890376  0.93198240  1  0.032571  0  0.084683  0.113778  0  1.045118  0
H  H45  1  0.05431507  0.01058214  0.56813080  1  -0.003731  0  0.085275  0.11424  0  1.044649  0
H  H46  1  0.95625034  0.01109645  0.06801641  1  0.03256  0  0.08466  0.113737  0  1.045144  0
H  H47  1  0.94568619  0.98941806  0.43186971  1  -0.003694  0  0.085297  0.114285  0  1.04458  0
H  H48  1  0.90930700  0.91661454  0.94947636  1  0.021389  0  0.085013  0.117365  0  1.005873  0
H  H49  1  0.99226288  0.08294857  0.55056559  1  0.025078  0  0.085077  0.117353  0  1.007058  0
H  H50  1  0.09069326  0.08338646  0.05052382  1  0.021383  0  0.085005  0.117342  0  1.005841  0
H  H51  1  0.00774158  0.91705242  0.44943502  1  0.025075  0  0.085118  0.117389  0  1.007048  0
H  H52  1  0.97523049  0.04427860  0.79220963  1  0.00949  0  0.08118  0.113008  0  1.039956  0
H  H53  1  0.93112945  0.95586070  0.70804300  1  0.001508  0  0.081008  0.112567  0  1.040337  0
H  H54  1  0.02476836  0.95572239  0.20779012  1  0.009331  0  0.081173  0.113018  0  1.039939  0
H  H55  1  0.06887172  0.04413792  0.29195648  1  0.00156  0  0.081012  0.112604  0  1.0403  0
H  H56  1  0.08182697  0.05241457  0.83620574  1  0.009879  0  0.086412  0.123136  0  0.998382  0
H  H57  1  0.02945023  0.94766338  0.66400856  1  0.03329  0  0.086527  0.123432  0  0.99793  0
H  H58  1  0.91817189  0.94758642  0.16379444  1  0.009845  0  0.086416  0.123127  0  0.99841  0
H  H59  1  0.97055124  0.05233445  0.33599083  1  0.033241  0  0.086558  0.123504  0  0.997896  0
H  H60  1  0.02065914  0.12975473  0.86236950  1  0.071246  0  0.077141  0.121362  0  1.0498  0
H  H61  1  0.89087147  0.87026639  0.63791578  1  0.046804  0  0.077272  0.121622  0  1.048811  0
H  H62  1  0.97933892  0.87024468  0.13763049  1  0.071262  0  0.077141  0.121344  0  1.049839  0
H  H63  1  0.10912870  0.12973302  0.36208294  1  0.046841  0  0.077274  0.121643  0  1.048802  0
H  H64  1  0.86229525  0.78998039  0.85113774  1  0.003798  0  0.083959  0.111065  0  1.0253  0
H  H65  1  0.07229132  0.20993217  0.64884054  1  0.013758  0  0.083567  0.1109  0  1.02528  0
H  H66  1  0.13770281  0.21001902  0.14886226  1  0.003801  0  0.083972  0.111075  0  1.025326  0
H  H67  1  0.92771164  0.79006724  0.35115988  1  0.013715  0  0.083593  0.110973  0  1.025335  0
H  H68  1  0.99675110  0.86404225  0.83500697  1  0.047924  0  0.087655  0.121421  0  1.014002  0
H  H69  1  0.13270684  0.13587262  0.66494762  1  0.008056  0  0.087465  0.120978  0  1.013639  0
H  H70  1  0.00324696  0.13595716  0.16499260  1  0.048267  0  0.087643  0.121391  0  1.014011  0
H  H71  1  0.86729503  0.86412600  0.33505271  1  0.008113  0  0.087484  0.121042  0  1.013652  0
H  H72  1  0.88853995  0.83906333  0.78546547  1  -0.00072  0  0.086627  0.121483  0  1.006247  0
H  H73  1  0.04983372  0.16107970  0.71459121  1  0.032146  0  0.086711  0.121385  0  1.006323  0
H  H74  1  0.11145851  0.16093688  0.21453376  1  -0.000692  0  0.086631  0.121495  0  1.006251  0
H  H75  1  0.95016964  0.83892051  0.28540930  1  0.032116  0  0.086727  0.121411  0  1.006333  0
H  H76  1  0.57461291  0.26329909  0.71826441  1  0.103009  0  0.088239  0.0959  0  1.076572  0
H  H77  1  0.31127277  0.73694992  0.78191963  1  0.104963  0  0.0885  0.096308  0  1.076532  0
H  H78  1  0.42538686  0.73669953  0.28173550  1  0.103289  0  0.088239  0.095901  0  1.076577  0
H  H79  1  0.68872367  0.26305187  0.21808192  1  0.105078  0  0.088478  0.096284  0  1.076615  0
H  H80  1  0.53596973  0.19314816  0.89009992  1  0.093615  0  0.095386  0.107764  0  1.051267  0
H  H81  1  0.34261365  0.80705049  0.61005715  1  0.102119  0  0.095973  0.108587  0  1.050322  0
H  H82  1  0.46402961  0.80685521  0.10990096  1  0.093459  0  0.095378  0.10776  0  1.051287  0
H  H83  1  0.65738678  0.19295367  0.38994424  1  0.102045  0  0.095953  0.108565  0  1.050352  0
H  H84  1  0.03439698  0.38082137  0.81523036  1  0.114042  0  0.096842  0.143769  0  0.997438  0
H  H85  1  0.65349666  0.61931576  0.68503295  1  0.108305  0  0.097063  0.144225  0  0.996435  0
H  H86  1  0.96560081  0.61917329  0.18477079  1  0.114182  0  0.096839  0.143785  0  0.99738  0
H  H87  1  0.34650636  0.38069078  0.31496744  1  0.108268  0  0.09706  0.144172  0  0.9965  0
H  H88  1  0.95950366  0.35714924  0.74772121  1  0.054773  0  0.09269  0.112024  0  1.032198  0
H  H89  1  0.60221436  0.64293664  0.75248341  1  0.049401  0  0.092766  0.112206  0  1.031564  0
H  H90  1  0.04049720  0.64285017  0.25228049  1  0.054737  0  0.092621  0.111917  0  1.032328  0
H  H91  1  0.39778419  0.35706515  0.24751601  1  0.049372  0  0.092761  0.112202  0  1.031544  0
H  H92  1  0.87650152  0.53393547  0.94975577  1  0.161861  0  0.096559  0.087204  0  1.064906  0
H  H93  1  0.34258752  0.46583613  0.55028863  1  0.165053  0  0.096882  0.088098  0  1.064123  0
H  H94  1  0.12349645  0.46606235  0.05024404  1  0.161892  0  0.096572  0.087223  0  1.064882  0
H  H95  1  0.65741186  0.53416170  0.44971033  1  0.165105  0  0.096854  0.088042  0  1.06411  0
H  H96  1  0.84649132  0.64765289  0.89380583  1  0.086391  0  0.110421  0.11553  0  0.997281  0
H  H97  1  0.19885483  0.35206264  0.60620114  1  0.069295  0  0.110418  0.115527  0  0.996802  0
H  H98  1  0.15351064  0.35234731  0.10619425  1  0.086395  0  0.110406  0.115472  0  0.99735  0
H  H99  1  0.80114713  0.64793756  0.39379767  1  0.06925  0  0.110416  0.115556  0  0.996753  0
H  H100  1  0.86663564  0.62401667  0.78529440  1  0.072075  0  0.11164  0.108427  0  0.98435  0
H  H101  1  0.24249467  0.37596778  0.71475782  1  0.065639  0  0.111013  0.107922  0  0.984938  0
H  H102  1  0.13336464  0.37597879  0.21470514  1  0.071894  0  0.111627  0.108386  0  0.984368  0
H  H103  1  0.75750519  0.62403242  0.28524141  1  0.065638  0  0.111055  0.108012  0  0.984941  0
H  H104  1  0.91787395  0.48945096  0.73993346  1  0.081766  0  0.108944  0.120324  0  1.012187  0
H  H105  1  0.42823280  0.51076734  0.76024118  1  0.081467  0  0.109037  0.119798  0  1.012918  0
H  H106  1  0.08212484  0.51054291  0.26006760  1  0.081758  0  0.108944  0.120329  0  1.012089  0
H  H107  1  0.57176715  0.48923444  0.23975781  1  0.081601  0  0.109052  0.11981  0  1.012891  0
H  H108  1  0.51436503  0.38855199  0.77326807  1  0.037985  0  0.077239  0.117829  0  1.037812  0
H  H109  1  0.12549412  0.61150915  0.72682397  1  0.042964  0  0.077245  0.117884  0  1.037102  0
H  H110  1  0.48563912  0.61144980  0.22673348  1  0.038012  0  0.077221  0.117851  0  1.037755  0
H  H111  1  0.87450325  0.38849027  0.27317474  1  0.04331  0  0.07723  0.117856  0  1.037145  0
H  H112  1  0.51918725  0.40470846  0.85068863  1  0.019548  0  0.087676  0.125123  0  0.993588  0
H  H113  1  0.11413431  0.59528651  0.64939949  1  0.033651  0  0.087713  0.125027  0  0.993744  0
H  H114  1  0.48081672  0.59529016  0.14931298  1  0.019504  0  0.087679  0.125108  0  0.993544  0
H  H115  1  0.88586454  0.40471449  0.35059855  1  0.033603  0  0.087723  0.125036  0  0.9937  0
H  H116  1  0.39605217  0.36352811  0.80879340  1  0.013139  0  0.084958  0.11772  0  1.004332  0
H  H117  1  0.03224977  0.63654318  0.69120393  1  0.006321  0  0.08508  0.118274  0  1.003933  0
H  H118  1  0.60395405  0.63647922  0.19120879  1  0.013087  0  0.084961  0.117724  0  1.004281  0
H  H119  1  0.96774979  0.36345782  0.30879369  1  0.006351  0  0.085096  0.118303  0  1.003894  0
H  H120  1  0.29756608  0.20062080  0.85029239  1  0.017803  0  0.086599  0.120159  0  1.004936  0
H  H121  1  0.09678705  0.79939280  0.64960915  1  0.024968  0  0.086896  0.120822  0  1.004779  0
H  H122  1  0.70243189  0.79937703  0.14970913  1  0.01794  0  0.086599  0.120168  0  1.004916  0
H  H123  1  0.90321330  0.20060979  0.35038865  1  0.024979  0  0.086896  0.120859  0  1.004768  0
H  H124  1  0.41521233  0.24262953  0.89684854  1  0.040026  0  0.084401  0.126084  0  1.01108  0
H  H125  1  0.17245433  0.75729097  0.60319346  1  0.021035  0  0.084691  0.126693  0  1.010224  0
H  H126  1  0.58478674  0.75736909  0.10315136  1  0.039997  0  0.084398  0.126099  0  1.011076  0
H  H127  1  0.82754812  0.24271160  0.39680604  1  0.021279  0  0.084737  0.126755  0  1.010212  0
H  H128  1  0.34984360  0.11334041  0.85150721  1  0.004088  0  0.081222  0.111742  0  1.024999  0
H  H129  1  0.23638979  0.88663315  0.64846774  1  0.044974  0  0.081341  0.112299  0  1.024267  0
H  H130  1  0.65015647  0.88665742  0.14849133  1  0.004108  0  0.081179  0.111696  0  1.025135  0
H  H131  1  0.76361156  0.11336864  0.35153125  1  0.045049  0  0.081321  0.1123  0  1.024324  0
H  H132  1  0.34860671  0.09080353  0.73923812  1  0.008168  0  0.083311  0.116671  0  1.017508  0
H  H133  1  0.25756890  0.90929337  0.76073782  1  0.014288  0  0.083324  0.116506  0  1.017612  0
H  H134  1  0.65139004  0.90919747  0.26076248  1  0.008126  0  0.083328  0.116707  0  1.017557  0
H  H135  1  0.74242895  0.09070841  0.23926159  1  0.01436  0  0.083332  0.116534  0  1.017602  0
H  H136  1  0.40803596  0.20446384  0.70769768  1  0.061378  0  0.082374  0.119767  0  1.02644  0
H  H137  1  0.20338092  0.79571087  0.79235631  1  0.027665  0  0.082301  0.119577  0  1.025664  0
H  H138  1  0.59196219  0.79553716  0.29230335  1  0.061361  0  0.082377  0.119776  0  1.026445  0
H  H139  1  0.79661623  0.20429092  0.20764396  1  0.027564  0  0.082312  0.119627  0  1.025622  0
H  H140  1  0.29269333  0.17659344  0.74554951  1  0.002221  0  0.083615  0.114441  0  1.012208  0
H  H141  1  0.11585899  0.82346935  0.75441787  1  0.009548  0  0.08316  0.113911  0  1.01244  0
H  H142  1  0.70730592  0.82340835  0.25445075  1  0.00229  0  0.08364  0.114481  0  1.012185  0
H  H143  1  0.88413706  0.17653165  0.24558103  1  0.00964  0  0.08319  0.113995  0  1.012387  0
C  C144  1  0.62055224  0.86387184  0.83492283  1  -0.126427  0  -0.011378  0.038971  0  4.010804  0
C  C145  1  0.75662039  0.13620709  0.66522624  1  -0.154552  0  -0.011045  0.039777  0  4.010687  0
C  C146  1  0.37944640  0.13613153  0.16507634  1  -0.126297  0  -0.01138  0.038988  0  4.010935  0
C  C147  1  0.24338337  0.86379391  0.33477479  1  -0.154541  0  -0.011  0.039873  0  4.010666  0
C  C148  1  0.61498360  0.95656219  0.85648265  1  -0.068855  0  -0.011307  -0.014288  0  3.954989  0
C  C149  1  0.65829698  0.04353059  0.64364916  1  -0.048778  0  -0.011291  -0.015128  0  3.954911  0
C  C150  1  0.38501504  0.04344118  0.14351652  1  -0.068158  0  -0.011347  -0.014358  0  3.955031  0
C  C151  1  0.34170748  0.95647040  0.35635187  1  -0.04888  0  -0.011237  -0.015092  0  3.955  0
C  C152  1  0.71169065  0.04953388  0.88137418  1  -0.151635  0  -0.012472  0.033292  0  3.973205  0
C  C153  1  0.66196450  0.95050904  0.61884446  1  -0.114074  0  -0.01316  0.032826  0  3.972843  0
C  C154  1  0.28830830  0.95046870  0.11862533  1  -0.151884  0  -0.012469  0.033277  0  3.97321  0
C  C155  1  0.33803847  0.04949037  0.38115596  1  -0.11406  0  -0.013137  0.032923  0  3.972955  0
C  C156  1  0.80848429  0.04805222  0.88467081  1  -0.054964  0  -0.094329  -0.164441  0  3.961775  0
C  C157  1  0.76020551  0.95193427  0.61562066  1  -0.041498  0  -0.093721  -0.162964  0  3.96043  0
C  C158  1  0.19151527  0.95194877  0.11532723  1  -0.05524  0  -0.094279  -0.164356  0  3.961809  0
C  C159  1  0.23979864  0.04806752  0.38437918  1  -0.04155  0  -0.093745  -0.163113  0  3.960593  0
C  C160  1  0.81446333  0.95648037  0.86186993  1  -0.064137  0  0.000754  0.091784  0  3.857769  0
C  C161  1  0.85786298  0.04351217  0.63836125  1  -0.046848  0  0.000694  0.09081  0  3.857367  0
C  C162  1  0.18553623  0.04352062  0.13812939  1  -0.063753  0  0.000749  0.091757  0  3.857803  0
C  C163  1  0.14213868  0.95648883  0.36163935  1  -0.046418  0  0.000708  0.0908  0  3.85725  0
C  C164  1  0.71910653  0.86478846  0.83748025  1  0.05606  0  -0.094516  -0.175602  0  3.980964  0
C  C165  1  0.85422872  0.13522470  0.66269891  1  0.042798  0  -0.094592  -0.175612  0  3.980968  0
C  C166  1  0.28089202  0.13521333  0.16251916  1  0.056218  0  -0.094507  -0.175555  0  3.981058  0
C  C167  1  0.14577574  0.86477630  0.33730084  1  0.042487  0  -0.094594  -0.175596  0  3.980974  0
C  C168  1  0.46848221  0.95678376  0.93081432  1  -0.145744  0  -0.155299  -0.274606  0  3.925131  0
C  C169  1  0.51155449  0.04326585  0.56917418  1  -0.10868  0  -0.154325  -0.27238  0  3.922337  0
C  C170  1  0.53151914  0.04321802  0.06918723  1  -0.145695  0  -0.155279  -0.27463  0  3.92513  0
C  C171  1  0.48844847  0.95673356  0.43082624  1  -0.108789  0  -0.154282  -0.272357  0  3.922317  0
C  C172  1  0.35355620  0.92669542  0.93721763  1  0.543122  0  0.114064  0.266955  0  3.964413  0
C  C173  1  0.42648052  0.07302172  0.56263828  1  0.511403  0  0.113724  0.26732  0  3.963808  0
C  C174  1  0.64644457  0.07330241  0.06278347  1  0.543133  0  0.113997  0.266848  0  3.964421  0
C  C175  1  0.57352135  0.92697690  0.43736290  1  0.51137  0  0.113693  0.267288  0  3.963774  0
C  C176  1  0.17515624  0.79467375  0.92883892  1  0.52912  0  0.037835  0.092891  0  3.966869  0
C  C177  1  0.37986727  0.20485164  0.57085726  1  0.485179  0  0.037858  0.093062  0  3.967644  0
C  C178  1  0.82484183  0.20532567  0.07115851  1  0.529099  0  0.037779  0.092752  0  3.966758  0
C  C179  1  0.62013491  0.79514619  0.42914554  1  0.485544  0  0.037802  0.092916  0  3.967564  0
C  C180  1  0.14076490  0.86803733  0.94705779  1  -0.084298  0  -0.088873  -0.136558  0  3.986402  0
C  C181  1  0.27214491  0.13136150  0.55257533  1  -0.037798  0  -0.088819  -0.137423  0  3.989347  0
C  C182  1  0.85923268  0.13195972  0.05293766  1  -0.084263  0  -0.08885  -0.136422  0  3.986321  0
C  C183  1  0.72785687  0.86863553  0.44742781  1  -0.037733  0  -0.088788  -0.137321  0  3.989325  0
C  C184  1  0.21750018  0.97507916  0.96112183  1  -0.009719  0  -0.066399  -0.016939  0  3.965918  0
C  C185  1  0.24195954  0.02436016  0.53856471  1  -0.04377  0  -0.066054  -0.015179  0  3.966065  0
C  C186  1  0.78249968  0.02492105  0.03887612  1  -0.009532  0  -0.066397  -0.01706  0  3.966115  0
C  C187  1  0.75804333  0.97563767  0.46143724  1  -0.044143  0  -0.066117  -0.015246  0  3.966216  0
C  C188  1  0.32510675  0.00483575  0.95570590  1  -0.082168  0  -0.085504  -0.16786  0  3.904515  0
C  C189  1  0.31990272  0.99475459  0.54407133  1  -0.063104  0  -0.085926  -0.16972  0  3.904904  0
C  C190  1  0.67489402  0.99516208  0.04429391  1  -0.082086  0  -0.085447  -0.167674  0  3.904468  0
C  C191  1  0.68009866  0.00524165  0.45592958  1  -0.062817  0  -0.085935  -0.169763  0  3.905088  0
C  C192  1  0.92353698  0.96088065  0.86435429  1  0.092055  0  -0.011461  0.242408  0  3.798749  0
C  C193  1  0.96255023  0.03908794  0.63581585  1  0.069136  0  -0.011656  0.24342  0  3.795702  0
C  C194  1  0.07646227  0.03912113  0.13564512  1  0.092037  0  -0.011455  0.242424  0  3.798763  0
C  C195  1  0.03745234  0.96091068  0.36418405  1  0.069092  0  -0.011602  0.243504  0  3.795581  0
C  C196  1  0.96370065  0.98171724  0.92881480  1  -0.094242  0  -0.244338  -0.415063  0  3.880287  0
C  C197  1  0.98157031  0.01796046  0.57132412  1  -0.0529  0  -0.244958  -0.416021  0  3.880875  0
C  C198  1  0.03629811  0.01828217  0.07118519  1  -0.094253  0  -0.244314  -0.41499  0  3.88026  0
C  C199  1  0.01843204  0.98204053  0.42867563  1  -0.052881  0  -0.245035  -0.416113  0  3.880841  0
C  C200  1  0.00482919  0.05252993  0.83714311  1  -0.07637  0  -0.245726  -0.415777  0  3.875309  0
C  C201  1  0.95232876  0.94753021  0.66309927  1  -0.066707  0  -0.24586  -0.416271  0  3.87408  0
C  C202  1  0.99516967  0.94747106  0.16285707  1  -0.076197  0  -0.245729  -0.415768  0  3.875338  0
C  C203  1  0.04767311  0.05246841  0.33690021  1  -0.066654  0  -0.245895  -0.416388  0  3.874026  0
C  C204  1  0.91671953  0.85732429  0.83198600  1  -0.057474  0  -0.243823  -0.421191  0  3.918926  0
C  C205  1  0.05944779  0.14266637  0.66804930  1  -0.06233  0  -0.243347  -0.420666  0  3.917264  0
C  C206  1  0.08327863  0.14267670  0.16801375  1  -0.057851  0  -0.243848  -0.421207  0  3.918944  0
C  C207  1  0.94055298  0.85733146  0.33195051  1  -0.062328  0  -0.24345  -0.420898  0  3.917409  0
C  C208  1  0.67508403  0.20296877  0.85168373  1  -0.145486  0  -0.017579  0.021508  0  4.022232  0
C  C209  1  0.47186969  0.79715670  0.64850435  1  -0.129147  0  -0.016904  0.021834  0  4.025108  0
C  C210  1  0.32491592  0.79703302  0.14831611  1  -0.145797  0  -0.017552  0.02157  0  4.022117  0
C  C211  1  0.52813153  0.20284904  0.35149766  1  -0.129106  0  -0.016926  0.021881  0  4.025139  0
C  C212  1  0.73796899  0.22360993  0.80419435  1  -0.158711  0  -0.020448  -0.036715  0  3.976442  0
C  C213  1  0.51414031  0.77646222  0.69599126  1  -0.115185  0  -0.020645  -0.036399  0  3.976725  0
C  C214  1  0.26202859  0.77638710  0.19580622  1  -0.158553  0  -0.020434  -0.036729  0  3.976383  0
C  C215  1  0.48585675  0.22353798  0.30401011  1  -0.115132  0  -0.020653  -0.036416  0  3.976664  0
C  C216  1  0.69673521  0.24183055  0.75521144  1  -0.11623  0  -0.015297  0.0347  0  3.995056  0
C  C217  1  0.45479349  0.75833323  0.74497834  1  -0.158418  0  -0.015259  0.035079  0  3.994232  0
C  C218  1  0.30326048  0.75816411  0.24478886  1  -0.116529  0  -0.015371  0.03465  0  3.995049  0
C  C219  1  0.54520545  0.24166934  0.25502416  1  -0.158444  0  -0.01524  0.035072  0  3.994186  0
C  C220  1  0.60214357  0.24792513  0.75676278  1  0.005841  0  -0.08927  -0.153482  0  3.963242  0
C  C221  1  0.35409912  0.75226725  0.74341280  1  -0.000782  0  -0.08938  -0.15442  0  3.962363  0
C  C222  1  0.39785620  0.75207349  0.24323627  1  0.005713  0  -0.089252  -0.153462  0  3.963158  0
C  C223  1  0.64589842  0.24773532  0.25658756  1  -0.000472  0  -0.089324  -0.154293  0  3.962472  0
C  C224  1  0.54252693  0.23289238  0.80502356  1  0.014517  0  7.7e-05  0.08776  0  3.84441  0
C  C225  1  0.30941331  0.76721176  0.69511564  1  0.018526  0  -0.000253  0.086866  0  3.846329  0
C  C226  1  0.45747183  0.76710703  0.19497643  1  0.014626  0  9.4e-05  0.087813  0  3.844402  0
C  C227  1  0.69058673  0.23279161  0.30488523  1  0.018327  0  -0.000238  0.086867  0  3.84648  0
C  C228  1  0.58009079  0.20888593  0.85200504  1  0.022081  0  -0.089651  -0.163154  0  3.972165  0
C  C229  1  0.37098579  0.79125704  0.64815424  1  -0.005007  0  -0.090457  -0.163567  0  3.974657  0
C  C230  1  0.41991026  0.79111665  0.14799574  1  0.022559  0  -0.089672  -0.163233  0  3.972145  0
C  C231  1  0.62901534  0.20874712  0.35184673  1  -0.00496  0  -0.090436  -0.163585  0  3.974843  0
C  C232  1  0.95545893  0.36067496  0.79468919  1  -0.093663  0  -0.154504  -0.286244  0  3.93258  0
C  C233  1  0.59464362  0.63940455  0.70551125  1  -0.085943  0  -0.154354  -0.285948  0  3.931263  0
C  C234  1  0.04454044  0.63932287  0.20531318  1  -0.093814  0  -0.154404  -0.28607  0  3.932313  0
C  C235  1  0.40535563  0.36059724  0.29448859  1  -0.08594  0  -0.154391  -0.285892  0  3.93123  0
C  C236  1  0.92525537  0.44228579  0.82060415  1  0.487516  0  0.120234  0.262628  0  3.958512  0
C  C237  1  0.48285178  0.55773283  0.67955236  1  0.498339  0  0.119652  0.260885  0  3.962309  0
C  C238  1  0.07474291  0.55771124  0.17939642  1  0.487493  0  0.120271  0.26268  0  3.958451  0
C  C239  1  0.51714917  0.44226817  0.32044696  1  0.49822  0  0.119696  0.260916  0  3.962337  0
C  C240  1  0.88524971  0.52756534  0.90319901  1  0.488998  0  0.048888  0.103693  0  3.908181  0
C  C241  1  0.35767754  0.47226102  0.59685441  1  0.460228  0  0.049103  0.102987  0  3.907492  0
C  C242  1  0.11474866  0.47243328  0.09680132  1  0.489196  0  0.048933  0.103747  0  3.90809  0
C  C243  1  0.64232262  0.52773840  0.40314431  1  0.460219  0  0.049116  0.103008  0  3.907568  0
C  C244  1  0.86863336  0.59041901  0.87140570  1  -0.025923  0  -0.080113  -0.125837  0  3.960643  0
C  C245  1  0.27821439  0.40940358  0.62862787  1  0.029495  0  -0.080108  -0.125236  0  3.960172  0
C  C246  1  0.13136921  0.40957961  0.12859420  1  -0.026133  0  -0.080165  -0.125803  0  3.960548  0
C  C247  1  0.72178468  0.59059504  0.37137160  1  0.029553  0  -0.080171  -0.125284  0  3.960188  0
C  C248  1  0.88033839  0.57738860  0.81192325  1  -0.049888  0  -0.058985  -0.006726  0  3.949858  0
C  C249  1  0.30286432  0.42258852  0.68815236  1  -0.052031  0  -0.058721  -0.007123  0  3.950666  0
C  C250  1  0.11966348  0.42261002  0.18807665  1  -0.049838  0  -0.058979  -0.006745  0  3.949771  0
C  C251  1  0.69713593  0.57741248  0.31184739  1  -0.052069  0  -0.058757  -0.007267  0  3.950711  0
C  C252  1  0.90894581  0.50249793  0.78636244  1  0.072127  0  -0.077638  -0.16389  0  3.922642  0
C  C253  1  0.40629648  0.49760420  0.71378736  1  0.050171  0  -0.077049  -0.161792  0  3.922521  0
C  C254  1  0.09105317  0.49749911  0.21363771  1  0.072158  0  -0.077617  -0.163816  0  3.922495  0
C  C255  1  0.59370447  0.50239679  0.28621239  1  0.050133  0  -0.076999  -0.161718  0  3.922516  0
C  C256  1  0.43867434  0.23935876  0.80378059  1  0.091678  0  -0.009379  0.244475  0  3.78392  0
C  C257  1  0.19907471  0.76069198  0.69628434  1  0.08541  0  -0.009518  0.245087  0  3.783994  0
C  C258  1  0.56132451  0.76064224  0.19621916  1  0.091486  0  -0.009365  0.244461  0  3.783882  0
C  C259  1  0.80092314  0.23930980  0.30371508  1  0.085511  0  -0.009527  0.245019  0  3.784097  0
C  C260  1  0.46927800  0.35637918  0.80940158  1  -0.062038  0  -0.243134  -0.412938  0  3.882665  0
C  C261  1  0.11262399  0.64368730  0.69066455  1  -0.072979  0  -0.243158  -0.413649  0  3.882972  0
C  C262  1  0.53072466  0.64362103  0.19059936  1  -0.061916  0  -0.243125  -0.412931  0  3.882437  0
C  C263  1  0.88737407  0.35631211  0.30933374  1  -0.073342  0  -0.243194  -0.413684  0  3.883049  0
C  C264  1  0.37218357  0.19651344  0.85367114  1  -0.059082  0  -0.244106  -0.417824  0  3.906818  0
C  C265  1  0.17550887  0.80348657  0.64632461  1  -0.087465  0  -0.244354  -0.41973  0  3.905845  0
C  C266  1  0.62781550  0.80348518  0.14632791  1  -0.059218  0  -0.244074  -0.417823  0  3.906955  0
C  C267  1  0.82449178  0.19651522  0.35367523  1  -0.087996  0  -0.244399  -0.419819  0  3.905927  0
C  C268  1  0.36845323  0.17404792  0.74549413  1  -0.076975  0  -0.243447  -0.411061  0  3.887995  0
C  C269  1  0.19418590  0.82604497  0.75451329  1  -0.061455  0  -0.243001  -0.410092  0  3.88784  0
C  C270  1  0.63154422  0.82595308  0.25450562  1  -0.076962  0  -0.243471  -0.411116  0  3.888088  0
C  C271  1  0.80581076  0.17395444  0.24548543  1  -0.061508  0  -0.243012  -0.410206  0  3.887741  0
S  S272  1  0.50223279  0.74019812  0.80994014  1  0.085332  0  0.013739  -0.045899  0  2.938947  0
S  S273  1  0.76213728  0.25992563  0.69021953  1  0.086476  0  0.013259  -0.046492  0  2.938556  0
S  S274  1  0.49776435  0.25980366  0.19006013  1  0.085212  0  0.013729  -0.045936  0  2.938925  0
S  S275  1  0.23786529  0.74007299  0.30978080  1  0.086491  0  0.01323  -0.0466  0  2.938651  0
S  S276  1  0.48929555  0.95217186  0.85353648  1  0.080159  0  0.00687  0.018763  0  2.766264  0
S  S277  1  0.53703216  0.04801402  0.64648701  1  0.066375  0  0.006817  0.018746  0  2.764564  0
S  S278  1  0.51070300  0.04782993  0.14646421  1  0.079911  0  0.006869  0.018808  0  2.766225  0
S  S279  1  0.46297199  0.95198776  0.35351326  1  0.066331  0  0.006823  0.018756  0  2.764589  0
S  S280  1  0.71247451  0.16945583  0.91362152  1  0.098368  0  0.032047  0.011778  0  2.936506  0
S  S281  1  0.54274601  0.83062286  0.58657640  1  0.107343  0  0.031845  0.011559  0  2.935757  0
S  S282  1  0.28752654  0.83054674  0.08637927  1  0.098411  0  0.03204  0.011781  0  2.936477  0
S  S283  1  0.45725573  0.16937972  0.41342482  1  0.107251  0  0.03182  0.011488  0  2.93582  0
S  S284  1  0.86459625  0.22968648  0.80917700  1  0.082562  0  0.025769  0.050455  0  2.865909  0
S  S285  1  0.63467846  0.77035771  0.69100412  1  0.090318  0  0.025147  0.04927  0  2.866245  0
S  S286  1  0.13540063  0.77031055  0.19082314  1  0.082605  0  0.025764  0.050442  0  2.865851  0
S  S287  1  0.36532049  0.22964487  0.30899752  1  0.090276  0  0.025156  0.04927  0  2.866263  0
N  N288  1  0.27900727  0.82291305  0.92413823  1  -1.216789  0  -0.306663  -0.266629  0  3.44027  0
N  N289  1  0.45557345  0.17677161  0.57566278  1  -1.200216  0  -0.307247  -0.267682  0  3.439024  0
N  N290  1  0.72099180  0.17708557  0.07586082  1  -1.216816  0  -0.306663  -0.266609  0  3.440207  0
N  N291  1  0.54442802  0.82322622  0.42433874  1  -1.20045  0  -0.307233  -0.267601  0  3.438811  0
N  N292  1  0.91232731  0.45545935  0.87797550  1  -1.215748  0  -0.300063  -0.198982  0  3.509951  0
N  N293  1  0.45681777  0.54445519  0.62214997  1  -1.208496  0  -0.299775  -0.198309  0  3.511634  0
N  N294  1  0.08767246  0.54453927  0.12202568  1  -1.215691  0  -0.300112  -0.199107  0  3.510088  0
N  N295  1  0.54318200  0.45554343  0.37784908  1  -1.208496  0  -0.299794  -0.198307  0  3.511613  0
Cl  Cl296  1  0.21294142  0.55472478  0.82107610  1  -0.510671  0  -0.27653  -0.395892  0  1.252143  0
Cl  Cl297  1  0.65791093  0.44512934  0.67889534  1  -0.511128  0  -0.276779  -0.396316  0  1.251961  0
Cl  Cl298  1  0.78705668  0.44526910  0.17891942  1  -0.510582  0  -0.276516  -0.395883  0  1.252227  0
Cl  Cl299  1  0.34208662  0.55487324  0.32110374  1  -0.511245  0  -0.276768  -0.396314  0  1.251964  0
Cl  Cl300  1  0.46511183  0.72773547  0.98209388  1  -0.506178  0  -0.2899  -0.408694  0  1.20253  0
Cl  Cl301  1  0.73715076  0.27233328  0.51797894  1  -0.505758  0  -0.289991  -0.408686  0  1.202325  0
Cl  Cl302  1  0.53488184  0.27226078  0.01790277  1  -0.506161  0  -0.289911  -0.408705  0  1.20249  0
Cl  Cl303  1  0.26285068  0.72767009  0.48202194  1  -0.505764  0  -0.290016  -0.408699  0  1.202338  0
Cl  Cl304  1  0.14000586  0.57732016  0.97645766  1  -0.56629  0  -0.29343  -0.447097  0  1.427569  0
Cl  Cl305  1  0.56256571  0.42267379  0.52347718  1  -0.564989  0  -0.293165  -0.447029  0  1.429814  0
Cl  Cl306  1  0.85999050  0.42268005  0.02354029  1  -0.566296  0  -0.293421  -0.447089  0  1.427572  0
Cl  Cl307  1  0.43743476  0.57732483  0.47652315  1  -0.564979  0  -0.293162  -0.447046  0  1.429885  0
Cl  Cl308  1  0.94917698  0.71533971  0.03926286  1  -0.512886  0  -0.276041  -0.398669  0  1.203968  0
Cl  Cl309  1  0.23402443  0.28470173  0.46051512  1  -0.512403  0  -0.275986  -0.398552  0  1.203857  0
Cl  Cl310  1  0.05082178  0.28465970  0.96073842  1  -0.512895  0  -0.276048  -0.398695  0  1.203987  0
Cl  Cl311  1  0.76597433  0.71529769  0.53948274  1  -0.512433  0  -0.276001  -0.398576  0  1.203906  0
