# generated using pymatgen
data_AgH5(C3O2)3
_symmetry_space_group_name_H-M   'P 1'
_cell_length_a   3.81142345
_cell_length_b   7.65037402
_cell_length_c   15.44625976
_cell_angle_alpha   78.53521536
_cell_angle_beta   90.88403749
_cell_angle_gamma   77.10793243
_symmetry_Int_Tables_number   1
_chemical_formula_structural   AgH5(C3O2)3
_chemical_formula_sum   'Ag2 H10 C18 O12'
_cell_volume   429.43784116
_cell_formula_units_Z   2
loop_
 _symmetry_equiv_pos_site_id
 _symmetry_equiv_pos_as_xyz
  1  'x, y, z'
loop_
 _atom_site_type_symbol
 _atom_site_label
 _atom_site_symmetry_multiplicity
 _atom_site_fract_x
 _atom_site_fract_y
 _atom_site_fract_z
 _atom_site_occupancy
 _atom_site_hle17_bader_spin_density
 _atom_site_hle17_ddec_charge
 _atom_site_hle17_ddec_spin_density
 _atom_site_hle17_ddec_sum_bond_order
 _atom_site_hle17_magmom
 _atom_site_hse06_10hf_bader_spin_density
 _atom_site_hse06_10hf_ddec_charge
 _atom_site_hse06_10hf_ddec_spin_density
 _atom_site_hse06_10hf_ddec_sum_bond_order
 _atom_site_hse06_10hf_magmom
 _atom_site_hse06_bader_spin_density
 _atom_site_hse06_ddec_charge
 _atom_site_hse06_ddec_spin_density
 _atom_site_hse06_ddec_sum_bond_order
 _atom_site_hse06_magmom
 _atom_site_pbe_bader_spin_density
 _atom_site_pbe_cm5_charge
 _atom_site_pbe_ddec_charge
 _atom_site_pbe_ddec_spin_density
 _atom_site_pbe_ddec_sum_bond_order
 _atom_site_pbe_magmom
Ag  Ag0  1  0.50356510  0.13674925  0.05004690  1  0  0.667902  0  1.286027  0  0  0.553538  0  1.729077  0  0  0.587863  0  1.668312  0  0  0.437776  0.52953  0  1.771451  0
Ag  Ag1  1  0.49643841  0.86325121  0.94995468  1  0  0.667932  0  1.286012  0  0  0.553578  0  1.729072  0  0  0.587901  0  1.668306  0  0  0.437781  0.529567  0  1.771437  0
H  H2  1  0.72287946  0.48486460  0.43998784  1  0  0.108371  0  0.950339  0  0  0.113306  0  1.020505  0  0  0.116985  0  1.017251  0  0  0.10825  0.110646  0  1.0229  0
H  H3  1  0.27712075  0.51513728  0.56001166  1  0  0.108399  0  0.950275  0  0  0.113331  0  1.020456  0  0  0.117011  0  1.017199  0  0  0.108253  0.110671  0  1.022849  0
H  H4  1  0.93599512  0.29108539  0.33076524  1  0  0.118769  0  0.940285  0  0  0.126855  0  1.001571  0  0  0.130789  0  0.99924  0  0  0.110539  0.12405  0  1.003345  0
H  H5  1  0.06400048  0.70891513  0.66923569  1  0  0.118774  0  0.94029  0  0  0.126876  0  1.001557  0  0  0.130811  0  0.999226  0  0  0.110552  0.124073  0  1.003329  0
H  H6  1  0.95381917  0.95152503  0.26236169  1  0  0.132706  0  0.930543  0  0  0.140744  0  0.991164  0  0  0.144841  0  0.987923  0  0  0.117615  0.137713  0  0.99362  0
H  H7  1  0.04617898  0.04847550  0.73763729  1  0  0.132685  0  0.930491  0  0  0.140739  0  0.991118  0  0  0.144836  0  0.987878  0  0  0.117603  0.137707  0  0.993568  0
H  H8  1  0.74149044  0.52674913  0.09610543  1  0  0.410532  0  0.87756  0  0  0.378941  0  0.955814  0  0  0.390506  0  0.94366  0  0  0.30838  0.370821  0  0.96426  0
H  H9  1  0.25851413  0.47324864  0.90389318  1  0  0.410634  0  0.877483  0  0  0.378951  0  0.955874  0  0  0.390515  0  0.943725  0  0  0.308422  0.370831  0  0.964319  0
H  H10  1  0.62046470  0.09095281  0.44858922  1  0  0.394569  0  0.898099  0  0  0.362949  0  0.976275  0  0  0.376218  0  0.962368  0  0  0.303703  0.353664  0  0.985925  0
H  H11  1  0.37953090  0.90904771  0.55141170  1  0  0.394536  0  0.898167  0  0  0.36291  0  0.976354  0  0  0.376177  0  0.962449  0  0  0.303676  0.353621  0  0.98601  0
C  C12  1  0.16712143  0.38936814  0.17181767  1  0  0.665988  0  3.794305  0  0  0.613664  0  4.089576  0  0  0.647231  0  4.080346  0  0  0.23485  0.590709  0  4.095303  0
C  C13  1  0.83288062  0.61062961  0.82818352  1  0  0.665983  0  3.794374  0  0  0.613661  0  4.089614  0  0  0.647227  0  4.080386  0  0  0.234833  0.590694  0  4.095353  0
C  C14  1  0.20447195  0.79076777  0.13253130  1  0  0.651208  0  3.895671  0  0  0.590507  0  4.19206  0  0  0.626874  0  4.186351  0  0  0.206401  0.565588  0  4.195341  0
C  C15  1  0.79552888  0.20923272  0.86746898  1  0  0.651201  0  3.895702  0  0  0.590451  0  4.19215  0  0  0.626821  0  4.18644  0  0  0.206371  0.56552  0  4.195446  0
C  C16  1  0.68972202  0.84642467  0.42244190  1  0  0.668245  0  3.787363  0  0  0.613781  0  4.087524  0  0  0.648853  0  4.077625  0  0  0.242062  0.589951  0  4.093811  0
C  C17  1  0.31028280  0.15357857  0.57755618  1  0  0.668281  0  3.787425  0  0  0.613742  0  4.087693  0  0  0.648823  0  4.077781  0  0  0.242058  0.589925  0  4.093959  0
C  C18  1  0.82762272  0.73042924  0.35854146  1  0  -0.088348  0  3.775096  0  0  -0.066996  0  4.016842  0  0  -0.078347  0  4.041572  0  0  -0.017225  -0.059689  0  4.000258  0
C  C19  1  0.17237811  0.26957126  0.64145883  1  0  -0.0885  0  3.775204  0  0  -0.067135  0  4.017037  0  0  -0.078489  0  4.041766  0  0  -0.017262  -0.059824  0  4.00044  0
C  C20  1  0.82389121  0.54381020  0.37796301  1  0  -0.02278  0  3.67555  0  0  -0.053239  0  3.934256  0  0  -0.049854  0  3.952664  0  0  -0.065694  -0.055206  0  3.921686  0
C  C21  1  0.17610373  0.45619170  0.62203648  1  0  -0.02274  0  3.675552  0  0  -0.053193  0  3.934259  0  0  -0.049808  0  3.952667  0  0  -0.065685  -0.055162  0  3.921688  0
C  C22  1  0.94271221  0.43549541  0.31705167  1  0  -0.067852  0  3.6848  0  0  -0.09204  0  3.942167  0  0  -0.096082  0  3.961401  0  0  -0.076868  -0.089545  0  3.929388  0
C  C23  1  0.05727867  0.56450378  0.68294808  1  0  -0.067947  0  3.684993  0  0  -0.092148  0  3.94236  0  0  -0.09619  0  3.961594  0  0  -0.076924  -0.089653  0  3.929583  0
C  C24  1  0.06152234  0.51214417  0.23595556  1  0  -0.055093  0  3.720194  0  0  -0.044039  0  3.954195  0  0  -0.044961  0  3.973405  0  0  0.000949  -0.043433  0  3.941457  0
C  C25  1  0.93847584  0.48785635  0.76404407  1  0  -0.055065  0  3.720237  0  0  -0.043996  0  3.954202  0  0  -0.044921  0  3.973415  0  0  0.000961  -0.043393  0  3.941477  0
C  C26  1  0.07018372  0.69916126  0.21633617  1  0  -0.086141  0  3.726141  0  0  -0.066716  0  3.95992  0  0  -0.076547  0  3.983451  0  0  -0.014193  -0.060467  0  3.944357  0
C  C27  1  0.92981448  0.30083925  0.78366410  1  0  -0.086141  0  3.72603  0  0  -0.066679  0  3.959827  0  0  -0.076508  0  3.983356  0  0  -0.014174  -0.060432  0  3.944274  0
C  C28  1  0.95226184  0.80662153  0.27835955  1  0  -0.041957  0  3.64726  0  0  -0.080756  0  3.897335  0  0  -0.077109  0  3.915584  0  0  -0.066579  -0.082941  0  3.88508  0
C  C29  1  0.04774156  0.19337897  0.72163944  1  0  -0.041839  0  3.647183  0  0  -0.08069  0  3.897321  0  0  -0.077044  0  3.915571  0  0  -0.066548  -0.082872  0  3.885059  0
O  O30  1  0.96246219  0.42312208  0.09755833  1  0  -0.54033  0  2.15491  0  0  -0.490813  0  2.398017  0  0  -0.513361  0  2.380999  0  0  -0.323657  -0.475147  0  2.409452  0
O  O31  1  0.03754425  0.57687155  0.90244262  1  0  -0.540415  0  2.154816  0  0  -0.490839  0  2.398022  0  0  -0.513398  0  2.381026  0  0  -0.323696  -0.475167  0  2.409458  0
O  O32  1  0.43079879  0.25804622  0.18792790  1  0  -0.521958  0  1.971601  0  0  -0.466655  0  2.204578  0  0  -0.49244  0  2.196306  0  0  -0.27454  -0.44846  0  2.209653  0
O  O33  1  0.56920068  0.74195152  0.81207458  1  0  -0.521958  0  1.971701  0  0  -0.466666  0  2.204699  0  0  -0.492451  0  2.196427  0  0  -0.274531  -0.448464  0  2.20977  0
O  O34  1  0.40081732  0.69320764  0.08478190  1  0  -0.645919  0  2.145539  0  0  -0.566157  0  2.408032  0  0  -0.597617  0  2.396426  0  0  -0.312834  -0.544227  0  2.41528  0
O  O35  1  0.59918608  0.30679286  0.91521709  1  0  -0.645941  0  2.145521  0  0  -0.566125  0  2.408057  0  0  -0.597583  0  2.396449  0  0  -0.312831  -0.544195  0  2.415313  0
O  O36  1  0.11566722  0.96456310  0.11325723  1  0  -0.644353  0  2.197827  0  0  -0.568966  0  2.496282  0  0  -0.600085  0  2.480107  0  0  -0.320512  -0.547265  0  2.506718  0
O  O37  1  0.88433358  0.03543740  0.88674240  1  0  -0.644384  0  2.197837  0  0  -0.569003  0  2.496357  0  0  -0.600106  0  2.480137  0  0  -0.320512  -0.547288  0  2.506779  0
O  O38  1  0.73709467  0.01511454  0.40317201  1  0  -0.532354  0  2.108466  0  0  -0.4813  0  2.329609  0  0  -0.503284  0  2.314428  0  0  -0.317526  -0.466062  0  2.339622  0
O  O39  1  0.26290410  0.98488461  0.59682775  1  0  -0.532385  0  2.108364  0  0  -0.481287  0  2.329525  0  0  -0.503276  0  2.314344  0  0  -0.317552  -0.466056  0  2.339537  0
O  O40  1  0.53687721  0.78576591  0.48920547  1  0  -0.571214  0  2.007177  0  0  -0.516613  0  2.225804  0  0  -0.540481  0  2.217864  0  0  -0.28089  -0.500233  0  2.230927  0
O  O41  1  0.46312218  0.21423186  0.51079507  1  0  -0.5711  0  2.007414  0  0  -0.516472  0  2.226062  0  0  -0.540341  0  2.218118  0  0  -0.280803  -0.500102  0  2.231181  0
