# generated using pymatgen
data_AgH6C7N4
_symmetry_space_group_name_H-M   'P 1'
_cell_length_a   5.21448355
_cell_length_b   12.32283560
_cell_length_c   13.07906884
_cell_angle_alpha   109.37053883
_cell_angle_beta   89.99987515
_cell_angle_gamma   89.99998047
_symmetry_Int_Tables_number   1
_chemical_formula_structural   AgH6C7N4
_chemical_formula_sum   'Ag4 H24 C28 N16'
_cell_volume   792.85100804
_cell_formula_units_Z   4
loop_
 _symmetry_equiv_pos_site_id
 _symmetry_equiv_pos_as_xyz
  1  'x, y, z'
loop_
 _atom_site_type_symbol
 _atom_site_label
 _atom_site_symmetry_multiplicity
 _atom_site_fract_x
 _atom_site_fract_y
 _atom_site_fract_z
 _atom_site_occupancy
 _atom_site_hle17_bader_spin_density
 _atom_site_hle17_ddec_charge
 _atom_site_hle17_ddec_spin_density
 _atom_site_hle17_ddec_sum_bond_order
 _atom_site_hle17_magmom
 _atom_site_hse06_10hf_bader_spin_density
 _atom_site_hse06_10hf_ddec_charge
 _atom_site_hse06_10hf_ddec_spin_density
 _atom_site_hse06_10hf_ddec_sum_bond_order
 _atom_site_hse06_10hf_magmom
 _atom_site_hse06_bader_spin_density
 _atom_site_hse06_ddec_charge
 _atom_site_hse06_ddec_spin_density
 _atom_site_hse06_ddec_sum_bond_order
 _atom_site_hse06_magmom
 _atom_site_pbe_bader_spin_density
 _atom_site_pbe_cm5_charge
 _atom_site_pbe_ddec_charge
 _atom_site_pbe_ddec_spin_density
 _atom_site_pbe_ddec_sum_bond_order
 _atom_site_pbe_magmom
Ag  Ag0  1  0.97566637  0.55234110  0.88668976  1  0  0.4299  0  1.876641  0  0  0.314456  0  2.354274  0  0  0.33133  0  2.314774  0  0  0.438426  0.303319  0  2.380909  0
Ag  Ag1  1  0.47569243  0.44765128  0.61330693  1  0  0.429923  0  1.876577  0  0  0.31448  0  2.354219  0  0  0.331346  0  2.314733  0  0  0.438461  0.303344  0  2.380855  0
Ag  Ag2  1  0.02431831  0.44765463  0.11331295  1  0  0.429858  0  1.876569  0  0  0.314402  0  2.354219  0  0  0.331272  0  2.314722  0  0  0.438404  0.303265  0  2.380855  0
Ag  Ag3  1  0.52433252  0.55234273  0.38668989  1  0  0.429852  0  1.876614  0  0  0.314398  0  2.35425  0  0  0.331276  0  2.314746  0  0  0.438403  0.303263  0  2.380885  0
H  H4  1  0.42386714  0.34301416  0.77788678  1  0  0.080384  0  0.952744  0  0  0.086138  0  1.026212  0  0  0.088649  0  1.022651  0  0  0.120819  0.084107  0  1.028986  0
H  H5  1  0.92387449  0.65698599  0.72211238  1  0  0.080355  0  0.952774  0  0  0.08612  0  1.026239  0  0  0.088619  0  1.02269  0  0  0.120799  0.08409  0  1.029012  0
H  H6  1  0.57613096  0.65698415  0.22211292  1  0  0.080382  0  0.952783  0  0  0.086149  0  1.026237  0  0  0.08866  0  1.022677  0  0  0.12081  0.084117  0  1.029013  0
H  H7  1  0.07612553  0.34301490  0.27788506  1  0  0.080346  0  0.952813  0  0  0.086103  0  1.026271  0  0  0.0886  0  1.022723  0  0  0.120794  0.084074  0  1.029044  0
H  H8  1  0.75868235  0.24472050  0.90626216  1  0  0.103144  0  0.963971  0  0  0.106685  0  1.038274  0  0  0.108916  0  1.035082  0  0  0.132973  0.104854  0  1.040272  0
H  H9  1  0.25868141  0.75527887  0.59373843  1  0  0.103155  0  0.963954  0  0  0.106691  0  1.038257  0  0  0.108919  0  1.035066  0  0  0.132984  0.104862  0  1.040254  0
H  H10  1  0.24131767  0.75527781  0.09373677  1  0  0.103143  0  0.963972  0  0  0.106679  0  1.038283  0  0  0.108906  0  1.035092  0  0  0.132973  0.104849  0  1.04028  0
H  H11  1  0.74131286  0.24472287  0.40625928  1  0  0.103152  0  0.963986  0  0  0.106686  0  1.038304  0  0  0.108908  0  1.035108  0  0  0.133006  0.104855  0  1.040301  0
H  H12  1  0.08042727  0.98222072  0.79025762  1  0  0.091714  0  0.945791  0  0  0.097302  0  1.024471  0  0  0.09928  0  1.021286  0  0  0.110288  0.095733  0  1.026235  0
H  H13  1  0.58042755  0.01778046  0.70974444  1  0  0.091702  0  0.945832  0  0  0.097288  0  1.024505  0  0  0.099263  0  1.021326  0  0  0.110267  0.095717  0  1.026272  0
H  H14  1  0.91956892  0.01777758  0.20974283  1  0  0.091701  0  0.94578  0  0  0.097283  0  1.024483  0  0  0.099261  0  1.021295  0  0  0.110275  0.095714  0  1.026247  0
H  H15  1  0.41956672  0.98222043  0.29025605  1  0  0.091745  0  0.945803  0  0  0.097324  0  1.024485  0  0  0.099302  0  1.021296  0  0  0.110276  0.095756  0  1.026248  0
H  H16  1  0.90572670  0.05295445  0.90925215  1  0  0.090071  0  0.94139  0  0  0.106532  0  1.003968  0  0  0.1059  0  1.005769  0  0  0.115754  0.106852  0  1.002162  0
H  H17  1  0.40572178  0.94704571  0.59075008  1  0  0.090079  0  0.941339  0  0  0.106536  0  1.00393  0  0  0.105904  0  1.005727  0  0  0.115751  0.106853  0  1.002124  0
H  H18  1  0.09427907  0.94704386  0.09075060  1  0  0.090082  0  0.941285  0  0  0.106545  0  1.003883  0  0  0.105914  0  1.005677  0  0  0.115737  0.106864  0  1.002076  0
H  H19  1  0.59427248  0.05295604  0.40924839  1  0  0.090117  0  0.941284  0  0  0.106567  0  1.003878  0  0  0.105935  0  1.005671  0  0  0.115743  0.106885  0  1.00207  0
H  H20  1  0.34739374  0.20155563  0.04474459  1  0  0.097191  0  0.97518  0  0  0.102402  0  1.047231  0  0  0.105355  0  1.045856  0  0  0.097457  0.100348  0  1.048098  0
H  H21  1  0.84739203  0.79844500  0.45525747  1  0  0.097199  0  0.975157  0  0  0.102402  0  1.047227  0  0  0.105356  0  1.045852  0  0  0.097457  0.100348  0  1.048096  0
H  H22  1  0.65261012  0.79844268  0.95525358  1  0  0.097167  0  0.975157  0  0  0.102374  0  1.047234  0  0  0.105326  0  1.045858  0  0  0.097445  0.10032  0  1.048102  0
H  H23  1  0.15260415  0.20155933  0.54474410  1  0  0.097159  0  0.97516  0  0  0.102357  0  1.047241  0  0  0.105311  0  1.045865  0  0  0.097449  0.100303  0  1.048107  0
H  H24  1  0.31323451  0.84428569  0.84482607  1  0  0.098014  0  0.954935  0  0  0.110596  0  1.013729  0  0  0.112649  0  1.013946  0  0  0.10141  0.109008  0  1.013908  0
H  H25  1  0.81322538  0.15571709  0.65517323  1  0  0.097941  0  0.955011  0  0  0.110502  0  1.013832  0  0  0.112577  0  1.014021  0  0  0.101417  0.108916  0  1.014006  0
H  H26  1  0.68677126  0.15571347  0.15517312  1  0  0.097973  0  0.954961  0  0  0.110558  0  1.013759  0  0  0.112612  0  1.013973  0  0  0.101403  0.108967  0  1.013935  0
H  H27  1  0.18677080  0.84428724  0.34482834  1  0  0.098  0  0.954922  0  0  0.110582  0  1.013722  0  0  0.112635  0  1.013936  0  0  0.101418  0.108991  0  1.013898  0
C  C28  1  0.35936370  0.57773730  0.89014499  1  0  -0.078534  0  3.457971  0  0  -0.058005  0  3.802633  0  0  -0.052184  0  3.807667  0  0  -0.022536  -0.062022  0  3.799255  0
C  C29  1  0.85938912  0.42226203  0.60986161  1  0  -0.078282  0  3.457825  0  0  -0.057739  0  3.80247  0  0  -0.051917  0  3.807495  0  0  -0.022474  -0.061758  0  3.799095  0
C  C30  1  0.64062481  0.42226187  0.10986338  1  0  -0.078396  0  3.457953  0  0  -0.057859  0  3.802606  0  0  -0.052039  0  3.807637  0  0  -0.02256  -0.061877  0  3.799228  0
C  C31  1  0.14063775  0.57773886  0.39014348  1  0  -0.078509  0  3.457931  0  0  -0.057973  0  3.802591  0  0  -0.052154  0  3.807623  0  0  -0.022577  -0.061991  0  3.799213  0
C  C32  1  0.28591286  0.29381497  0.80691815  1  0  0.204688  0  3.724006  0  0  0.158827  0  4.006693  0  0  0.169151  0  4.018707  0  0  0.139838  0.152624  0  3.996303  0
C  C33  1  0.78591650  0.70618352  0.69307985  1  0  0.204717  0  3.724142  0  0  0.158848  0  4.006818  0  0  0.169181  0  4.01884  0  0  0.139849  0.152643  0  3.996433  0
C  C34  1  0.71408524  0.70618247  0.19308128  1  0  0.204733  0  3.724079  0  0  0.15887  0  4.006761  0  0  0.169195  0  4.018766  0  0  0.139887  0.152665  0  3.996378  0
C  C35  1  0.21407969  0.29381736  0.30691683  1  0  0.204703  0  3.724202  0  0  0.158849  0  4.006899  0  0  0.169187  0  4.018906  0  0  0.139883  0.152643  0  3.99651  0
C  C36  1  0.94848071  0.24798385  0.87340953  1  0  0.142618  0  3.6934  0  0  0.070753  0  3.968775  0  0  0.094702  0  3.980943  0  0  0.149517  0.061548  0  3.962592  0
C  C37  1  0.44848343  0.75201543  0.62658933  1  0  0.142661  0  3.693349  0  0  0.070804  0  3.968729  0  0  0.094758  0  3.980893  0  0  0.14953  0.0616  0  3.962548  0
C  C38  1  0.05151739  0.75201274  0.12658886  1  0  0.142663  0  3.693473  0  0  0.070755  0  3.968836  0  0  0.094752  0  3.981015  0  0  0.149522  0.06155  0  3.962652  0
C  C39  1  0.55151275  0.24798632  0.37340762  1  0  0.142675  0  3.693407  0  0  0.070749  0  3.968806  0  0  0.094764  0  3.980976  0  0  0.149505  0.061545  0  3.962622  0
C  C40  1  0.09253602  0.05064214  0.86940481  1  0  -0.057231  0  3.646101  0  0  -0.133868  0  3.891516  0  0  -0.120357  0  3.90367  0  0  -0.044663  -0.136552  0  3.885154  0
C  C41  1  0.59253404  0.94935818  0.63059698  1  0  -0.057213  0  3.646103  0  0  -0.13384  0  3.891531  0  0  -0.120325  0  3.903682  0  0  -0.044616  -0.136522  0  3.885166  0
C  C42  1  0.90746400  0.94935531  0.13059462  1  0  -0.057144  0  3.646033  0  0  -0.133876  0  3.891498  0  0  -0.120322  0  3.903662  0  0  -0.044613  -0.136559  0  3.885131  0
C  C43  1  0.40746023  0.05064443  0.36940329  1  0  -0.05728  0  3.646182  0  0  -0.133935  0  3.891553  0  0  -0.120375  0  3.903717  0  0  -0.044617  -0.136621  0  3.885185  0
C  C44  1  0.30619651  0.02597808  0.93656382  1  0  0.066693  0  3.750723  0  0  0.085542  0  3.993407  0  0  0.085478  0  4.014454  0  0  -0.014417  0.085574  0  3.978086  0
C  C45  1  0.80619104  0.97402299  0.56343726  1  0  0.066718  0  3.750465  0  0  0.085533  0  3.993202  0  0  0.085468  0  4.014251  0  0  -0.01442  0.085564  0  3.977882  0
C  C46  1  0.69380735  0.97402023  0.06343588  1  0  0.066718  0  3.75063  0  0  0.08563  0  3.993258  0  0  0.085566  0  4.014297  0  0  -0.014374  0.085663  0  3.977934  0
C  C47  1  0.19380323  0.02598220  0.43656229  1  0  0.06668  0  3.750632  0  0  0.085538  0  3.993297  0  0  0.085475  0  4.014332  0  0  -0.014393  0.085572  0  3.977971  0
C  C48  1  0.41284806  0.11285608  0.02450926  1  0  -0.115994  0  3.745325  0  0  -0.136387  0  3.99605  0  0  -0.138816  0  4.017134  0  0  -0.095449  -0.134587  0  3.981699  0
C  C49  1  0.91284809  0.88714451  0.47549044  1  0  -0.11605  0  3.745266  0  0  -0.136434  0  3.995999  0  0  -0.138863  0  4.017082  0  0  -0.095446  -0.134636  0  3.981651  0
C  C50  1  0.58715963  0.88714136  0.97548634  1  0  -0.115975  0  3.745102  0  0  -0.136396  0  3.995805  0  0  -0.138824  0  4.016889  0  0  -0.095441  -0.134599  0  3.981459  0
C  C51  1  0.08714810  0.11285982  0.52451113  1  0  -0.115911  0  3.745152  0  0  -0.136291  0  3.995836  0  0  -0.13872  0  4.016924  0  0  -0.095407  -0.134493  0  3.981488  0
C  C52  1  0.39530186  0.91300712  0.91280020  1  0  -0.116191  0  3.742954  0  0  -0.133681  0  3.986427  0  0  -0.136242  0  4.008717  0  0  -0.093362  -0.131989  0  3.971814  0
C  C53  1  0.89529125  0.08699476  0.58719646  1  0  -0.116143  0  3.742874  0  0  -0.133613  0  3.986369  0  0  -0.136204  0  4.008674  0  0  -0.093422  -0.131919  0  3.971744  0
C  C54  1  0.60470774  0.08699032  0.08719616  1  0  -0.116265  0  3.743104  0  0  -0.133776  0  3.986576  0  0  -0.136353  0  4.008895  0  0  -0.093448  -0.132077  0  3.971949  0
C  C55  1  0.10470494  0.91301043  0.41280462  1  0  -0.116219  0  3.74296  0  0  -0.133723  0  3.98645  0  0  -0.136296  0  4.008764  0  0  -0.093429  -0.132024  0  3.971826  0
N  N56  1  0.58390751  0.57684730  0.89232931  1  0  -0.384517  0  3.298297  0  0  -0.308405  0  3.607308  0  0  -0.327617  0  3.620052  0  0  -0.419838  -0.295824  0  3.598736  0
N  N57  1  0.08393553  0.42315216  0.60767604  1  0  -0.384772  0  3.298292  0  0  -0.308677  0  3.607338  0  0  -0.327885  0  3.620069  0  0  -0.419927  -0.296098  0  3.598773  0
N  N58  1  0.41607909  0.42315187  0.10767677  1  0  -0.384607  0  3.298302  0  0  -0.308499  0  3.60732  0  0  -0.327706  0  3.620057  0  0  -0.419794  -0.295919  0  3.598752  0
N  N59  1  0.91609709  0.57684873  0.39232981  1  0  -0.384487  0  3.298179  0  0  -0.308374  0  3.607183  0  0  -0.327586  0  3.619929  0  0  -0.419771  -0.295792  0  3.59861  0
N  N60  1  0.04766288  0.33331557  0.84421466  1  0  -0.393913  0  3.12593  0  0  -0.339186  0  3.42473  0  0  -0.356688  0  3.431914  0  0  -0.348856  -0.327107  0  3.417114  0
N  N61  1  0.54766483  0.66668391  0.65578614  1  0  -0.393976  0  3.126012  0  0  -0.339257  0  3.424823  0  0  -0.356756  0  3.432003  0  0  -0.34887  -0.327176  0  3.417208  0
N  N62  1  0.95233522  0.66668102  0.15578526  1  0  -0.393987  0  3.126101  0  0  -0.33927  0  3.424936  0  0  -0.356769  0  3.432106  0  0  -0.348905  -0.327189  0  3.417319  0
N  N63  1  0.45232943  0.33331783  0.34421156  1  0  -0.393989  0  3.126111  0  0  -0.339272  0  3.424945  0  0  -0.356772  0  3.432105  0  0  -0.348922  -0.327194  0  3.417331  0
N  N64  1  0.33844159  0.18951603  0.81062859  1  0  -0.300328  0  2.886873  0  0  -0.291115  0  3.15157  0  0  -0.291565  0  3.172946  0  0  -0.227922  -0.284648  0  3.14072  0
N  N65  1  0.83844324  0.81048330  0.68937114  1  0  -0.300335  0  2.886885  0  0  -0.291129  0  3.151595  0  0  -0.291579  0  3.172967  0  0  -0.227943  -0.284661  0  3.140746  0
N  N66  1  0.66155651  0.81048142  0.18937159  1  0  -0.300317  0  2.886819  0  0  -0.291152  0  3.151493  0  0  -0.291561  0  3.17289  0  0  -0.227969  -0.284686  0  3.140643  0
N  N67  1  0.16155295  0.18951844  0.31062733  1  0  -0.300197  0  2.886852  0  0  -0.291037  0  3.15152  0  0  -0.29144  0  3.172916  0  0  -0.227894  -0.284571  0  3.140668  0
N  N68  1  0.11997689  0.16145268  0.85338437  1  0  0.042325  0  3.576592  0  0  0.16147  0  3.761658  0  0  0.12212  0  3.821989  0  0  -0.139417  0.168817  0  3.744503  0
N  N69  1  0.61997684  0.83854676  0.64661635  1  0  0.042285  0  3.576561  0  0  0.161435  0  3.761617  0  0  0.122081  0  3.821952  0  0  -0.139423  0.168784  0  3.744462  0
N  N70  1  0.88002312  0.83854476  0.14661581  1  0  0.04224  0  3.576629  0  0  0.161537  0  3.761545  0  0  0.122058  0  3.822017  0  0  -0.139373  0.168886  0  3.744387  0
N  N71  1  0.38001935  0.16145499  0.35338135  1  0  0.042196  0  3.57675  0  0  0.161491  0  3.761669  0  0  0.121993  0  3.822149  0  0  -0.139444  0.168841  0  3.744508  0
