# generated using pymatgen
data_CdH14C14N2O5
_symmetry_space_group_name_H-M   'P 1'
_cell_length_a   7.42837322
_cell_length_b   8.16670842
_cell_length_c   12.71950704
_cell_angle_alpha   110.30211520
_cell_angle_beta   92.31237026
_cell_angle_gamma   99.10477754
_symmetry_Int_Tables_number   1
_chemical_formula_structural   CdH14C14N2O5
_chemical_formula_sum   'Cd2 H28 C28 N4 O10'
_cell_volume   710.78840124
_cell_formula_units_Z   2
loop_
 _symmetry_equiv_pos_site_id
 _symmetry_equiv_pos_as_xyz
  1  'x, y, z'
loop_
 _atom_site_type_symbol
 _atom_site_label
 _atom_site_symmetry_multiplicity
 _atom_site_fract_x
 _atom_site_fract_y
 _atom_site_fract_z
 _atom_site_occupancy
 _atom_site_hle17_bader_spin_density
 _atom_site_hle17_ddec_charge
 _atom_site_hle17_ddec_spin_density
 _atom_site_hle17_ddec_sum_bond_order
 _atom_site_hle17_magmom
 _atom_site_hse06_10hf_bader_spin_density
 _atom_site_hse06_10hf_ddec_charge
 _atom_site_hse06_10hf_ddec_spin_density
 _atom_site_hse06_10hf_ddec_sum_bond_order
 _atom_site_hse06_10hf_magmom
 _atom_site_hse06_bader_spin_density
 _atom_site_hse06_ddec_charge
 _atom_site_hse06_ddec_spin_density
 _atom_site_hse06_ddec_sum_bond_order
 _atom_site_hse06_magmom
 _atom_site_pbe_bader_spin_density
 _atom_site_pbe_cm5_charge
 _atom_site_pbe_ddec_charge
 _atom_site_pbe_ddec_spin_density
 _atom_site_pbe_ddec_sum_bond_order
 _atom_site_pbe_magmom
Cd  Cd0  1  0.04522346  0.06523651  0.23199045  1  0  1.119142  0  1.651388  0  0  0.924312  0  2.092061  0  0  0.98255  0  2.040606  0  0  0.772417  0.883031  0  2.127172  0
Cd  Cd1  1  0.95477160  0.93475558  0.76800842  1  0  1.119116  0  1.651345  0  0  0.924288  0  2.091997  0  0  0.98253  0  2.040543  0  0  0.772404  0.883008  0  2.127097  0
H  H2  1  0.68780933  0.91616761  0.15780484  1  0  0.407772  0  0.907999  0  0  0.374194  0  0.976739  0  0  0.38665  0  0.958885  0  0  0.275799  0.365428  0  0.989256  0
H  H3  1  0.31219052  0.08383503  0.84219479  1  0  0.407787  0  0.907973  0  0  0.374203  0  0.976723  0  0  0.38666  0  0.958869  0  0  0.275806  0.365437  0  0.989241  0
H  H4  1  0.78157930  0.89852624  0.04116548  1  0  0.413481  0  0.897471  0  0  0.380589  0  0.966164  0  0  0.392097  0  0.949338  0  0  0.281492  0.372397  0  0.978108  0
H  H5  1  0.21842086  0.10147115  0.95883541  1  0  0.413483  0  0.897482  0  0  0.380578  0  0.96618  0  0  0.392097  0  0.949349  0  0  0.281498  0.372392  0  0.978112  0
H  H6  1  0.89833276  0.95254107  0.53263088  1  0  0.089694  0  0.997745  0  0  0.094584  0  1.068058  0  0  0.098449  0  1.063315  0  0  0.113742  0.091743  0  1.071472  0
H  H7  1  0.10166603  0.04745625  0.46736761  1  0  0.089755  0  0.997766  0  0  0.094646  0  1.068072  0  0  0.098512  0  1.063328  0  0  0.113787  0.091804  0  1.071486  0
H  H8  1  0.51692973  0.72692739  0.69431871  1  0  0.083673  0  0.933512  0  0  0.096632  0  0.993024  0  0  0.098777  0  0.991368  0  0  0.118736  0.095086  0  0.994215  0
H  H9  1  0.48307036  0.27308328  0.30568419  1  0  0.083771  0  0.933381  0  0  0.096707  0  0.992917  0  0  0.09886  0  0.991262  0  0  0.118765  0.095163  0  0.994109  0
H  H10  1  0.36488549  0.69801797  0.35629846  1  0  0.107837  0  0.947852  0  0  0.117083  0  1.013652  0  0  0.12022  0  1.011205  0  0  0.108638  0.114755  0  1.015464  0
H  H11  1  0.63510870  0.30199008  0.64370375  1  0  0.107878  0  0.947883  0  0  0.11709  0  1.01372  0  0  0.120228  0  1.011277  0  0  0.108629  0.114757  0  1.015529  0
H  H12  1  0.21789268  0.55699542  0.59971193  1  0  0.114274  0  0.947439  0  0  0.135149  0  1.008128  0  0  0.136527  0  1.008181  0  0  0.092284  0.134114  0  1.008113  0
H  H13  1  0.78210447  0.44301396  0.40029142  1  0  0.114216  0  0.947492  0  0  0.135097  0  1.008182  0  0  0.136473  0  1.008237  0  0  0.09227  0.134059  0  1.008171  0
H  H14  1  0.17363742  0.50029767  0.45065481  1  0  0.121517  0  0.970232  0  0  0.141056  0  1.034438  0  0  0.142204  0  1.035025  0  0  0.092059  0.140161  0  1.034096  0
H  H15  1  0.82636297  0.49970770  0.54934777  1  0  0.121466  0  0.97023  0  0  0.140994  0  1.034446  0  0  0.142139  0  1.035032  0  0  0.092038  0.140103  0  1.0341  0
H  H16  1  0.12957795  0.70347876  0.54507844  1  0  0.119709  0  0.950682  0  0  0.142665  0  1.010294  0  0  0.143191  0  1.010794  0  0  0.094641  0.14217  0  1.010054  0
H  H17  1  0.87041623  0.29652927  0.45492298  1  0  0.119565  0  0.950737  0  0  0.14257  0  1.010306  0  0  0.143097  0  1.010806  0  0  0.09456  0.142071  0  1.010072  0
H  H18  1  0.04983345  0.67745334  0.25084778  1  0  0.090954  0  0.924884  0  0  0.099719  0  0.987442  0  0  0.102994  0  0.984193  0  0  0.120135  0.097313  0  0.989803  0
H  H19  1  0.95017129  0.32253994  0.74914999  1  0  0.091067  0  0.924794  0  0  0.099797  0  0.987395  0  0  0.103073  0  0.984146  0  0  0.12019  0.097396  0  0.989749  0
H  H20  1  0.25034229  0.90245365  0.02215983  1  0  0.095998  0  0.965573  0  0  0.105734  0  1.027844  0  0  0.108485  0  1.025045  0  0  0.118815  0.103635  0  1.030007  0
H  H21  1  0.74966163  0.09754232  0.97783927  1  0  0.096039  0  0.965503  0  0  0.105788  0  1.027739  0  0  0.108539  0  1.02494  0  0  0.118814  0.103688  0  1.029907  0
H  H22  1  0.29933284  0.36390179  0.96783236  1  0  0.100667  0  0.962558  0  0  0.113471  0  1.023423  0  0  0.116405  0  1.021129  0  0  0.111581  0.111221  0  1.025247  0
H  H23  1  0.70066598  0.63608888  0.03216473  1  0  0.100562  0  0.962683  0  0  0.113349  0  1.0236  0  0  0.116275  0  1.021316  0  0  0.11153  0.111102  0  1.025426  0
H  H24  1  0.40799334  0.49231827  0.83186608  1  0  0.11646  0  0.971664  0  0  0.133268  0  1.03855  0  0  0.134931  0  1.038862  0  0  0.087209  0.131995  0  1.038399  0
H  H25  1  0.59200949  0.50767899  0.16813170  1  0  0.116488  0  0.971722  0  0  0.133283  0  1.0386  0  0  0.134954  0  1.038905  0  0  0.0872  0.132011  0  1.038449  0
H  H26  1  0.48366394  0.72768175  0.88664046  1  0  0.120305  0  0.95927  0  0  0.140019  0  1.022266  0  0  0.14159  0  1.021529  0  0  0.091718  0.138801  0  1.022854  0
H  H27  1  0.51633838  0.27231297  0.11335992  1  0  0.120305  0  0.959292  0  0  0.140011  0  1.022293  0  0  0.141587  0  1.021553  0  0  0.091697  0.138794  0  1.022876  0
H  H28  1  0.26246629  0.63689481  0.81321346  1  0  0.121342  0  0.960363  0  0  0.140878  0  1.025465  0  0  0.141944  0  1.025641  0  0  0.092452  0.140022  0  1.025411  0
H  H29  1  0.73753763  0.36310114  0.18678485  1  0  0.12136  0  0.960252  0  0  0.14088  0  1.025375  0  0  0.141943  0  1.025556  0  0  0.09245  0.140023  0  1.025327  0
C  C30  1  0.63792890  0.83046813  0.43114471  1  0  -0.103885  0  3.76138  0  0  -0.079511  0  4.002447  0  0  -0.091588  0  4.02643  0  0  -0.014921  -0.071964  0  3.986518  0
C  C31  1  0.36207336  0.16953988  0.56885847  1  0  -0.103823  0  3.761424  0  0  -0.079438  0  4.002478  0  0  -0.091512  0  4.026459  0  0  -0.014916  -0.071896  0  3.986551  0
C  C32  1  0.76042430  0.88041318  0.52774074  1  0  0.106027  0  3.692619  0  0  0.062342  0  3.945628  0  0  0.071277  0  3.961253  0  0  0.041643  0.056673  0  3.934941  0
C  C33  1  0.23957262  0.11958826  0.47226171  1  0  0.105928  0  3.692635  0  0  0.062232  0  3.945673  0  0  0.071167  0  3.961295  0  0  0.041568  0.056567  0  3.934987  0
C  C34  1  0.54709440  0.75505361  0.61836046  1  0  0.08115  0  3.652269  0  0  0.041994  0  3.899884  0  0  0.048987  0  3.918008  0  0  0.049949  0.037237  0  3.888066  0
C  C35  1  0.45289818  0.24495316  0.38164223  1  0  0.081071  0  3.652363  0  0  0.04197  0  3.899983  0  0  0.048946  0  3.918117  0  0  0.049956  0.03721  0  3.888163  0
C  C36  1  0.41321599  0.70095834  0.52646800  1  0  0.103512  0  3.741041  0  0  0.134298  0  3.981866  0  0  0.129815  0  4.007398  0  0  0.001187  0.136902  0  3.964635  0
C  C37  1  0.58678063  0.29904836  0.47353398  1  0  0.103539  0  3.741081  0  0  0.134242  0  3.981999  0  0  0.129776  0  4.00751  0  0  0.001167  0.136851  0  3.964759  0
C  C38  1  0.46268744  0.73877246  0.43095962  1  0  -0.067462  0  3.64556  0  0  -0.103379  0  3.888789  0  0  -0.099395  0  3.906705  0  0  -0.060181  -0.105483  0  3.87651  0
C  C39  1  0.53730892  0.26123291  0.56904208  1  0  -0.067565  0  3.645737  0  0  -0.103425  0  3.888978  0  0  -0.099451  0  3.906893  0  0  -0.060181  -0.105525  0  3.876702  0
C  C40  1  0.22410373  0.60878607  0.53083833  1  0  -0.343208  0  3.715674  0  0  -0.426677  0  3.948045  0  0  -0.428871  0  3.959704  0  0  -0.242731  -0.424703  0  3.940025  0
C  C41  1  0.77589020  0.39122066  0.46916360  1  0  -0.342971  0  3.71564  0  0  -0.426429  0  3.948014  0  0  -0.428632  0  3.959683  0  0  -0.242612  -0.424459  0  3.939997  0
C  C42  1  0.69944476  0.87890464  0.33235616  1  0  0.65134  0  3.925053  0  0  0.600379  0  4.218938  0  0  0.635147  0  4.212495  0  0  0.208807  0.576902  0  4.222491  0
C  C43  1  0.30055751  0.12110337  0.66764702  1  0  0.651356  0  3.925124  0  0  0.600386  0  4.219019  0  0  0.635151  0  4.212573  0  0  0.208833  0.576904  0  4.22258  0
C  C44  1  0.17354654  0.50166321  0.11562620  1  0  -0.108127  0  3.76436  0  0  -0.081712  0  4.005355  0  0  -0.094007  0  4.029145  0  0  -0.011941  -0.074064  0  3.989627  0
C  C45  1  0.82645309  0.49833147  0.88437253  1  0  -0.107983  0  3.764354  0  0  -0.08155  0  4.005318  0  0  -0.093842  0  4.029105  0  0  -0.011856  -0.073897  0  3.989591  0
C  C46  1  0.11926503  0.66201647  0.17498295  1  0  0.12337  0  3.68475  0  0  0.076577  0  3.947152  0  0  0.085872  0  3.963173  0  0  0.05221  0.070627  0  3.93626  0
C  C47  1  0.88073322  0.33797809  0.82501179  1  0  0.123153  0  3.684733  0  0  0.076395  0  3.947145  0  0  0.08569  0  3.963163  0  0  0.052095  0.070443  0  3.936257  0
C  C48  1  0.23008581  0.78632884  0.04665176  1  0  0.092097  0  3.630433  0  0  0.052826  0  3.874853  0  0  0.060589  0  3.891397  0  0  0.051941  0.047908  0  3.863598  0
C  C49  1  0.76992242  0.21366846  0.95334851  1  0  0.092009  0  3.630206  0  0  0.052803  0  3.874524  0  0  0.060565  0  3.891066  0  0  0.051982  0.047884  0  3.863272  0
C  C50  1  0.28519605  0.63045105  0.97967945  1  0  0.109957  0  3.72742  0  0  0.142839  0  3.964017  0  0  0.138296  0  3.989049  0  0  0.003281  0.145395  0  3.947214  0
C  C51  1  0.71480761  0.36954359  0.02031937  1  0  0.109974  0  3.727279  0  0  0.142841  0  3.963878  0  0  0.138299  0  3.98891  0  0  0.003223  0.145398  0  3.947079  0
C  C52  1  0.25683289  0.48731731  0.01683520  1  0  -0.062308  0  3.647457  0  0  -0.100222  0  3.889293  0  0  -0.096374  0  3.90824  0  0  -0.059167  -0.10227  0  3.876473  0
C  C53  1  0.74317507  0.51267866  0.98316478  1  0  -0.062207  0  3.647582  0  0  -0.100149  0  3.889463  0  0  -0.096298  0  3.908417  0  0  -0.059117  -0.102179  0  3.876596  0
C  C54  1  0.13761069  0.34879250  0.15605909  1  0  0.63575  0  3.931185  0  0  0.584415  0  4.220107  0  0  0.618713  0  4.216021  0  0  0.200661  0.56131  0  4.221927  0
C  C55  1  0.86239137  0.65120086  0.84394020  1  0  0.635766  0  3.931111  0  0  0.584435  0  4.220031  0  0  0.618733  0  4.215944  0  0  0.200733  0.561328  0  4.221855  0
C  C56  1  0.36512378  0.62032393  0.87170311  1  0  -0.354001  0  3.712994  0  0  -0.436118  0  3.947299  0  0  -0.438773  0  3.95792  0  0  -0.247931  -0.433844  0  3.940132  0
C  C57  1  0.63487744  0.37967204  0.12829515  1  0  -0.354082  0  3.712972  0  0  -0.43616  0  3.947284  0  0  -0.438827  0  3.957894  0  0  -0.247894  -0.433889  0  3.940118  0
N  N58  1  0.71722870  0.84191580  0.61895648  1  0  -0.334733  0  3.280676  0  0  -0.256808  0  3.556483  0  0  -0.277307  0  3.575266  0  0  -0.329131  -0.242748  0  3.543201  0
N  N59  1  0.28276847  0.15808690  0.38104468  1  0  -0.334742  0  3.280857  0  0  -0.256825  0  3.556655  0  0  -0.277325  0  3.575445  0  0  -0.329145  -0.242768  0  3.543377  0
N  N60  1  0.14769860  0.80126845  0.14078163  1  0  -0.339539  0  3.298765  0  0  -0.262401  0  3.580513  0  0  -0.283127  0  3.598324  0  0  -0.332183  -0.248327  0  3.567976  0
N  N61  1  0.85230557  0.19872883  0.85921697  1  0  -0.339477  0  3.298629  0  0  -0.262372  0  3.580362  0  0  -0.283096  0  3.598168  0  0  -0.332191  -0.248297  0  3.567825  0
O  O62  1  0.86234796  0.96952565  0.34841998  1  0  -0.674528  0  2.054486  0  0  -0.600493  0  2.307328  0  0  -0.631485  0  2.296864  0  0  -0.336269  -0.578754  0  2.313648  0
O  O63  1  0.13765266  0.03048086  0.65157734  1  0  -0.674538  0  2.054478  0  0  -0.600486  0  2.307279  0  0  -0.631496  0  2.296863  0  0  -0.336269  -0.578746  0  2.313602  0
O  O64  1  0.59027306  0.82882741  0.24378469  1  0  -0.611735  0  1.957687  0  0  -0.5606  0  2.177037  0  0  -0.58579  0  2.17033  0  0  -0.3153  -0.543141  0  2.181154  0
O  O65  1  0.40972520  0.17117401  0.75621779  1  0  -0.61179  0  1.957783  0  0  -0.560652  0  2.177147  0  0  -0.58584  0  2.17044  0  0  -0.315326  -0.543189  0  2.181265  0
O  O66  1  0.06484418  0.37034790  0.24764638  1  0  -0.628412  0  1.954858  0  0  -0.565878  0  2.192996  0  0  -0.594286  0  2.184614  0  0  -0.318773  -0.546062  0  2.198021  0
O  O67  1  0.93515815  0.62964684  0.75235478  1  0  -0.628423  0  1.954835  0  0  -0.565895  0  2.192955  0  0  -0.5943  0  2.184573  0  0  -0.318838  -0.546085  0  2.197983  0
O  O68  1  0.18057993  0.20056687  0.09702506  1  0  -0.65866  0  2.01003  0  0  -0.587291  0  2.244029  0  0  -0.616946  0  2.234654  0  0  -0.319194  -0.566514  0  2.249702  0
O  O69  1  0.81942131  0.79942916  0.90297478  1  0  -0.658719  0  2.009966  0  0  -0.587341  0  2.243969  0  0  -0.616999  0  2.234589  0  0  -0.319205  -0.56656  0  2.24964  0
O  O70  1  0.76800483  0.98249680  0.11748604  1  0  -0.839358  0  1.876649  0  0  -0.773884  0  2.069397  0  0  -0.797698  0  2.034344  0  0  -0.59365  -0.756913  0  2.09364  0
O  O71  1  0.23199558  0.01750187  0.88251355  1  0  -0.8394  0  1.876622  0  0  -0.773912  0  2.069429  0  0  -0.797741  0  2.034336  0  0  -0.593671  -0.756943  0  2.093666  0
