# generated using pymatgen
data_Cd2H42C60(N3O)3
_symmetry_space_group_name_H-M   'P 1'
_cell_length_a   12.15010307
_cell_length_b   18.27009774
_cell_length_c   18.26068567
_cell_angle_alpha   115.26946883
_cell_angle_beta   102.79197738
_cell_angle_gamma   102.76963758
_symmetry_Int_Tables_number   1
_chemical_formula_structural   Cd2H42C60(N3O)3
_chemical_formula_sum   'Cd4 H84 C120 N18 O6'
_cell_volume   3338.02932582
_cell_formula_units_Z   2
loop_
 _symmetry_equiv_pos_site_id
 _symmetry_equiv_pos_as_xyz
  1  'x, y, z'
loop_
 _atom_site_type_symbol
 _atom_site_label
 _atom_site_symmetry_multiplicity
 _atom_site_fract_x
 _atom_site_fract_y
 _atom_site_fract_z
 _atom_site_occupancy
 _atom_site_pbe_bader_charge
 _atom_site_pbe_bader_spin_density
 _atom_site_pbe_cm5_charge
 _atom_site_pbe_ddec_charge
 _atom_site_pbe_ddec_spin_density
 _atom_site_pbe_ddec_sum_bond_order
 _atom_site_pbe_magmom
Cd  Cd0  1  0.99998938  0.50000085  0.00002177  1  1.21445  0  0.767847  0.746824  0  2.389103  0
Cd  Cd1  1  0.00001007  0.99999537  0.99998935  1  1.19079  0  0.765189  0.624182  0  2.411165  0
Cd  Cd2  1  0.49998525  0.50001335  0.49999117  1  1.22045  0  0.767712  0.747819  0  2.381298  0
Cd  Cd3  1  0.99998284  0.99998296  0.49999935  1  1.219126  0  0.765338  0.748465  0  2.37144  0
H  H4  1  0.61893064  0.48968681  0.75962181  1  0.085124  0  0.097491  0.110343  0  1.047206  0
H  H5  1  0.24570705  0.12090272  0.50207500  1  0.088439  0  0.114662  0.0875  0  0.993955  0
H  H6  1  0.71437714  0.91668824  0.98299680  1  0.068258  0  0.10231  0.064139  0  1.032466  0
H  H7  1  0.06913435  0.39139897  0.06520933  1  0.074811  0  0.092567  0.137572  0  1.056582  0
H  H8  1  0.74060479  0.61383832  0.20481250  1  0.08221  0  0.108364  0.116627  0  0.99382  0
H  H9  1  0.35974341  0.90323236  0.12555232  1  0.041891  0  0.098712  0.106  0  1.016243  0
H  H10  1  0.62357582  0.21976215  0.35403456  1  0.072047  0  0.103825  0.110244  0  1.002348  0
H  H11  1  0.23389319  0.87367889  0.77767742  1  0.064554  0  0.098684  0.105664  0  1.01726  0
H  H12  1  0.16642345  0.29092575  0.37600272  1  0.030219  0  0.095063  0.140907  0  0.983118  0
H  H13  1  0.08504403  0.08494119  0.33156588  1  0.11202  0  0.105235  0.120263  0  1.032945  0
H  H14  1  0.47066683  0.65079756  0.88012391  1  0.046973  0  0.095944  0.094487  0  1.027657  0
H  H15  1  0.99960540  0.75268342  0.08414177  1  0.110521  0  0.105471  0.120974  0  1.033208  0
H  H16  1  0.10175212  0.02469932  0.18665429  1  0.075407  0  0.107862  0.076056  0  1.02251  0
H  H17  1  0.87538156  0.08575869  0.70992841  1  0.025892  0  0.094911  0.141078  0  0.98216  0
H  H18  1  0.24585561  0.33166673  0.24631627  1  0.101651  0  0.105265  0.119248  0  1.033767  0
H  H19  1  0.79063402  0.62467212  0.91513559  1  0.068735  0  0.095282  0.14121  0  0.981944  0
H  H20  1  0.25466020  0.23363978  0.39876551  1  0.025983  0  0.09203  0.133133  0  1.000138  0
H  H21  1  0.91545374  0.81319421  0.83826580  1  0.074872  0  0.107333  0.073971  0  1.023262  0
H  H22  1  0.59078723  0.12080591  0.77165237  1  0.048363  0  0.095729  0.093892  0  1.028299  0
H  H23  1  0.40924762  0.87918724  0.22837444  1  0.048259  0  0.095743  0.093906  0  1.028428  0
H  H24  1  0.83359956  0.70909120  0.62396621  1  0.03016  0  0.095056  0.140943  0  0.983127  0
H  H25  1  0.00041827  0.24731614  0.91586093  1  0.111113  0  0.105501  0.120978  0  1.032982  0
H  H26  1  0.50082292  0.33602649  0.70403763  1  0.088649  0  0.099671  0.098468  0  1.029555  0
H  H27  1  0.18052718  0.77080181  0.65066375  1  0.042467  0  0.095711  0.094603  0  1.027849  0
H  H28  1  0.25719474  0.50156166  0.38115866  1  0.110599  0  0.114419  0.08698  0  0.995019  0
H  H29  1  0.87266544  0.40902098  0.61416173  1  0.082515  0  0.109072  0.117901  0  0.994675  0
H  H30  1  0.80975724  0.95187631  0.31979116  1  0.087065  0  0.113162  0.083936  0  1.018639  0
H  H31  1  0.85944463  0.24136751  0.73046177  1  0.076284  0  0.097922  0.111053  0  1.046081  0
H  H32  1  0.53521799  0.79419177  0.40824581  1  0.081828  0  0.108656  0.118071  0  0.99378  0
H  H33  1  0.92280900  0.83753011  0.02428761  1  0.05859  0  0.107337  0.074569  0  1.02428  0
H  H34  1  0.37640554  0.78026262  0.64595240  1  0.072544  0  0.103856  0.110198  0  1.002294  0
H  H35  1  0.52935824  0.34922853  0.11987496  1  0.046424  0  0.095965  0.094463  0  1.027729  0
H  H36  1  0.85581631  0.60152648  0.83488403  1  0.017379  0  0.092349  0.133951  0  0.999064  0
H  H37  1  0.02074508  0.16588594  0.76699285  1  0.047502  0  0.092354  0.133794  0  0.998549  0
H  H38  1  0.67737204  0.67335739  0.60797088  1  0.06435  0  0.092581  0.137203  0  1.057155  0
H  H39  1  0.85756150  0.36747585  0.04728009  1  0.089782  0  0.11296  0.083578  0  1.01961  0
H  H40  1  0.51012355  0.32045799  0.36767235  1  0.07553  0  0.113361  0.084278  0  1.019083  0
H  H41  1  0.93088239  0.60860191  0.93480222  1  0.074458  0  0.092631  0.137671  0  1.056695  0
H  H42  1  0.12462119  0.91419883  0.29008784  1  0.025971  0  0.095006  0.141193  0  0.98216  0
H  H43  1  0.14054820  0.75860229  0.26954784  1  0.076518  0  0.097959  0.111056  0  1.04629  0
H  H44  1  0.54408938  0.77784635  0.90391257  1  0.065697  0  0.098917  0.10629  0  1.016501  0
H  H45  1  0.73149317  0.01722054  0.93364935  1  0.041069  0  0.102734  0.065318  0  1.031972  0
H  H46  1  0.83478035  0.63184623  0.33517909  1  0.069887  0  0.09988  0.098749  0  1.029926  0
H  H47  1  0.49918691  0.66396215  0.29599673  1  0.088628  0  0.099795  0.098676  0  1.029116  0
H  H48  1  0.08451917  0.18682392  0.16165685  1  0.074324  0  0.107334  0.073867  0  1.023493  0
H  H49  1  0.00403052  0.93405434  0.32588028  1  0.081117  0  0.09344  0.138924  0  1.054548  0
H  H50  1  0.20938174  0.37533524  0.08488022  1  0.070636  0  0.095259  0.141164  0  0.98182  0
H  H51  1  0.89826733  0.97532739  0.81333142  1  0.075094  0  0.107912  0.076208  0  1.022555  0
H  H52  1  0.87043318  0.72975286  0.48898850  1  0.12758  0  0.097215  0.109601  0  1.047253  0
H  H53  1  0.25941761  0.38619246  0.79524601  1  0.081518  0  0.108473  0.116811  0  0.993606  0
H  H54  1  0.14417286  0.39843940  0.16511133  1  0.054556  0  0.092396  0.13395  0  0.999255  0
H  H55  1  0.20222352  0.93343978  0.91659656  1  0.059709  0  0.102809  0.064839  0  1.031611  0
H  H56  1  0.75429046  0.87900363  0.49792966  1  0.089043  0  0.114646  0.087656  0  0.993917  0
H  H57  1  0.26980291  0.64620934  0.86581902  1  0.083122  0  0.103601  0.11033  0  1.002045  0
H  H58  1  0.91494490  0.91503952  0.66840618  1  0.111766  0  0.105338  0.120422  0  1.03305  0
H  H59  1  0.74535957  0.76637913  0.60121036  1  0.025428  0  0.092033  0.133117  0  1.000134  0
H  H60  1  0.64027072  0.09676330  0.87444513  1  0.041901  0  0.098657  0.105964  0  1.01603  0
H  H61  1  0.12496386  0.38171990  0.88016834  1  0.112999  0  0.114573  0.086806  0  0.993763  0
H  H62  1  0.87508655  0.61832644  0.11989871  1  0.113133  0  0.114539  0.086694  0  0.993946  0
H  H63  1  0.07719587  0.16240646  0.97564008  1  0.058214  0  0.107466  0.074871  0  1.024008  0
H  H64  1  0.79780240  0.06659990  0.08340329  1  0.059883  0  0.102747  0.064568  0  1.031822  0
H  H65  1  0.28562636  0.08335063  0.01693642  1  0.067821  0  0.102337  0.06415  0  1.032531  0
H  H66  1  0.48990979  0.67958483  0.63228721  1  0.073964  0  0.113322  0.084077  0  1.019379  0
H  H67  1  0.59580444  0.86487535  0.21895584  1  0.060923  0  0.103999  0.110689  0  1.002614  0
H  H68  1  0.74283797  0.49849345  0.61879836  1  0.111079  0  0.114498  0.08685  0  0.995062  0
H  H69  1  0.38108759  0.51030179  0.24039733  1  0.08435  0  0.097536  0.110511  0  1.047208  0
H  H70  1  0.97924652  0.83407802  0.23300752  1  0.04812  0  0.092289  0.133734  0  0.998742  0
H  H71  1  0.76611152  0.12632839  0.22230716  1  0.062841  0  0.098608  0.105662  0  1.017236  0
H  H72  1  0.40417127  0.13508545  0.78107426  1  0.06025  0  0.103891  0.110508  0  1.002821  0
H  H73  1  0.26851016  0.98271799  0.06628661  1  0.041679  0  0.102757  0.065235  0  1.031916  0
H  H74  1  0.79701413  0.29701277  0.63236615  1  0.067409  0  0.099348  0.097905  0  1.027539  0
H  H75  1  0.46474642  0.20576837  0.59178016  1  0.08276  0  0.108667  0.118053  0  0.993718  0
H  H76  1  0.16523674  0.36815202  0.66481552  1  0.070201  0  0.099834  0.098706  0  1.029796  0
H  H77  1  0.20298704  0.70297715  0.36765981  1  0.066812  0  0.099433  0.097938  0  1.027736  0
H  H78  1  0.99596520  0.06590770  0.67413028  1  0.080906  0  0.093338  0.13877  0  1.05458  0
H  H79  1  0.45592727  0.22219003  0.09605986  1  0.065713  0  0.098834  0.106189  0  1.016542  0
H  H80  1  0.73017498  0.35380839  0.13419784  1  0.083733  0  0.10365  0.110403  0  1.002054  0
H  H81  1  0.81947586  0.22920036  0.34934470  1  0.042674  0  0.095727  0.094601  0  1.027903  0
H  H82  1  0.19025395  0.04803717  0.68021689  1  0.087173  0  0.113187  0.083966  0  1.018444  0
H  H83  1  0.14245111  0.63255227  0.95275286  1  0.08896  0  0.112931  0.083634  0  1.019453  0
H  H84  1  0.12958332  0.27024927  0.51100658  1  0.127797  0  0.097192  0.109568  0  1.047078  0
H  H85  1  0.12731747  0.59101028  0.38583424  1  0.081582  0  0.10909  0.117818  0  0.994518  0
H  H86  1  0.75415020  0.66834957  0.75365370  1  0.100447  0  0.105225  0.119306  0  1.033774  0
H  H87  1  0.32265625  0.32667518  0.39203066  1  0.063923  0  0.092603  0.137287  0  1.05711  0
C  C88  1  0.35584824  0.68430048  0.22037782  1  -0.018276  0  -0.010258  0.013794  0  4.009895  0
C  C89  1  0.74331017  0.70082165  0.58571792  1  -0.025977  0  -0.240107  -0.449494  0  3.939089  0
C  C90  1  0.82698677  0.31492439  0.87642844  1  0.708061  0  0.083325  0.218845  0  4.133463  0
C  C91  1  0.09134742  0.85071782  0.62366137  1  -0.043197  0  -0.045267  -0.093625  0  4.045097  0
C  C92  1  0.71965007  0.86024526  0.93087768  1  0.423828  0  0.018063  0.058841  0  4.058554  0
C  C93  1  0.67098251  0.53599342  0.31490796  1  -0.076418  0  -0.010278  0.014366  0  4.009622  0
C  C94  1  0.37492960  0.21868930  0.11275709  1  -0.058632  0  -0.104195  -0.204894  0  3.99405  0
C  C95  1  0.12357736  0.78097188  0.33018927  1  -0.026439  0  -0.103277  -0.201383  0  3.970544  0
C  C96  1  0.40561585  0.48292769  0.64130932  1  0.45815  0  0.084908  0.077103  0  3.972334  0
C  C97  1  0.17347049  0.75392404  0.52706855  1  -0.027861  0  -0.036586  -0.036385  0  4.045116  0
C  C98  1  0.15653758  0.89405622  0.78125134  1  -0.073684  0  -0.104285  -0.204486  0  3.993014  0
C  C99  1  0.48741195  0.43855039  0.31431073  1  0.698309  0  0.083221  0.218832  0  4.133235  0
C  C100  1  0.98057526  0.15021716  0.95293496  1  0.464298  0  0.025327  0.073005  0  4.009137  0
C  C101  1  0.01898350  0.08189335  0.27846719  1  -0.015176  0  -0.09412  -0.180708  0  3.957248  0
C  C102  1  0.63208019  0.70732987  0.82041062  1  -0.02427  0  0.001506  0.13117  0  3.976135  0
C  C103  1  0.84261897  0.58628067  0.88515724  1  -0.091583  0  -0.240513  -0.450666  0  3.936208  0
C  C104  1  0.64572353  0.47266480  0.22659418  1  0.006409  0  -0.03641  -0.035701  0  4.04539  0
C  C105  1  0.86462325  0.22108776  0.53626331  1  -0.017027  0  -0.01107  0.013267  0  4.009029  0
C  C106  1  0.95730819  0.11559977  0.70147171  1  -0.056444  0  -0.240224  -0.450126  0  3.93497  0
C  C107  1  0.28035518  0.13978523  0.06906867  1  0.427581  0  0.017959  0.058612  0  4.059454  0
C  C108  1  0.77169331  0.61457175  0.36430152  1  0.035412  0  -0.085477  -0.095642  0  3.99458  0
C  C109  1  0.25895185  0.27853695  0.19634078  1  0.002485  0  -0.093812  -0.180368  0  3.958655  0
C  C110  1  0.84347588  0.10596015  0.21874003  1  -0.070953  0  -0.104339  -0.204747  0  3.9931  0
C  C111  1  0.23393995  0.44194039  0.82739676  1  -0.062705  0  -0.088879  -0.188038  0  3.959597  0
C  C112  1  0.27679469  0.51726695  0.82242829  1  0.048313  0  0.011855  0.127907  0  3.997156  0
C  C113  1  0.97210793  0.95249213  0.80272819  1  0.399215  0  0.025206  0.070326  0  4.01021  0
C  C114  1  0.75975647  0.22759721  0.85140053  1  -0.003075  0  -0.045799  -0.096996  0  4.04755  0
C  C115  1  0.79154194  0.38551355  0.55844439  1  -0.061754  0  -0.088951  -0.189698  0  3.961571  0
C  C116  1  0.98101123  0.91810745  0.72151481  1  -0.01571  0  -0.09406  -0.180602  0  3.957254  0
C  C117  1  0.28392526  0.35520971  0.50946598  1  0.50075  0  0.119454  0.319526  0  3.974332  0
C  C118  1  0.17035061  0.57944651  0.91640841  1  0.491275  0  0.0379  0.088653  0  3.989098  0
C  C119  1  0.76448733  0.35938980  0.84230515  1  0.421644  0  0.084555  0.077049  0  3.974792  0
C  C120  1  0.24082104  0.69479754  0.51693973  1  0.044309  0  0.012094  0.130145  0  3.996455  0
C  C121  1  0.15265010  0.79169222  0.60406357  1  -0.079228  0  -0.095199  -0.160477  0  4.047359  0
C  C122  1  0.81167185  0.18036265  0.88774892  1  0.007846  0  0.000398  0.129068  0  3.978309  0
C  C123  1  0.04955203  0.87602694  0.56144990  1  0.770418  0  0.082145  0.215951  0  4.134256  0
C  C124  1  0.75916486  0.30521429  0.48305335  1  0.044894  0  0.012222  0.130433  0  3.995246  0
C  C125  1  0.53300069  0.62374384  0.77320299  1  -0.03032  0  -0.044829  -0.095303  0  4.044465  0
C  C126  1  0.59092465  0.33716068  0.42081844  1  0.496297  0  0.037842  0.087773  0  3.992088  0
C  C127  1  0.85931465  0.07077510  0.13979735  1  0.463928  0  0.018525  0.060088  0  4.052824  0
C  C128  1  0.07576884  0.88703582  0.70731143  1  0.024669  0  0.001141  0.129235  0  3.976409  0
C  C129  1  0.40910365  0.66288216  0.57914750  1  0.498177  0  0.037951  0.088058  0  3.992205  0
C  C130  1  0.36051017  0.81174067  0.20753997  1  -0.09296  0  -0.095199  -0.157797  0  4.047939  0
C  C131  1  0.76610280  0.55810075  0.17266202  1  -0.053996  0  -0.088644  -0.187761  0  3.959993  0
C  C132  1  0.77471415  0.49118288  0.84623546  1  0.53608  0  0.118223  0.318127  0  3.977899  0
C  C133  1  0.13533033  0.77888460  0.46373068  1  -0.018095  0  -0.010972  0.013147  0  4.008898  0
C  C134  1  0.32901221  0.46402426  0.68509109  1  -0.076085  0  -0.010273  0.014256  0  4.009458  0
C  C135  1  0.35428145  0.52735484  0.77341268  1  0.00619  0  -0.036605  -0.035963  0  4.045182  0
C  C136  1  0.75777636  0.41312518  0.13119498  1  -0.07432  0  -0.091723  -0.187906  0  3.968543  0
C  C137  1  0.04267926  0.88436095  0.29852887  1  -0.056967  0  -0.240402  -0.450666  0  3.935439  0
C  C138  1  0.40697722  0.17356408  0.61523201  1  -0.071941  0  -0.088847  -0.190283  0  3.964066  0
C  C139  1  0.46699449  0.37628158  0.22678408  1  -0.030771  0  -0.044751  -0.095305  0  4.044458  0
C  C140  1  0.62507632  0.78134251  0.88720087  1  -0.055061  0  -0.104409  -0.205279  0  3.993904  0
C  C141  1  0.02790278  0.04752551  0.19725730  1  0.398948  0  0.025565  0.071069  0  4.009902  0
C  C142  1  0.26207841  0.88654107  0.10527636  1  -0.0583  0  -0.105317  -0.205522  0  3.99429  0
C  C143  1  0.24024215  0.77240957  0.14864100  1  -0.002973  0  -0.045793  -0.097196  0  4.04767  0
C  C144  1  0.82649176  0.24606063  0.47293030  1  -0.028435  0  -0.036584  -0.036522  0  4.044535  0
C  C145  1  0.20730679  0.33071052  0.54935495  1  -0.132082  0  -0.102917  -0.199622  0  3.969098  0
C  C146  1  0.58100641  0.22747316  0.75474838  1  0.053855  0  -0.035818  -0.036164  0  4.043801  0
C  C147  1  0.59436551  0.51709709  0.35868092  1  0.458557  0  0.084835  0.07686  0  3.972453  0
C  C148  1  0.45207338  0.60421585  0.81262383  1  -0.066058  0  -0.095706  -0.15993  0  4.045805  0
C  C149  1  0.83909944  0.56058301  0.12424782  1  0.44921  0  0.04047  0.090995  0  3.983903  0
C  C150  1  0.40702355  0.63485984  0.24961618  1  -0.076916  0  -0.085851  -0.096194  0  3.991827  0
C  C151  1  0.54533741  0.82147603  0.30446402  1  -0.02975  0  0.011727  0.129952  0  3.996826  0
C  C152  1  0.16094727  0.43946268  0.87581787  1  0.458897  0  0.040518  0.091047  0  3.983547  0
C  C153  1  0.34480049  0.71796218  0.58658480  1  -0.055743  0  -0.092964  -0.189127  0  3.970055  0
C  C154  1  0.27889802  0.56359932  0.43900843  1  0.45134  0  0.040766  0.090685  0  3.98376  0
C  C155  1  0.64414058  0.31571027  0.77969243  1  -0.018221  0  -0.010153  0.013972  0  4.009404  0
C  C156  1  0.82967292  0.42058488  0.08363520  1  0.489977  0  0.037884  0.088687  0  3.988979  0
C  C157  1  0.79270131  0.66929678  0.45063562  1  -0.132391  0  -0.102919  -0.199635  0  3.969336  0
C  C158  1  0.06258974  0.80276718  0.08116060  1  -0.037107  0  -0.094294  -0.182656  0  3.957477  0
C  C159  1  0.71427964  0.87479599  0.43582929  1  0.425886  0  0.04063  0.089279  0  3.987072  0
C  C160  1  0.34176745  0.54862373  0.21815910  1  -0.03661  0  -0.10362  -0.200958  0  3.971698  0
C  C161  1  0.71606969  0.64480341  0.49052020  1  0.502402  0  0.119441  0.319527  0  3.97417  0
C  C162  1  0.25440587  0.08442600  0.66349383  1  0.494543  0  0.038007  0.088288  0  3.987392  0
C  C163  1  0.15739008  0.41371828  0.11486113  1  -0.130141  0  -0.240535  -0.450508  0  3.935717  0
C  C164  1  0.18834524  0.81963045  0.11226157  1  0.008046  0  0.000706  0.12964  0  3.977736  0
C  C165  1  0.65823660  0.45137529  0.78188430  1  -0.050182  0  -0.103482  -0.200656  0  3.971711  0
C  C166  1  0.93742640  0.19722069  0.91882836  1  -0.037096  0  -0.094057  -0.182104  0  3.956817  0
C  C167  1  0.87640533  0.21899791  0.66981446  1  -0.030053  0  -0.103017  -0.200831  0  3.970441  0
C  C168  1  0.36791904  0.29269355  0.17955867  1  -0.023931  0  0.001329  0.130885  0  3.976213  0
C  C169  1  0.73793276  0.11343514  0.89470745  1  -0.057612  0  -0.105044  -0.205169  0  3.994251  0
C  C170  1  0.45464903  0.17850292  0.69557483  1  -0.031162  0  0.011857  0.13047  0  3.996915  0
C  C171  1  0.51256373  0.56147826  0.68567101  1  0.698674  0  0.083252  0.21873  0  4.133592  0
C  C172  1  0.83095666  0.80265990  0.85037296  1  0.411859  0  0.025921  0.073878  0  4.009868  0
C  C173  1  0.24224237  0.58690166  0.86884161  1  -0.070995  0  -0.091587  -0.187649  0  3.96826  0
C  C174  1  0.72323376  0.48276247  0.17760644  1  0.050232  0  0.011764  0.127969  0  3.997772  0
C  C175  1  0.59299851  0.82638828  0.38479176  1  0.003987  0  -0.088717  -0.189869  0  3.964121  0
C  C176  1  0.23550103  0.64062679  0.15777245  1  0.412576  0  0.084427  0.076896  0  3.975295  0
C  C177  1  0.54793475  0.39580506  0.18737253  1  -0.065535  0  -0.095724  -0.159898  0  4.045867  0
C  C178  1  0.22831629  0.38543685  0.63569255  1  0.035656  0  -0.08527  -0.09533  0  3.994269  0
C  C179  1  0.22528534  0.50882392  0.15381332  1  0.534743  0  0.118585  0.318574  0  3.978174  0
C  C180  1  0.65520187  0.28206582  0.41339894  1  -0.056384  0  -0.093067  -0.189324  0  3.97003  0
C  C181  1  0.59297473  0.36514115  0.75043653  1  -0.064013  0  -0.085818  -0.096099  0  3.992391  0
C  C182  1  0.41897712  0.77253042  0.24530271  1  0.052814  0  -0.035895  -0.036059  0  4.044682  0
C  C183  1  0.78884431  0.06948743  0.92958687  1  0.473595  0  0.017408  0.056787  0  4.059568  0
C  C184  1  0.16902769  0.19736085  0.14956344  1  0.412433  0  0.025824  0.073961  0  4.009811  0
C  C185  1  0.25670553  0.29919923  0.41426804  1  -0.026367  0  -0.240131  -0.449563  0  3.939176  0
C  C186  1  0.95039000  0.12393243  0.43852810  1  0.770684  0  0.082223  0.215887  0  4.133996  0
C  C187  1  0.17300366  0.68508959  0.12364014  1  0.716562  0  0.083598  0.219342  0  4.133258  0
C  C188  1  0.63949417  0.18825898  0.79249608  1  -0.093806  0  -0.09529  -0.157866  0  4.047273  0
C  C189  1  0.84267574  0.25048379  0.61501962  1  -0.082524  0  -0.08592  -0.095628  0  3.990329  0
C  C190  1  0.01943453  0.84974278  0.04701763  1  0.462961  0  0.025526  0.073629  0  4.009583  0
C  C191  1  0.14070734  0.92925162  0.86019530  1  0.465548  0  0.01825  0.059222  0  4.052991  0
C  C192  1  0.20845568  0.61451509  0.44153729  1  -0.062151  0  -0.089052  -0.189548  0  3.961647  0
C  C193  1  0.84732557  0.20829569  0.39593589  1  -0.079651  0  -0.095258  -0.160438  0  4.047197  0
C  C194  1  0.15730310  0.74949183  0.38498548  1  -0.083019  0  -0.085928  -0.09544  0  3.990168  0
C  C195  1  0.07159628  0.84547560  0.35476175  1  0.540518  0  0.119908  0.320442  0  3.975263  0
C  C196  1  0.92422624  0.11296565  0.29267913  1  0.02456  0  0.001199  0.129154  0  3.976352  0
C  C197  1  0.74103938  0.72148062  0.80361609  1  0.003808  0  -0.09369  -0.18044  0  3.958673  0
C  C198  1  0.07781423  0.84171849  0.48273205  1  0.417535  0  0.085775  0.078783  0  3.973901  0
C  C199  1  0.92212580  0.15824024  0.51724922  1  0.417036  0  0.085695  0.0786  0  3.973907  0
C  C200  1  0.28570974  0.12511944  0.56418187  1  0.502557  0  0.040497  0.089577  0  3.987643  0
C  C201  1  0.62629214  0.86785960  0.28131389  1  -0.028999  0  -0.092865  -0.18942  0  3.967612  0
C  C202  1  0.74559602  0.91549591  0.33651864  1  0.493734  0  0.03765  0.08783  0  3.988674  0
C  C203  1  0.21115927  0.93046344  0.07036314  1  0.473756  0  0.017557  0.057075  0  4.059212  0
C  C204  1  0.92837130  0.15448251  0.64523261  1  0.543858  0  0.119688  0.31954  0  3.97549  0
C  C205  1  0.90861864  0.14926099  0.37632569  1  -0.043423  0  -0.045317  -0.093621  0  4.044926  0
C  C206  1  0.37370136  0.13209795  0.71871306  1  -0.028804  0  -0.093004  -0.189703  0  3.967899  0
C  C207  1  0.72113224  0.43645256  0.56094959  1  0.449767  0  0.040462  0.090676  0  3.98427  0
N  N208  1  0.09092623  0.91308308  0.04036823  1  -1.260485  0  -0.354192  -0.269495  0  3.517463  0
N  N209  1  0.82244091  0.87279293  0.91342046  1  -1.237427  0  -0.353839  -0.268233  0  3.519064  0
N  N210  1  0.90907687  0.08686516  0.95956691  1  -1.262363  0  -0.354262  -0.269406  0  3.517559  0
N  N211  1  0.94982151  0.12560832  0.57114269  1  -1.227652  0  -0.334793  -0.333118  0  3.434818  0
N  N212  1  0.17755414  0.12723236  0.08651670  1  -1.2371  0  -0.353737  -0.268213  0  3.518997  0
N  N213  1  0.21004797  0.08092302  0.58726641  1  -1.239422  0  -0.33323  -0.24303  0  3.497766  0
N  N214  1  0.62051080  0.57091497  0.44523375  1  -1.200821  0  -0.334329  -0.332114  0  3.435708  0
N  N215  1  0.62253725  0.41330604  0.49356596  1  -1.22593  0  -0.333961  -0.242159  0  3.504396  0
N  N216  1  0.37750317  0.58675101  0.50638863  1  -1.226542  0  -0.334176  -0.242318  0  3.504178  0
N  N217  1  0.78994617  0.91898333  0.41273885  1  -1.239251  0  -0.333264  -0.242857  0  3.497596  0
N  N218  1  0.05053141  0.95939039  0.87279251  1  -1.24485  0  -0.35358  -0.266916  0  3.515993  0
N  N219  1  0.37947023  0.42910916  0.55475453  1  -1.199917  0  -0.334382  -0.332209  0  3.435503  0
N  N220  1  0.82490341  0.44584901  0.87487490  1  -1.220689  0  -0.333239  -0.329877  0  3.435561  0
N  N221  1  0.12940381  0.50678938  0.91989033  1  -1.247371  0  -0.334297  -0.244268  0  3.503097  0
N  N222  1  0.94949762  0.04064539  0.12719682  1  -1.245227  0  -0.353903  -0.267682  0  3.5164  0
N  N223  1  0.17508902  0.55416561  0.12519315  1  -1.22071  0  -0.333324  -0.330247  0  3.436273  0
N  N224  1  0.05012346  0.87434847  0.42884012  1  -1.226907  0  -0.334774  -0.333183  0  3.434757  0
N  N225  1  0.87062785  0.49324982  0.08016820  1  -1.246125  0  -0.334305  -0.24404  0  3.502877  0
O  O226  1  0.06179516  0.64598143  0.07000544  1  -1.155403  0  -0.341976  -0.511038  0  2.35881  0
O  O227  1  0.99250497  0.93006106  0.57616412  1  -1.167422  0  -0.341573  -0.510099  0  2.356241  0
O  O228  1  0.00742376  0.06988858  0.42380505  1  -1.167151  0  -0.341554  -0.509878  0  2.355785  0
O  O229  1  0.93819058  0.35402482  0.93007394  1  -1.15647  0  -0.341829  -0.510974  0  2.358819  0
O  O230  1  0.41570293  0.42402902  0.35370751  1  -1.155874  0  -0.343001  -0.512571  0  2.354575  0
O  O231  1  0.58424827  0.57601320  0.64626547  1  -1.156373  0  -0.343038  -0.512349  0  2.354494  0
