# generated using pymatgen
data_CoMo3H8C10(NO5)2
_symmetry_space_group_name_H-M   'P 1'
_cell_length_a   7.09666530
_cell_length_b   10.40741825
_cell_length_c   10.63144448
_cell_angle_alpha   89.04646216
_cell_angle_beta   90.16757784
_cell_angle_gamma   79.24180986
_symmetry_Int_Tables_number   1
_chemical_formula_structural   CoMo3H8C10(NO5)2
_chemical_formula_sum   'Co2 Mo6 H16 C20 N4 O20'
_cell_volume   771.29429152
_cell_formula_units_Z   2
loop_
 _symmetry_equiv_pos_site_id
 _symmetry_equiv_pos_as_xyz
  1  'x, y, z'
loop_
 _atom_site_type_symbol
 _atom_site_label
 _atom_site_symmetry_multiplicity
 _atom_site_fract_x
 _atom_site_fract_y
 _atom_site_fract_z
 _atom_site_occupancy
 _atom_site_hle17_ddec_charge
 _atom_site_hle17_ddec_spin_density
 _atom_site_hle17_ddec_sum_bond_order
 _atom_site_hle17_magmom
 _atom_site_hse06_10hf_ddec_charge
 _atom_site_hse06_10hf_ddec_spin_density
 _atom_site_hse06_10hf_ddec_sum_bond_order
 _atom_site_hse06_10hf_magmom
 _atom_site_hse06_ddec_charge
 _atom_site_hse06_ddec_spin_density
 _atom_site_hse06_ddec_sum_bond_order
 _atom_site_hse06_magmom
 _atom_site_pbe_cm5_charge
 _atom_site_pbe_ddec_charge
 _atom_site_pbe_ddec_spin_density
 _atom_site_pbe_ddec_sum_bond_order
 _atom_site_pbe_magmom
Co  Co0  1  0.24457787  0.08034597  0.80518992  1  0.978914  -1.230942  2.457825  -1.108  0.994212  -1.025954  2.870408  -0.952  1.039307  -1.019369  2.801718  -0.955  0.695677  0.969002  -1.014409  2.91207  -0.93
Co  Co1  1  0.75515403  0.91937615  0.19490001  1  0.979597  -1.230549  2.457456  -1.107  0.994444  -1.025793  2.870406  -0.952  1.039574  -1.019271  2.801705  -0.955  0.69569  0.969462  -1.014328  2.911683  -0.93
Mo  Mo2  1  0.11475108  0.34595252  0.01848694  1  2.207443  0.118712  3.974929  0.097  2.21071  0.028172  4.522903  0.022  2.314783  0.018832  4.483407  0.014  1.521895  2.133479  0.03229  4.558498  0.025
Mo  Mo3  1  0.88533972  0.65386674  0.98170008  1  2.207708  0.118031  3.974784  0.096  2.211066  0.027981  4.522521  0.022  2.315031  0.018718  4.483111  0.014  1.521928  2.133847  0.032077  4.55814  0.025
Mo  Mo4  1  0.37853034  0.53321002  0.13282485  1  2.228046  0.023519  4.084467  0.019  2.241974  0.001419  4.605884  0.001  2.343779  0.000301  4.569582  0.0  1.532583  2.16713  0.000997  4.637851  0.001
Mo  Mo5  1  0.62186553  0.46652324  0.86695671  1  2.226554  0.023282  4.086006  0.019  2.240332  0.001384  4.60762  0.001  2.342117  0.000292  4.571359  0.0  1.531917  2.165321  0.000981  4.639831  0.001
Mo  Mo6  1  0.27530028  0.89116373  0.10029411  1  2.166953  0.007165  4.095563  -0.005  2.157175  -0.031444  4.698464  -0.054  2.26131  -0.026288  4.661105  -0.046  1.537412  2.084015  -0.036218  4.723792  -0.061
Mo  Mo7  1  0.72457701  0.10849317  0.89967771  1  2.167094  0.007098  4.095174  -0.005  2.157319  -0.031487  4.698261  -0.054  2.261451  -0.026332  4.660904  -0.046  1.53723  2.084133  -0.036254  4.723603  -0.061
H  H8  1  0.19386820  0.36326835  0.72686329  1  0.103743  8.9e-05  0.948333  0.0  0.10744  0.000222  1.01397  0.0  0.108669  0.00015  1.011982  0.0  0.123576  0.106348  0.000235  1.015958  0.0
H  H9  1  0.80622365  0.63653181  0.27382545  1  0.10274  9e-05  0.947943  0.0  0.106535  0.000223  1.013715  0.0  0.107715  0.000151  1.011762  0.0  0.122998  0.105472  0.000236  1.015696  0.0
H  H10  1  0.18363682  0.47766391  0.51746023  1  0.105141  0.000345  0.962528  0.001  0.115509  1.6e-05  1.021981  0.0  0.116815  2.8e-05  1.023661  0.0  0.109705  0.114481  -1.3e-05  1.021001  0.0
H  H11  1  0.81656246  0.52253649  0.48346539  1  0.104756  0.000347  0.962394  0.001  0.115205  1.6e-05  1.021754  0.0  0.116487  2.8e-05  1.023452  0.0  0.109675  0.114185  -1.3e-05  1.02076  0.0
H  H12  1  0.20435466  0.34490545  0.32076293  1  0.105307  -0.000121  0.968107  -0.001  0.109318  0.000156  1.03623  0.0  0.111533  7.9e-05  1.033882  0.0  0.107098  0.107494  0.000204  1.03811  0.0
H  H13  1  0.79552737  0.65577487  0.67986260  1  0.105094  -0.00012  0.968504  -0.001  0.109612  0.000155  1.036174  0.0  0.111851  7.9e-05  1.033761  0.0  0.107316  0.107779  0.000203  1.038109  0.0
H  H14  1  0.23537321  0.10278054  0.34154836  1  0.127536  0.000515  0.941596  0.001  0.135827  7.7e-05  1.001265  0.0  0.138882  7.4e-05  1.000223  0.0  0.115836  0.133514  6.4e-05  1.002194  0.0
H  H15  1  0.76442844  0.89783105  0.65855736  1  0.128075  0.000515  0.942771  0.001  0.136628  7.7e-05  1.001954  0.0  0.139721  7.4e-05  1.000861  0.0  0.115879  0.134311  6.4e-05  1.002877  0.0
H  H16  1  0.24401021  0.89935391  0.38082128  1  0.112678  0.000391  0.985099  0.0  0.117554  9.6e-05  1.054261  0.0  0.120318  9.3e-05  1.053482  0.0  0.10641  0.115678  4.2e-05  1.054517  0.0
H  H17  1  0.75568878  0.10123140  0.61889453  1  0.113408  0.000393  0.984025  0.0  0.118176  9.6e-05  1.05322  0.0  0.120971  9.3e-05  1.05241  0.0  0.106855  0.116294  4.2e-05  1.053477  0.0
H  H18  1  0.29243452  0.66448315  0.44742438  1  0.111682  -2e-06  0.98304  0.0  0.122742  0.000129  1.041216  0.0  0.125311  7.8e-05  1.038355  0.0  0.104615  0.120782  0.000163  1.04384  0.0
H  H19  1  0.70754957  0.33594873  0.55187316  1  0.112275  -3e-06  0.982895  0.0  0.123642  0.000128  1.040605  0.0  0.126268  7.8e-05  1.03766  0.0  0.104795  0.121649  0.000162  1.043243  0.0
H  H20  1  0.32767813  0.60856461  0.67971400  1  0.108235  0.000245  0.967953  0.0  0.114892  1e-05  1.030857  0.0  0.116144  2e-05  1.03203  0.0  0.107433  0.11374  4e-06  1.030541  0.0
H  H21  1  0.67258540  0.39128761  0.31950177  1  0.108271  0.000247  0.967878  0.0  0.114953  1e-05  1.030715  0.0  0.116188  2e-05  1.031901  0.0  0.107313  0.113814  5e-06  1.030378  0.0
H  H22  1  0.31915361  0.78760056  0.83190189  1  0.108939  0.000197  0.947584  0.0  0.112282  0.000223  1.011243  0.0  0.113351  0.000182  1.009124  0.0  0.123745  0.11148  0.000213  1.012929  0.0
H  H23  1  0.68064896  0.21204659  0.16767219  1  0.108534  0.000198  0.947674  0.0  0.111899  0.000225  1.011441  0.0  0.112954  0.000183  1.009336  0.0  0.123579  0.111099  0.000215  1.013108  0.0
C  C24  1  0.20128543  0.30976010  0.63950665  1  0.138283  0.020106  3.632463  0.014  0.108479  0.007893  3.890424  0.005  0.118667  0.006148  3.907458  0.004  0.053374  0.101282  0.008651  3.879743  0.005
C  C25  1  0.79875317  0.69025783  0.36105463  1  0.139492  0.020083  3.632828  0.014  0.109175  0.007875  3.89058  0.005  0.119363  0.006135  3.907644  0.004  0.054065  0.102035  0.008636  3.879906  0.005
C  C26  1  0.19522153  0.37209002  0.52246062  1  -0.114773  -0.00487  3.721643  -0.007  -0.128263  -0.000349  3.974662  -0.001  -0.136797  -0.000766  3.996905  -0.001  -0.077751  -0.122493  -7.4e-05  3.959721  -0.001
C  C27  1  0.80497218  0.62811742  0.47818833  1  -0.114204  -0.004875  3.721347  -0.007  -0.127602  -0.000346  3.974398  -0.001  -0.136128  -0.000765  3.99664  -0.001  -0.078176  -0.121816  -7.2e-05  3.959417  -0.001
C  C28  1  0.20611043  0.29855247  0.41329424  1  0.005518  0.021871  3.70222  0.015  -0.015365  0.008456  3.957482  0.005  -0.008778  0.005921  3.974233  0.003  -0.064754  -0.019495  0.010333  3.946171  0.006
C  C29  1  0.79386461  0.70189560  0.58721355  1  0.005929  0.021865  3.70215  0.015  -0.015551  0.00844  3.957617  0.005  -0.008932  0.005917  3.974316  0.003  -0.064426  -0.019711  0.010321  3.946321  0.006
C  C30  1  0.22351676  0.16360670  0.42459429  1  -0.11587  -0.005411  3.657625  -0.008  -0.135116  -0.000672  3.905737  -0.002  -0.142152  -0.000875  3.924789  -0.002  -0.069711  -0.130538  -0.000474  3.89342  -0.002
C  C31  1  0.77625481  0.83683529  0.57566236  1  -0.117272  -0.005403  3.659556  -0.008  -0.136562  -0.000669  3.907676  -0.002  -0.143667  -0.000874  3.9267  -0.002  -0.070026  -0.131974  -0.000472  3.895357  -0.002
C  C32  1  0.22990900  0.10613091  0.54447396  1  0.163997  0.017644  3.761332  0.013  0.160801  0.007077  4.009713  0.004  0.171059  0.005281  4.026096  0.003  0.118993  0.153282  0.008473  3.99954  0.005
C  C33  1  0.76985011  0.89410457  0.45568696  1  0.16545  0.017621  3.763689  0.013  0.161526  0.007065  4.012113  0.004  0.171881  0.005275  4.028364  0.003  0.119021  0.154063  0.008468  4.001975  0.005
C  C34  1  0.25339952  0.96655738  0.57052109  1  0.158259  0.010313  3.765106  0.007  0.152446  0.005378  4.015118  0.003  0.160754  0.004049  4.03302  0.002  0.116541  0.146753  0.006021  4.003996  0.004
C  C35  1  0.74636407  0.03362160  0.42937285  1  0.158138  0.01036  3.765941  0.007  0.152554  0.005383  4.015673  0.003  0.160854  0.004054  4.033526  0.002  0.11642  0.146832  0.006032  4.004583  0.004
C  C36  1  0.25956163  0.87100547  0.47973245  1  -0.121957  -0.001685  3.690077  -0.003  -0.142825  -0.000142  3.944498  -0.001  -0.149448  -0.000415  3.964506  -0.001  -0.077663  -0.138515  0.000118  3.931447  -0.001
C  C37  1  0.74022330  0.12938008  0.51994212  1  -0.124167  -0.001705  3.691026  -0.003  -0.145016  -0.000141  3.94559  -0.001  -0.151689  -0.000417  3.965583  -0.001  -0.078728  -0.140691  0.00012  3.932539  -0.001
C  C38  1  0.28558327  0.74023372  0.51762309  1  -0.013761  0.011534  3.714585  0.008  -0.03669  0.005765  3.96952  0.003  -0.032416  0.004312  3.988509  0.003  -0.071919  -0.040182  0.007014  3.95788  0.004
C  C39  1  0.71442768  0.26006852  0.48183311  1  -0.013438  0.011598  3.713247  0.008  -0.036522  0.005774  3.967851  0.003  -0.032272  0.004324  3.986848  0.003  -0.071329  -0.039989  0.00703  3.956223  0.004
C  C40  1  0.30628314  0.70915592  0.64533118  1  -0.104113  -0.000935  3.698821  -0.002  -0.11947  0.000206  3.956602  0.0  -0.128339  -0.000321  3.979809  -0.001  -0.078117  -0.113452  0.000724  3.941959  0.0
C  C41  1  0.69375552  0.29081180  0.35407788  1  -0.103266  -0.000969  3.698464  -0.002  -0.118609  0.000203  3.956071  0.0  -0.127482  -0.000324  3.97929  -0.001  -0.078051  -0.11259  0.000723  3.94142  0.0
C  C42  1  0.30081060  0.80853998  0.73194610  1  0.173528  0.012171  3.597136  0.009  0.143574  0.006032  3.851971  0.004  0.155029  0.005052  3.866782  0.003  0.061702  0.135062  0.006555  3.843073  0.004
C  C43  1  0.69899053  0.19127536  0.26764355  1  0.174081  0.012263  3.596839  0.009  0.143901  0.006061  3.851745  0.004  0.155376  0.005072  3.866549  0.003  0.061848  0.135391  0.006583  3.842844  0.004
N  N44  1  0.21885343  0.17887209  0.65088364  1  -0.278324  0.018402  3.312583  0.013  -0.244229  0.009635  3.595623  0.008  -0.270039  0.008577  3.611577  0.007  -0.326149  -0.228176  0.008342  3.584632  0.007
N  N45  1  0.78096980  0.82113686  0.34942749  1  -0.280125  0.018402  3.315158  0.013  -0.244832  0.009628  3.597405  0.008  -0.27067  0.008574  3.613334  0.007  -0.326249  -0.228984  0.008338  3.586576  0.007
N  N46  1  0.27166646  0.93483420  0.69570156  1  -0.268766  0.020473  3.301918  0.017  -0.232005  0.008448  3.579921  0.007  -0.258533  0.008095  3.596787  0.006  -0.325089  -0.215385  0.006865  3.568881  0.005
N  N47  1  0.72810661  0.06504641  0.30412478  1  -0.269705  0.020489  3.302417  0.017  -0.232737  0.008468  3.580374  0.007  -0.259275  0.008106  3.597219  0.006  -0.325453  -0.216137  0.006891  3.569318  0.005
O  O48  1  0.99398359  0.26080520  0.11697388  1  -0.642351  -0.0009  1.451793  -0.003  -0.630404  0.000157  1.703261  0.0  -0.652527  -8e-05  1.692738  0.0  -0.483333  -0.614336  0.000142  1.71207  0.0
O  O49  1  0.00602383  0.73944458  0.88361677  1  -0.642281  -0.000902  1.452549  -0.003  -0.630454  0.000145  1.704199  0.0  -0.652522  -9.1e-05  1.69366  0.0  -0.483423  -0.614392  0.000124  1.71302  0.0
O  O50  1  0.20998047  0.23327986  0.90189226  1  -0.77621  -0.006861  1.819842  -0.024  -0.782624  0.000131  2.150061  -0.004  -0.815867  0.000118  2.132072  -0.003  -0.52969  -0.760418  -0.000102  2.162882  -0.004
O  O51  1  0.78958023  0.76619613  0.09846664  1  -0.77605  -0.006739  1.819011  -0.023  -0.782602  0.000171  2.149562  -0.004  -0.815842  0.000146  2.131602  -0.003  -0.529678  -0.760395  -6.9e-05  2.162305  -0.004
O  O52  1  0.08076516  0.54371852  0.08535409  1  -1.01902  0.004771  1.804367  0.002  -1.006635  0.001849  2.105593  0.001  -1.048397  0.001302  2.09537  0.001  -0.613859  -0.974196  0.002039  2.112103  0.001
O  O53  1  0.91967101  0.45608762  0.91464995  1  -1.018943  0.004744  1.804621  0.002  -1.006344  0.001853  2.105398  0.001  -1.04822  0.001303  2.095424  0.001  -0.614013  -0.973884  0.002039  2.11191  0.001
O  O54  1  0.33842199  0.35547605  0.11563557  1  -0.866608  0.001329  1.699118  -0.002  -0.858441  0.001275  1.983935  0.0  -0.897305  0.001197  1.976791  0.001  -0.57725  -0.829716  0.001445  1.98883  0.0
O  O55  1  0.66212514  0.64426553  0.88411018  1  -0.866233  0.001349  1.699635  -0.002  -0.858015  0.001285  1.984163  0.0  -0.89694  0.001199  1.977228  0.001  -0.576976  -0.829267  0.001455  1.989101  0.0
O  O56  1  0.36759072  0.54964541  0.29234700  1  -0.67971  -1.1e-05  1.456916  0.0  -0.664267  0.00028  1.691044  0.0  -0.685578  0.000175  1.680062  0.0  -0.501538  -0.649305  0.000308  1.700339  0.0
O  O57  1  0.63321605  0.45005848  0.70743255  1  -0.679456  6e-06  1.457139  0.0  -0.664212  0.000285  1.691533  0.0  -0.685523  0.000174  1.680555  0.0  -0.501577  -0.64918  0.000305  1.700828  0.0
O  O58  1  0.62593721  0.50194523  0.09824976  1  -0.813766  0.006181  1.573764  0.005  -0.820265  0.000337  1.855052  0.0  -0.852484  3.2e-05  1.847433  0.0  -0.53657  -0.796852  1.7e-05  1.860478  0.0
O  O59  1  0.37439176  0.49783903  0.90118746  1  -0.813103  0.006152  1.57271  0.005  -0.819205  0.000335  1.853015  0.0  -0.85161  3e-05  1.845828  0.0  -0.535949  -0.795621  1.6e-05  1.858112  0.0
O  O60  1  0.32667543  0.71128178  0.07398734  1  -0.915636  -0.001313  1.84306  -0.003  -0.909615  -0.001734  2.165801  -0.002  -0.951774  -0.001151  2.154024  -0.002  -0.600025  -0.879118  -0.002249  2.1737  -0.003
O  O61  1  0.67371269  0.28843415  0.92588203  1  -0.91511  -0.001308  1.842081  -0.003  -0.909221  -0.001732  2.165039  -0.002  -0.95134  -0.001149  2.153127  -0.002  -0.599894  -0.878661  -0.002249  2.172929  -0.003
O  O62  1  0.94264040  0.07154398  0.82040393  1  -0.782105  -0.017601  1.629526  -0.03  -0.784747  -0.014632  1.934875  -0.021  -0.818085  -0.010055  1.921354  -0.015  -0.527728  -0.760056  -0.019881  1.942634  -0.029
O  O63  1  0.05715500  0.92798682  0.17950255  1  -0.78238  -0.017585  1.628639  -0.03  -0.785182  -0.014638  1.934368  -0.021  -0.818525  -0.010074  1.920841  -0.015  -0.528472  -0.760547  -0.019873  1.942154  -0.029
O  O64  1  0.27722404  0.97550754  0.95438987  1  -0.802861  -0.007118  1.804924  -0.02  -0.807542  -0.00545  2.140891  -0.012  -0.848128  -0.00269  2.125414  -0.008  -0.542807  -0.77907  -0.008746  2.149663  -0.016
O  O65  1  0.72257936  0.02394593  0.04548801  1  -0.803595  -0.007121  1.804188  -0.02  -0.808148  -0.005457  2.139943  -0.012  -0.848751  -0.002701  2.124452  -0.008  -0.542965  -0.779705  -0.008771  2.148688  -0.016
O  O66  1  0.55142976  0.06876976  0.79724771  1  -0.788011  -0.018048  1.627623  -0.03  -0.786247  -0.013053  1.924378  -0.018  -0.818686  -0.008059  1.910487  -0.011  -0.531942  -0.762128  -0.019044  1.931778  -0.027
O  O67  1  0.44833843  0.93113566  0.20270231  1  -0.788225  -0.018016  1.627663  -0.03  -0.786338  -0.013014  1.92443  -0.018  -0.818791  -0.008053  1.910543  -0.011  -0.53184  -0.762235  -0.019013  1.93178  -0.027
