# generated using pymatgen
data_ZnAsH16C18N3O5
_symmetry_space_group_name_H-M   'P 1'
_cell_length_a   8.36748887
_cell_length_b   9.58230840
_cell_length_c   11.38466045
_cell_angle_alpha   90.00009693
_cell_angle_beta   110.65601858
_cell_angle_gamma   89.99986285
_symmetry_Int_Tables_number   1
_chemical_formula_structural   ZnAsH16C18N3O5
_chemical_formula_sum   'Zn2 As2 H32 C36 N6 O10'
_cell_volume   854.13988642
_cell_formula_units_Z   2
loop_
 _symmetry_equiv_pos_site_id
 _symmetry_equiv_pos_as_xyz
  1  'x, y, z'
loop_
 _atom_site_type_symbol
 _atom_site_label
 _atom_site_symmetry_multiplicity
 _atom_site_fract_x
 _atom_site_fract_y
 _atom_site_fract_z
 _atom_site_occupancy
 _atom_site_hle17_bader_spin_density
 _atom_site_hle17_ddec_charge
 _atom_site_hle17_ddec_spin_density
 _atom_site_hle17_ddec_sum_bond_order
 _atom_site_hle17_magmom
 _atom_site_hse06_10hf_bader_spin_density
 _atom_site_hse06_10hf_ddec_charge
 _atom_site_hse06_10hf_ddec_spin_density
 _atom_site_hse06_10hf_ddec_sum_bond_order
 _atom_site_hse06_10hf_magmom
 _atom_site_hse06_bader_spin_density
 _atom_site_hse06_ddec_charge
 _atom_site_hse06_ddec_spin_density
 _atom_site_hse06_ddec_sum_bond_order
 _atom_site_hse06_magmom
 _atom_site_pbe_bader_spin_density
 _atom_site_pbe_cm5_charge
 _atom_site_pbe_ddec_charge
 _atom_site_pbe_ddec_spin_density
 _atom_site_pbe_ddec_sum_bond_order
 _atom_site_pbe_magmom
Zn  Zn0  1  0.01208485  0.60185137  0.58084086  1  0  1.063899  0  1.864049  0  0  0.874434  0  2.347526  0  0  0.923287  0  2.288103  0  0  0.668661  0.840663  0  2.387996  0
Zn  Zn1  1  0.98791687  0.10185587  0.41915878  1  0  1.063928  0  1.86399  0  0  0.874469  0  2.347454  0  0  0.923319  0  2.288032  0  0  0.668687  0.840698  0  2.387921  0
As  As2  1  0.13699920  0.78332194  0.39244269  1  0  1.516365  0  3.988561  0  0  1.455617  0  4.445174  0  0  1.504176  0  4.415344  0  0  0.589601  1.422136  0  4.464373  0
As  As3  1  0.86299823  0.28331977  0.60755692  1  0  1.516249  0  3.988526  0  0  1.455508  0  4.445138  0  0  1.504064  0  4.415314  0  0  0.589616  1.422027  0  4.464334  0
H  H4  1  0.30376360  0.96786183  0.36496053  1  0  0.405177  0  0.912497  0  0  0.369539  0  0.986333  0  0  0.382372  0  0.967798  0  0  0.280626  0.360756  0  0.999176  0
H  H5  1  0.69623588  0.46786005  0.63504168  1  0  0.405154  0  0.912531  0  0  0.369516  0  0.986358  0  0  0.382347  0  0.967825  0  0  0.280615  0.360734  0  0.999203  0
H  H6  1  0.28478577  0.53454877  0.41345922  1  0  0.281684  0  0.92119  0  0  0.269459  0  0.97669  0  0  0.276457  0  0.971599  0  0  0.302026  0.264584  0  0.979695  0
H  H7  1  0.71521216  0.03454477  0.58654368  1  0  0.281662  0  0.921292  0  0  0.269487  0  0.976728  0  0  0.276487  0  0.971634  0  0  0.302043  0.264614  0  0.979736  0
H  H8  1  0.87113208  0.83374304  0.14987534  1  0  0.095097  0  0.957187  0  0  0.103651  0  1.022  0  0  0.105983  0  1.021471  0  0  0.100582  0.102067  0  1.022239  0
H  H9  1  0.12886265  0.33374180  0.85012449  1  0  0.095119  0  0.957145  0  0  0.103681  0  1.021944  0  0  0.106012  0  1.021416  0  0  0.100598  0.102097  0  1.02218  0
H  H10  1  0.75451320  0.70264924  0.94581805  1  0  0.087263  0  0.974634  0  0  0.09757  0  1.037517  0  0  0.100621  0  1.036599  0  0  0.09456  0.095327  0  1.038549  0
H  H11  1  0.24548315  0.20265035  0.05418116  1  0  0.087227  0  0.974714  0  0  0.097568  0  1.03756  0  0  0.100621  0  1.036638  0  0  0.094552  0.095319  0  1.038604  0
H  H12  1  0.88419976  0.47512666  0.92515259  1  0  0.085663  0  0.949007  0  0  0.096747  0  1.01118  0  0  0.099459  0  1.009076  0  0  0.097836  0.094488  0  1.01336  0
H  H13  1  0.11580354  0.97512720  0.07485067  1  0  0.085672  0  0.948976  0  0  0.096757  0  1.011145  0  0  0.09947  0  1.00904  0  0  0.097838  0.094497  0  1.013325  0
H  H14  1  0.11818269  0.37539387  0.10109086  1  0  0.087251  0  1.008198  0  0  0.097192  0  1.074793  0  0  0.099623  0  1.074737  0  0  0.094823  0.095228  0  1.075419  0
H  H15  1  0.88181958  0.87539136  0.89891197  1  0  0.087223  0  1.008197  0  0  0.097173  0  1.074784  0  0  0.099605  0  1.074725  0  0  0.094822  0.095209  0  1.07541  0
H  H16  1  0.47095679  0.35800760  0.40172646  1  0  0.122829  0  0.933353  0  0  0.136266  0  0.992295  0  0  0.139025  0  0.990403  0  0  0.117796  0.133906  0  0.994121  0
H  H17  1  0.52904299  0.85800208  0.59827478  1  0  0.122846  0  0.933393  0  0  0.136287  0  0.992319  0  0  0.139047  0  0.990427  0  0  0.117806  0.133929  0  0.994143  0
H  H18  1  0.38306085  0.35562605  0.23690810  1  0  0.083017  0  0.939103  0  0  0.095803  0  1.005156  0  0  0.097233  0  1.004947  0  0  0.104187  0.09463  0  1.005565  0
H  H19  1  0.61694026  0.85562173  0.76309175  1  0  0.083044  0  0.939176  0  0  0.095842  0  1.005204  0  0  0.097279  0  1.004991  0  0  0.104206  0.09467  0  1.005614  0
H  H20  1  0.04369106  0.72115167  0.84427018  1  0  0.072265  0  0.987594  0  0  0.078584  0  1.057102  0  0  0.08017  0  1.056756  0  0  0.111742  0.077543  0  1.057098  0
H  H21  1  0.95631300  0.22115674  0.15572764  1  0  0.072238  0  0.987614  0  0  0.078545  0  1.057135  0  0  0.080129  0  1.056791  0  0  0.111737  0.077503  0  1.057134  0
H  H22  1  0.23807767  0.71196814  0.06536767  1  0  0.106741  0  0.969489  0  0  0.115566  0  1.032597  0  0  0.117655  0  1.03364  0  0  0.106202  0.114069  0  1.032124  0
H  H23  1  0.76191995  0.21197726  0.93463102  1  0  0.106749  0  0.969521  0  0  0.115566  0  1.032642  0  0  0.117655  0  1.033685  0  0  0.10618  0.114071  0  1.032169  0
H  H24  1  0.59210023  0.48301651  0.93837862  1  0  0.102841  0  0.97518  0  0  0.112733  0  1.039479  0  0  0.115473  0  1.038892  0  0  0.105842  0.110823  0  1.039922  0
H  H25  1  0.40789806  0.98302165  0.06161889  1  0  0.102838  0  0.975104  0  0  0.112708  0  1.039443  0  0  0.115446  0  1.038855  0  0  0.105841  0.110798  0  1.039885  0
H  H26  1  0.38658260  0.51272333  0.72012716  1  0  0.097506  0  0.917347  0  0  0.108427  0  0.974194  0  0  0.111117  0  0.971844  0  0  0.123179  0.106448  0  0.975818  0
H  H27  1  0.61342199  0.01272519  0.27986962  1  0  0.097423  0  0.917469  0  0  0.108431  0  0.974227  0  0  0.111122  0  0.971876  0  0  0.123138  0.106453  0  0.975849  0
H  H28  1  0.46745892  0.77894774  0.21553606  1  0  0.102661  0  0.959856  0  0  0.112445  0  1.024436  0  0  0.115526  0  1.023209  0  0  0.106561  0.110193  0  1.025341  0
H  H29  1  0.53254488  0.27895703  0.78446617  1  0  0.102671  0  0.959823  0  0  0.112499  0  1.024333  0  0  0.115579  0  1.023107  0  0  0.106603  0.110247  0  1.025238  0
H  H30  1  0.67873983  0.39520588  0.13305256  1  0  0.092501  0  0.991284  0  0  0.102186  0  1.055645  0  0  0.104102  0  1.057354  0  0  0.100123  0.101092  0  1.054058  0
H  H31  1  0.32125866  0.89521176  0.86694575  1  0  0.092405  0  0.991373  0  0  0.102125  0  1.055701  0  0  0.104043  0  1.057406  0  0  0.100102  0.101028  0  1.054119  0
H  H32  1  0.69279476  0.77394788  0.42548955  1  0  0.091239  0  0.9421  0  0  0.102072  0  0.998607  0  0  0.104348  0  0.996858  0  0  0.11986  0.100215  0  1.000388  0
H  H33  1  0.30720915  0.27395199  0.57450919  1  0  0.091201  0  0.942129  0  0  0.102092  0  0.998553  0  0  0.104368  0  0.996804  0  0  0.119912  0.100236  0  1.000332  0
H  H34  1  0.89404914  0.40465350  0.34905935  1  0  0.091197  0  0.956469  0  0  0.093827  0  1.031228  0  0  0.097264  0  1.027393  0  0  0.116542  0.091304  0  1.034152  0
H  H35  1  0.10595323  0.90465938  0.65093740  1  0  0.091249  0  0.956462  0  0  0.093869  0  1.031219  0  0  0.097307  0  1.027381  0  0  0.116553  0.091345  0  1.034144  0
C  C36  1  0.06085397  0.67868111  0.23777490  1  0  -0.365111  0  3.713351  0  0  -0.347527  0  3.984966  0  0  -0.362979  0  4.008916  0  0  -0.06783  -0.337525  0  3.969328  0
C  C37  1  0.93914366  0.17867909  0.76222638  1  0  -0.36501  0  3.713274  0  0  -0.347442  0  3.984877  0  0  -0.362892  0  4.008833  0  0  -0.067791  -0.337443  0  3.969238  0
C  C38  1  0.92639429  0.73415319  0.13742569  1  0  -0.03491  0  3.834458  0  0  -0.056964  0  4.089198  0  0  -0.05184  0  4.109621  0  0  -0.091848  -0.059793  0  4.075121  0
C  C39  1  0.07360453  0.23415000  0.86257423  1  0  -0.03497  0  3.834445  0  0  -0.05703  0  4.089198  0  0  -0.051908  0  4.109627  0  0  -0.09188  -0.059856  0  4.075118  0
C  C40  1  0.86128740  0.66164556  0.02409318  1  0  -0.130767  0  3.803121  0  0  -0.14403  0  4.058322  0  0  -0.150333  0  4.079188  0  0  -0.118582  -0.139942  0  4.044012  0
C  C41  1  0.13871155  0.16164560  0.97590843  1  0  -0.130715  0  3.803201  0  0  -0.144002  0  4.058387  0  0  -0.150303  0  4.079253  0  0  -0.118565  -0.139912  0  4.044072  0
C  C42  1  0.93223833  0.53225599  0.01371527  1  0  -0.039178  0  3.803888  0  0  -0.054983  0  4.057013  0  0  -0.050654  0  4.074817  0  0  -0.093298  -0.057446  0  4.044518  0
C  C43  1  0.06775966  0.03225515  0.98628589  1  0  -0.039247  0  3.803901  0  0  -0.055053  0  4.057052  0  0  -0.050725  0  4.074857  0  0  -0.093331  -0.057513  0  4.044552  0
C  C44  1  0.06554107  0.47575806  0.11329832  1  0  -0.196974  0  3.727542  0  0  -0.211109  0  3.977667  0  0  -0.219659  0  3.998596  0  0  -0.112554  -0.205354  0  3.963636  0
C  C45  1  0.93445845  0.97575646  0.88670215  1  0  -0.196881  0  3.727474  0  0  -0.211046  0  3.977616  0  0  -0.219591  0  3.99855  0  0  -0.112551  -0.205292  0  3.963586  0
C  C46  1  0.13498023  0.54691528  0.22913693  1  0  0.276276  0  3.855659  0  0  0.260336  0  4.111573  0  0  0.274801  0  4.131022  0  0  0.107457  0.250337  0  4.097991  0
C  C47  1  0.86501900  0.04691343  0.77086459  1  0  0.276155  0  3.85572  0  0  0.26027  0  4.111582  0  0  0.274724  0  4.131051  0  0  0.107452  0.250272  0  4.098001  0
C  C48  1  0.34932862  0.36287495  0.32169774  1  0  -0.117189  0  3.68896  0  0  -0.173398  0  3.947181  0  0  -0.174038  0  3.955319  0  0  -0.066155  -0.173022  0  3.94173  0
C  C49  1  0.65066860  0.86287456  0.67830281  1  0  -0.117287  0  3.688974  0  0  -0.173521  0  3.94722  0  0  -0.174173  0  3.955367  0  0  -0.066186  -0.173145  0  3.941773  0
C  C50  1  0.24972057  0.23113749  0.33088410  1  0  0.673497  0  3.853572  0  0  0.620423  0  4.165738  0  0  0.65367  0  4.157713  0  0  0.210823  0.598028  0  4.170439  0
C  C51  1  0.75028076  0.73113688  0.66911826  1  0  0.673535  0  3.853432  0  0  0.620499  0  4.165547  0  0  0.653746  0  4.157521  0  0  0.210833  0.598104  0  4.170249  0
C  C52  1  0.16723487  0.67036839  0.86884669  1  0  0.123983  0  3.724218  0  0  0.094232  0  3.973773  0  0  0.100566  0  3.992382  0  0  0.043798  0.090439  0  3.960746  0
C  C53  1  0.83276544  0.17037472  0.13115179  1  0  0.124084  0  3.724362  0  0  0.094325  0  3.973912  0  0  0.100657  0  3.992526  0  0  0.043817  0.090528  0  3.960885  0
C  C54  1  0.27770521  0.66523081  0.99286314  1  0  -0.164146  0  3.721497  0  0  -0.179721  0  3.965667  0  0  -0.187277  0  3.987709  0  0  -0.084007  -0.175264  0  3.951097  0
C  C55  1  0.72229381  0.16524129  0.00713585  1  0  -0.164284  0  3.721543  0  0  -0.179851  0  3.96572  0  0  -0.187407  0  3.987762  0  0  -0.084009  -0.175396  0  3.951154  0
C  C56  1  0.43395551  0.59515993  0.02261244  1  0  0.091086  0  3.754589  0  0  0.104222  0  3.979776  0  0  0.108114  0  4.000744  0  0  0.010463  0.10179  0  3.965883  0
C  C57  1  0.56604365  0.09516640  0.97738737  1  0  0.091039  0  3.754437  0  0  0.104173  0  3.979656  0  0  0.108066  0  4.000623  0  0  0.010455  0.101739  0  3.965765  0
C  C58  1  0.47125360  0.53597150  0.92219667  1  0  -0.16071  0  3.702497  0  0  -0.17807  0  3.948976  0  0  -0.185031  0  3.969631  0  0  -0.081536  -0.173793  0  3.934928  0
C  C59  1  0.52874701  0.03597834  0.07780257  1  0  -0.160641  0  3.702522  0  0  -0.177988  0  3.949045  0  0  -0.184946  0  3.969699  0  0  -0.081517  -0.17371  0  3.934993  0
C  C60  1  0.35649685  0.55091466  0.80006527  1  0  0.144513  0  3.677129  0  0  0.111359  0  3.932521  0  0  0.11879  0  3.948782  0  0  0.053308  0.1068  0  3.920503  0
C  C61  1  0.64350505  0.05091942  0.19993258  1  0  0.144529  0  3.677447  0  0  0.111292  0  3.932811  0  0  0.118723  0  3.949073  0  0  0.053273  0.106735  0  3.920792  0
C  C62  1  0.55555361  0.58857906  0.15308058  1  0  0.093951  0  3.754289  0  0  0.10652  0  3.981458  0  0  0.110451  0  4.002327  0  0  0.011869  0.104362  0  3.966969  0
C  C63  1  0.44444557  0.08858761  0.84691923  1  0  0.094064  0  3.754044  0  0  0.106568  0  3.98133  0  0  0.110495  0  4.002205  0  0  0.01182  0.104413  0  3.966842  0
C  C64  1  0.55865725  0.69332530  0.23972704  1  0  -0.146058  0  3.690883  0  0  -0.169006  0  3.948437  0  0  -0.176294  0  3.969013  0  0  -0.079802  -0.164035  0  3.933685  0
C  C65  1  0.44134170  0.19333264  0.76027198  1  0  -0.146079  0  3.690799  0  0  -0.169047  0  3.94836  0  0  -0.176333  0  3.968939  0  0  -0.079818  -0.164077  0  3.933609  0
C  C66  1  0.67621714  0.48122801  0.19466918  1  0  -0.148199  0  3.696754  0  0  -0.16391  0  3.939432  0  0  -0.171793  0  3.962117  0  0  -0.081711  -0.158733  0  3.923646  0
C  C67  1  0.32378369  0.98123481  0.80532989  1  0  -0.148137  0  3.696713  0  0  -0.163888  0  3.939414  0  0  -0.17177  0  3.962103  0  0  -0.081647  -0.158708  0  3.923626  0
C  C68  1  0.68358513  0.69074971  0.35853907  1  0  0.154062  0  3.686941  0  0  0.121064  0  3.9435  0  0  0.12913  0  3.960183  0  0  0.050606  0.11543  0  3.932289  0
C  C69  1  0.31641513  0.19075289  0.64145942  1  0  0.154066  0  3.686981  0  0  0.121064  0  3.94349  0  0  0.129128  0  3.960175  0  0  0.050534  0.11543  0  3.93228  0
C  C70  1  0.79641638  0.48520722  0.31566564  1  0  0.138484  0  3.685518  0  0  0.105829  0  3.945185  0  0  0.11281  0  3.963095  0  0  0.049122  0.100808  0  3.933337  0
C  C71  1  0.20358449  0.98521506  0.68433170  1  0  0.13847  0  3.685644  0  0  0.105844  0  3.945269  0  0  0.112826  0  3.963174  0  0  0.049089  0.100824  0  3.933421  0
N  N72  1  0.26909258  0.49458964  0.32675807  1  0  -0.37784  0  3.369204  0  0  -0.323998  0  3.6181  0  0  -0.34368  0  3.631618  0  0  -0.438725  -0.309236  0  3.606726  0
N  N73  1  0.73090426  0.99458908  0.67324433  1  0  -0.377734  0  3.369252  0  0  -0.323947  0  3.618107  0  0  -0.343622  0  3.63163  0  0  -0.438703  -0.309187  0  3.606738  0
N  N74  1  0.20494685  0.61547126  0.77330205  1  0  -0.307705  0  3.225402  0  0  -0.232275  0  3.489627  0  0  -0.249249  0  3.504703  0  0  -0.314612  -0.220759  0  3.478901  0
N  N75  1  0.79505619  0.11547368  0.22669534  1  0  -0.307645  0  3.225572  0  0  -0.232162  0  3.489746  0  0  -0.249138  0  3.504827  0  0  -0.314532  -0.220646  0  3.479017  0
N  N76  1  0.80196573  0.58931686  0.39660865  1  0  -0.353793  0  3.272761  0  0  -0.279364  0  3.543413  0  0  -0.298366  0  3.559686  0  0  -0.317418  -0.266452  0  3.53274  0
N  N77  1  0.19803610  0.08932126  0.60338837  1  0  -0.35383  0  3.272955  0  0  -0.279411  0  3.543573  0  0  -0.298412  0  3.559844  0  0  -0.317387  -0.266499  0  3.532904  0
O  O78  1  0.19466796  0.66788844  0.51470763  1  0  -0.842429  0  1.715685  0  0  -0.776468  0  1.99249  0  0  -0.804211  0  1.970272  0  0  -0.422191  -0.756366  0  2.006367  0
O  O79  1  0.80532844  0.16788614  0.48529242  1  0  -0.842365  0  1.715606  0  0  -0.776462  0  1.992478  0  0  -0.804205  0  1.97026  0  0  -0.422199  -0.756362  0  2.006354  0
O  O80  1  0.98055574  0.89677078  0.39039889  1  0  -0.85979  0  1.799755  0  0  -0.796837  0  2.103507  0  0  -0.825097  0  2.080896  0  0  -0.425198  -0.777008  0  2.118528  0
O  O81  1  0.01944520  0.39676824  0.60960361  1  0  -0.859719  0  1.799704  0  0  -0.796744  0  2.103446  0  0  -0.825003  0  2.080836  0  0  -0.425198  -0.776914  0  2.118468  0
O  O82  1  0.32857245  0.87054917  0.40469839  1  0  -0.757468  0  1.793484  0  0  -0.710358  0  2.007669  0  0  -0.731235  0  1.983048  0  0  -0.441145  -0.696039  0  2.023699  0
O  O83  1  0.67142730  0.37054841  0.59530286  1  0  -0.757429  0  1.793504  0  0  -0.710325  0  2.007721  0  0  -0.731195  0  1.983096  0  0  -0.441146  -0.696006  0  2.023743  0
O  O84  1  0.12423991  0.24964572  0.36868567  1  0  -0.648143  0  2.120399  0  0  -0.572878  0  2.399714  0  0  -0.600579  0  2.384274  0  0  -0.318014  -0.554011  0  2.409914  0
O  O85  1  0.87576013  0.74964687  0.63131549  1  0  -0.648147  0  2.120367  0  0  -0.572883  0  2.399646  0  0  -0.600596  0  2.384238  0  0  -0.317985  -0.554015  0  2.409847  0
O  O86  1  0.30180855  0.11617138  0.30389356  1  0  -0.630657  0  1.952896  0  0  -0.575248  0  2.180779  0  0  -0.599948  0  2.169696  0  0  -0.3236  -0.558732  0  2.188353  0
O  O87  1  0.69819942  0.61616884  0.69611132  1  0  -0.630701  0  1.952805  0  0  -0.575313  0  2.180682  0  0  -0.60001  0  2.169596  0  0  -0.323647  -0.558797  0  2.18826  0
