# generated using pymatgen
data_Li2H8C9O5
_symmetry_space_group_name_H-M   'P 1'
_cell_length_a   7.47223579
_cell_length_b   9.99648194
_cell_length_c   13.47932984
_cell_angle_alpha   106.67882356
_cell_angle_beta   91.21153916
_cell_angle_gamma   103.51336169
_symmetry_Int_Tables_number   1
_chemical_formula_structural   Li2H8C9O5
_chemical_formula_sum   'Li8 H32 C36 O20'
_cell_volume   933.57670351
_cell_formula_units_Z   4
loop_
 _symmetry_equiv_pos_site_id
 _symmetry_equiv_pos_as_xyz
  1  'x, y, z'
loop_
 _atom_site_type_symbol
 _atom_site_label
 _atom_site_symmetry_multiplicity
 _atom_site_fract_x
 _atom_site_fract_y
 _atom_site_fract_z
 _atom_site_occupancy
 _atom_site_hle17_bader_spin_density
 _atom_site_hle17_ddec_charge
 _atom_site_hle17_ddec_spin_density
 _atom_site_hle17_ddec_sum_bond_order
 _atom_site_hle17_magmom
 _atom_site_hse06_10hf_bader_spin_density
 _atom_site_hse06_10hf_ddec_charge
 _atom_site_hse06_10hf_ddec_spin_density
 _atom_site_hse06_10hf_ddec_sum_bond_order
 _atom_site_hse06_10hf_magmom
 _atom_site_hse06_bader_spin_density
 _atom_site_hse06_ddec_charge
 _atom_site_hse06_ddec_spin_density
 _atom_site_hse06_ddec_sum_bond_order
 _atom_site_hse06_magmom
 _atom_site_pbe_bader_spin_density
 _atom_site_pbe_cm5_charge
 _atom_site_pbe_ddec_charge
 _atom_site_pbe_ddec_spin_density
 _atom_site_pbe_ddec_sum_bond_order
 _atom_site_pbe_magmom
Li  Li0  1  0.32021072  0.68757488  0.61212950  1  0  0.848368  0  0.41031  0  0  0.808103  0  0.516544  0  0  0.817746  0  0.499549  0  0  0.528015  0.801185  0  0.528738  0
Li  Li1  1  0.67979032  0.31242488  0.38787097  1  0  0.848355  0  0.410325  0  0  0.808102  0  0.516545  0  0  0.817743  0  0.499552  0  0  0.528  0.801183  0  0.528738  0
Li  Li2  1  0.18432242  0.36676271  0.49553525  1  0  0.864904  0  0.372948  0  0  0.829349  0  0.470102  0  0  0.83818  0  0.4543  0  0  0.516774  0.822909  0  0.481567  0
Li  Li3  1  0.81567931  0.63323920  0.50446494  1  0  0.864904  0  0.372948  0  0  0.829352  0  0.470099  0  0  0.838184  0  0.454294  0  0  0.516774  0.822914  0  0.481563  0
Li  Li4  1  0.85569729  0.09948960  0.56008080  1  0  0.862668  0  0.384497  0  0  0.825952  0  0.483947  0  0  0.834632  0  0.468714  0  0  0.522664  0.819623  0  0.495035  0
Li  Li5  1  0.14430176  0.90051230  0.43992084  1  0  0.86267  0  0.384502  0  0  0.825954  0  0.48395  0  0  0.834635  0  0.468715  0  0  0.52267  0.819627  0  0.495039  0
Li  Li6  1  0.43033267  0.17101877  0.54292696  1  0  0.860209  0  0.386521  0  0  0.824129  0  0.484169  0  0  0.832694  0  0.469298  0  0  0.527461  0.817931  0  0.494809  0
Li  Li7  1  0.56966670  0.82897990  0.45707252  1  0  0.860204  0  0.386531  0  0  0.824105  0  0.484206  0  0  0.832673  0  0.469332  0  0  0.527467  0.817908  0  0.494848  0
H  H8  1  0.01691218  0.72464533  0.69478052  1  0  0.391113  0  0.904799  0  0  0.370214  0  0.967935  0  0  0.379588  0  0.957443  0  0  0.307035  0.363588  0  0.9752  0
H  H9  1  0.98308786  0.27535549  0.30521794  1  0  0.391116  0  0.904796  0  0  0.370218  0  0.967929  0  0  0.379592  0  0.957437  0  0  0.307042  0.363592  0  0.975193  0
H  H10  1  0.29697318  0.27825920  0.32988010  1  0  0.433591  0  0.866161  0  0  0.402846  0  0.929657  0  0  0.413195  0  0.914538  0  0  0.309074  0.395571  0  0.940279  0
H  H11  1  0.70302820  0.72174163  0.67011986  1  0  0.43363  0  0.866107  0  0  0.402886  0  0.929601  0  0  0.413235  0  0.914483  0  0  0.309088  0.395612  0  0.940223  0
H  H12  1  0.14820592  0.13437306  0.33768822  1  0  0.43622  0  0.859953  0  0  0.407813  0  0.919284  0  0  0.417243  0  0.905414  0  0  0.31382  0.401139  0  0.929105  0
H  H13  1  0.85179615  0.86562993  0.66231221  1  0  0.436214  0  0.859953  0  0  0.407803  0  0.919301  0  0  0.417234  0  0.90543  0  0  0.313808  0.401129  0  0.929122  0
H  H14  1  0.47403506  0.50683039  0.85367546  1  0  0.087928  0  0.951337  0  0  0.09915  0  1.013966  0  0  0.102173  0  1.012597  0  0  0.102002  0.097022  0  1.014953  0
H  H15  1  0.52596633  0.49317044  0.14632450  1  0  0.08789  0  0.951343  0  0  0.099122  0  1.013964  0  0  0.102145  0  1.012595  0  0  0.102  0.096994  0  1.014952  0
H  H16  1  0.68277201  0.46652854  0.98222281  1  0  0.080181  0  0.953531  0  0  0.093804  0  1.011885  0  0  0.096133  0  1.011047  0  0  0.09892  0.092107  0  1.012547  0
H  H17  1  0.31722602  0.53347012  0.01777591  1  0  0.080227  0  0.953521  0  0  0.093841  0  1.011873  0  0  0.096165  0  1.011039  0  0  0.098938  0.092143  0  1.012534  0
H  H18  1  0.96971104  0.39036153  0.92735088  1  0  0.080667  0  0.968473  0  0  0.092062  0  1.031104  0  0  0.094309  0  1.030959  0  0  0.097409  0.090417  0  1.03132  0
H  H19  1  0.03028833  0.60963714  0.07264935  1  0  0.080682  0  0.968461  0  0  0.092068  0  1.031106  0  0  0.094322  0  1.030953  0  0  0.097414  0.090423  0  1.031321  0
H  H20  1  0.04303921  0.35404805  0.74299278  1  0  0.098024  0  0.944147  0  0  0.108597  0  1.004081  0  0  0.111774  0  1.002414  0  0  0.117789  0.106291  0  1.005342  0
H  H21  1  0.95696420  0.64595494  0.25700840  1  0  0.098043  0  0.944082  0  0  0.108592  0  1.004035  0  0  0.111771  0  1.002365  0  0  0.117811  0.106287  0  1.005295  0
H  H22  1  0.07712660  0.16223708  0.86054727  1  0  0.090178  0  0.963793  0  0  0.098484  0  1.03087  0  0  0.101725  0  1.028721  0  0  0.102157  0.096157  0  1.032415  0
H  H23  1  0.92287311  0.83776266  0.13945170  1  0  0.090169  0  0.963781  0  0  0.098501  0  1.03083  0  0  0.101743  0  1.02868  0  0  0.102167  0.096173  0  1.032376  0
H  H24  1  0.28804165  0.20784641  0.02044018  1  0  0.091461  0  0.96677  0  0  0.104792  0  1.023564  0  0  0.107487  0  1.023143  0  0  0.100992  0.102794  0  1.02412  0
H  H25  1  0.71195572  0.79215440  0.97955899  1  0  0.091498  0  0.966738  0  0  0.10481  0  1.023554  0  0  0.10751  0  1.023126  0  0  0.100996  0.102811  0  1.02411  0
H  H26  1  0.59241217  0.14726822  0.00190318  1  0  0.080686  0  0.982013  0  0  0.093045  0  1.043994  0  0  0.09521  0  1.04355  0  0  0.100346  0.091502  0  1.044355  0
H  H27  1  0.40758588  0.85273476  0.99809869  1  0  0.080659  0  0.981999  0  0  0.092991  0  1.044019  0  0  0.095155  0  1.043573  0  0  0.100338  0.091448  0  1.04438  0
H  H28  1  0.69153322  0.05119793  0.82588369  1  0  0.10102  0  0.93737  0  0  0.113172  0  0.994228  0  0  0.116703  0  0.992309  0  0  0.108177  0.110586  0  0.995792  0
H  H29  1  0.30846683  0.94880290  0.17411922  1  0  0.101001  0  0.937444  0  0  0.11315  0  0.994305  0  0  0.116677  0  0.99239  0  0  0.108179  0.110568  0  0.995858  0
H  H30  1  0.31414583  0.82752386  0.83898041  1  0  0.020254  0  0.962719  0  0  0.035135  0  1.031337  0  0  0.034416  0  1.032763  0  0  0.091518  0.035523  0  1.030548  0
H  H31  1  0.68585354  0.17247481  0.16101981  1  0  0.020249  0  0.962673  0  0  0.035107  0  1.031333  0  0  0.034387  0  1.032762  0  0  0.091514  0.035495  0  1.030539  0
H  H32  1  0.21693479  0.64527475  0.83442785  1  0  0.024408  0  0.928096  0  0  0.040599  0  0.99431  0  0  0.040288  0  0.994254  0  0  0.09155  0.040827  0  0.994277  0
H  H33  1  0.78306324  0.35472391  0.16557087  1  0  0.024414  0  0.928027  0  0  0.040603  0  0.994259  0  0  0.040292  0  0.994202  0  0  0.091571  0.040805  0  0.99425  0
H  H34  1  0.00441858  0.88185046  0.86956084  1  0  0.100704  0  0.965626  0  0  0.12132  0  1.026751  0  0  0.122431  0  1.027215  0  0  0.085084  0.120504  0  1.026422  0
H  H35  1  0.99558147  0.11815037  0.13043836  1  0  0.100707  0  0.965636  0  0  0.121323  0  1.026756  0  0  0.122434  0  1.027219  0  0  0.085083  0.120505  0  1.026428  0
H  H36  1  0.07745040  0.81232215  0.96631625  1  0  0.09747  0  0.954632  0  0  0.121774  0  1.013509  0  0  0.122042  0  1.014582  0  0  0.087039  0.121526  0  1.012792  0
H  H37  1  0.92254629  0.18767650  0.03368171  1  0  0.097454  0  0.954655  0  0  0.121759  0  1.013522  0  0  0.122027  0  1.014595  0  0  0.087029  0.121512  0  1.012805  0
H  H38  1  0.90742647  0.69829551  0.86383878  1  0  0.095995  0  0.999595  0  0  0.114091  0  1.066348  0  0  0.114202  0  1.069408  0  0  0.083071  0.113913  0  1.064337  0
H  H39  1  0.09257190  0.30170423  0.13615944  1  0  0.096022  0  0.999536  0  0  0.1141  0  1.0663  0  0  0.11421  0  1.069362  0  0  0.083059  0.113922  0  1.06429  0
C  C40  1  0.50217538  0.47621291  0.65376015  1  0  0.729201  0  3.871963  0  0  0.677673  0  4.174441  0  0  0.71118  0  4.162683  0  0  0.252045  0.654873  0  4.181861  0
C  C41  1  0.49782634  0.52378900  0.34624004  1  0  0.729279  0  3.871824  0  0  0.677708  0  4.174356  0  0  0.711221  0  4.162587  0  0  0.25206  0.654905  0  4.181782  0
C  C42  1  0.64049327  0.45345094  0.72664525  1  0  -0.059384  0  3.696344  0  0  -0.045631  0  3.927897  0  0  -0.047414  0  3.94624  0  0  0.007446  -0.044595  0  3.915795  0
C  C43  1  0.35951114  0.54655098  0.27335423  1  0  -0.059544  0  3.696377  0  0  -0.04574  0  3.927931  0  0  -0.047528  0  3.946274  0  0  0.007416  -0.044694  0  3.915815  0
C  C44  1  0.59955457  0.47341681  0.83014584  1  0  -0.097204  0  3.755269  0  0  -0.119385  0  4.006643  0  0  -0.122803  0  4.028381  0  0  -0.086549  -0.117121  0  3.992059  0
C  C45  1  0.40044850  0.52658511  0.16985511  1  0  -0.097062  0  3.755298  0  0  -0.119256  0  4.006653  0  0  -0.122671  0  4.028388  0  0  -0.086541  -0.116995  0  3.992067  0
C  C46  1  0.71685661  0.45089830  0.90209717  1  0  -0.057781  0  3.791991  0  0  -0.072581  0  4.043265  0  0  -0.073202  0  4.065564  0  0  -0.086522  -0.071979  0  4.028106  0
C  C47  1  0.28314310  0.54910145  0.09790255  1  0  -0.057899  0  3.791949  0  0  -0.072689  0  4.043228  0  0  -0.073306  0  4.065528  0  0  -0.08654  -0.072084  0  4.02807  0
C  C48  1  0.87754001  0.40815737  0.87131277  1  0  -0.088448  0  3.778739  0  0  -0.101007  0  4.031562  0  0  -0.104543  0  4.053499  0  0  -0.091549  -0.098628  0  4.016572  0
C  C49  1  0.12246037  0.59184453  0.12868815  1  0  -0.088497  0  3.778679  0  0  -0.101059  0  4.031505  0  0  -0.104598  0  4.053437  0  0  -0.091558  -0.098679  0  4.016517  0
C  C50  1  0.91906912  0.38806755  0.76877354  1  0  -0.043764  0  3.716465  0  0  -0.070456  0  3.969531  0  0  -0.068983  0  3.987559  0  0  -0.064931  -0.07131  0  3.957306  0
C  C51  1  0.08093429  0.61193545  0.23122765  1  0  -0.043715  0  3.716248  0  0  -0.07036  0  3.969308  0  0  -0.068887  0  3.987336  0  0  -0.064925  -0.071214  0  3.957088  0
C  C52  1  0.80215314  0.41056780  0.69567812  1  0  -0.081946  0  3.713801  0  0  -0.067167  0  3.944549  0  0  -0.072781  0  3.963345  0  0  0.006639  -0.063622  0  3.932277  0
C  C53  1  0.19784993  0.58943411  0.30431987  1  0  -0.081861  0  3.713543  0  0  -0.067144  0  3.944354  0  0  -0.072756  0  3.963147  0  0  0.006628  -0.063602  0  3.932084  0
C  C54  1  0.85101727  0.38458056  0.58546838  1  0  0.710199  0  3.891379  0  0  0.661138  0  4.191749  0  0  0.695603  0  4.178051  0  0  0.251853  0.637709  0  4.200755  0
C  C55  1  0.14898579  0.61542135  0.41453109  1  0  0.710187  0  3.891378  0  0  0.661143  0  4.191748  0  0  0.695607  0  4.178052  0  0  0.251881  0.637716  0  4.200754  0
C  C56  1  0.13700146  0.05781847  0.66135716  1  0  0.703337  0  3.885131  0  0  0.655016  0  4.18244  0  0  0.688507  0  4.170996  0  0  0.242226  0.632364  0  4.189787  0
C  C57  1  0.86299623  0.94217912  0.33864281  1  0  0.703394  0  3.885337  0  0  0.655103  0  4.182593  0  0  0.688604  0  4.171128  0  0  0.2423  0.632449  0  4.189942  0
C  C58  1  0.26630877  0.08375644  0.75524398  1  0  -0.09436  0  3.72367  0  0  -0.08135  0  3.956623  0  0  -0.088574  0  3.97871  0  0  -0.005339  -0.076714  0  3.941841  0
C  C59  1  0.73369060  0.91624223  0.24475698  1  0  -0.094373  0  3.72385  0  0  -0.081386  0  3.956795  0  0  -0.088655  0  3.978862  0  0  -0.005329  -0.076747  0  3.942009  0
C  C60  1  0.21279674  0.13910075  0.85479529  1  0  -0.068943  0  3.755252  0  0  -0.090389  0  4.003056  0  0  -0.090213  0  4.023699  0  0  -0.081307  -0.090236  0  3.988806  0
C  C61  1  0.78720331  0.86090008  0.14520539  1  0  -0.068938  0  3.755092  0  0  -0.090403  0  4.002899  0  0  -0.09023  0  4.023549  0  0  -0.081318  -0.09025  0  3.98865  0
C  C62  1  0.32986308  0.16348283  0.94342288  1  0  -0.087553  0  3.778805  0  0  -0.09975  0  4.025667  0  0  -0.103239  0  4.04763  0  0  -0.095097  -0.097465  0  4.01077  0
C  C63  1  0.67013396  0.83652121  0.05657622  1  0  -0.087535  0  3.778758  0  0  -0.099712  0  4.025599  0  0  -0.103206  0  4.047563  0  0  -0.095059  -0.097426  0  4.010701  0
C  C64  1  0.50126267  0.13014782  0.93292295  1  0  -0.059495  0  3.786811  0  0  -0.075484  0  4.039433  0  0  -0.075603  0  4.060025  0  0  -0.085888  -0.075188  0  4.025348  0
C  C65  1  0.49873806  0.86985516  0.06707821  1  0  -0.059419  0  3.786887  0  0  -0.075391  0  4.039495  0  0  -0.075509  0  4.060094  0  0  -0.085866  -0.075095  0  4.02541  0
C  C66  1  0.55646331  0.07518244  0.83446343  1  0  -0.088473  0  3.729166  0  0  -0.109278  0  3.977112  0  0  -0.11198  0  3.996577  0  0  -0.080457  -0.107435  0  3.96399  0
C  C67  1  0.44353405  0.92481838  0.16553797  1  0  -0.088506  0  3.729245  0  0  -0.109317  0  3.977182  0  0  -0.112053  0  3.996605  0  0  -0.080476  -0.107471  0  3.964057  0
C  C68  1  0.44056707  0.05273846  0.74521698  1  0  -0.03866  0  3.687197  0  0  -0.023966  0  3.917152  0  0  -0.025607  0  3.935963  0  0  0.01673  -0.022993  0  3.9047  0
C  C69  1  0.55943028  0.94725805  0.25478350  1  0  -0.038715  0  3.687348  0  0  -0.023987  0  3.917294  0  0  -0.025504  0  3.935931  0  0  0.016691  -0.02302  0  3.904837  0
C  C70  1  0.51204594  0.99810894  0.64157695  1  0  0.721023  0  3.905703  0  0  0.671119  0  4.205465  0  0  0.705054  0  4.1919  0  0  0.24354  0.647977  0  4.214208  0
C  C71  1  0.48795341  0.00188542  0.35842384  1  0  0.721189  0  3.905648  0  0  0.67125  0  4.205451  0  0  0.705158  0  4.191877  0  0  0.243597  0.648127  0  4.21416  0
C  C72  1  0.18599746  0.74026012  0.81861763  1  0  0.20779  0  3.679228  0  0  0.156479  0  3.953789  0  0  0.164018  0  3.961494  0  0  -0.076259  0.151187  0  3.948731  0
C  C73  1  0.81400057  0.25973855  0.18138480  1  0  0.207809  0  3.679105  0  0  0.156472  0  3.953736  0  0  0.164018  0  3.961426  0  0  -0.07631  0.151198  0  3.948674  0
C  C74  1  0.03439570  0.78572364  0.88299482  1  0  -0.34809  0  3.732855  0  0  -0.422649  0  3.974212  0  0  -0.426225  0  3.985997  0  0  -0.254668  -0.419951  0  3.966053  0
C  C75  1  0.96560233  0.21427502  0.11700464  1  0  -0.348124  0  3.732787  0  0  -0.422651  0  3.974154  0  0  -0.426227  0  3.98594  0  0  -0.254638  -0.41995  0  3.965986  0
O  O76  1  0.49246752  0.60539551  0.66774877  1  0  -0.707792  0  1.968645  0  0  -0.654699  0  2.198962  0  0  -0.677599  0  2.185711  0  0  -0.364207  -0.63865  0  2.207748  0
O  O77  1  0.50753219  0.39460423  0.33225020  1  0  -0.707819  0  1.96851  0  0  -0.65471  0  2.198843  0  0  -0.677612  0  2.185589  0  0  -0.36421  -0.63866  0  2.20763  0
O  O78  1  0.39574159  0.36593647  0.58884765  1  0  -0.764912  0  1.931051  0  0  -0.724272  0  2.172227  0  0  -0.745057  0  2.157816  0  0  -0.409925  -0.709744  0  2.181842  0
O  O79  1  0.60425812  0.63406328  0.41115355  1  0  -0.764914  0  1.931099  0  0  -0.724266  0  2.172297  0  0  -0.745053  0  2.157879  0  0  -0.409937  -0.709738  0  2.181915  0
O  O80  1  0.78458094  0.44558939  0.52783608  1  0  -0.76492  0  1.981519  0  0  -0.720921  0  2.230361  0  0  -0.741018  0  2.214518  0  0  -0.410283  -0.707044  0  2.241205  0
O  O81  1  0.21542145  0.55441037  0.47216367  1  0  -0.764945  0  1.981464  0  0  -0.720937  0  2.230296  0  0  -0.741035  0  2.214454  0  0  -0.410317  -0.707058  0  2.24114  0
O  O82  1  0.95431158  0.29827466  0.55384900  1  0  -0.775716  0  1.919151  0  0  -0.73169  0  2.159709  0  0  -0.75104  0  2.143727  0  0  -0.419477  -0.718276  0  2.170649  0
O  O83  1  0.04568913  0.70172402  0.44615050  1  0  -0.775724  0  1.91931  0  0  -0.731699  0  2.159861  0  0  -0.751049  0  2.14388  0  0  -0.419485  -0.718284  0  2.170802  0
O  O84  1  0.20456213  0.05141441  0.57430405  1  0  -0.794335  0  2.005134  0  0  -0.751364  0  2.254521  0  0  -0.769539  0  2.236567  0  0  -0.418326  -0.738794  0  2.266731  0
O  O85  1  0.79543356  0.94858532  0.42569710  1  0  -0.79432  0  2.005094  0  0  -0.751356  0  2.254464  0  0  -0.769534  0  2.236505  0  0  -0.418344  -0.738784  0  2.266677  0
O  O86  1  0.96532224  0.04425055  0.67216044  1  0  -0.710525  0  1.962648  0  0  -0.662186  0  2.196911  0  0  -0.683506  0  2.183847  0  0  -0.36506  -0.647431  0  2.205697  0
O  O87  1  0.03467513  0.95575027  0.32784096  1  0  -0.710551  0  1.96276  0  0  -0.662212  0  2.196955  0  0  -0.683554  0  2.183928  0  0  -0.365082  -0.647458  0  2.205742  0
O  O88  1  0.60809724  0.09299726  0.60531044  1  0  -0.782889  0  2.022646  0  0  -0.741144  0  2.270663  0  0  -0.763673  0  2.259052  0  0  -0.424087  -0.72506  0  2.278132  0
O  O89  1  0.39189909  0.90699601  0.39469009  1  0  -0.78298  0  2.022603  0  0  -0.741189  0  2.27058  0  0  -0.763723  0  2.258987  0  0  -0.424083  -0.725126  0  2.27807  0
O  O90  1  0.48356742  0.86314135  0.59888193  1  0  -0.748988  0  1.959268  0  0  -0.704673  0  2.200587  0  0  -0.725017  0  2.185968  0  0  -0.406173  -0.690542  0  2.210604  0
O  O91  1  0.51642959  0.13685408  0.40111832  1  0  -0.749093  0  1.95927  0  0  -0.704799  0  2.200634  0  0  -0.725148  0  2.186028  0  0  -0.406245  -0.690675  0  2.210642  0
O  O92  1  0.13684147  0.70286713  0.70892889  1  0  -0.658236  0  2.075009  0  0  -0.610652  0  2.313674  0  0  -0.625678  0  2.300436  0  0  -0.475716  -0.600032  0  2.322721  0
O  O93  1  0.86315858  0.29713370  0.29107105  1  0  -0.658227  0  2.075005  0  0  -0.610634  0  2.313699  0  0  -0.625659  0  2.30046  0  0  -0.475706  -0.600013  0  2.322734  0
O  O94  1  0.17365683  0.24031846  0.35211269  1  0  -0.895182  0  1.865548  0  0  -0.845146  0  2.035801  0  0  -0.863223  0  2.005813  0  0  -0.609554  -0.8324  0  2.056824  0
O  O95  1  0.82634455  0.75968237  0.64788653  1  0  -0.89521  0  1.865463  0  0  -0.845182  0  2.035707  0  0  -0.863264  0  2.005716  0  0  -0.609559  -0.832436  0  2.05673  0
