# generated using pymatgen
data_CdH18C28O5
_symmetry_space_group_name_H-M   'P 1'
_cell_length_a   8.20368747
_cell_length_b   9.30182240
_cell_length_c   17.32202953
_cell_angle_alpha   107.73460081
_cell_angle_beta   94.80166742
_cell_angle_gamma   90.95782862
_symmetry_Int_Tables_number   1
_chemical_formula_structural   CdH18C28O5
_chemical_formula_sum   'Cd2 H36 C56 O10'
_cell_volume   1253.35440897
_cell_formula_units_Z   2
loop_
 _symmetry_equiv_pos_site_id
 _symmetry_equiv_pos_as_xyz
  1  'x, y, z'
loop_
 _atom_site_type_symbol
 _atom_site_label
 _atom_site_symmetry_multiplicity
 _atom_site_fract_x
 _atom_site_fract_y
 _atom_site_fract_z
 _atom_site_occupancy
 _atom_site_pbe_bader_charge
 _atom_site_pbe_bader_spin_density
 _atom_site_pbe_cm5_charge
 _atom_site_pbe_ddec_charge
 _atom_site_pbe_ddec_spin_density
 _atom_site_pbe_ddec_sum_bond_order
 _atom_site_pbe_magmom
Cd  Cd0  1  0.77792637  0.43793660  0.00287649  1  1.323658  0  0.790931  1.060625  0  1.98816  0
Cd  Cd1  1  0.22201806  0.56216615  0.99714845  1  1.32389  0  0.790969  1.060505  0  1.988101  0
H  H2  1  0.78491427  0.72403534  0.96744684  1  0.61739  0  0.317729  0.405363  0  0.883616  0
H  H3  1  0.60789647  0.64094242  0.96062135  1  0.666859  0  0.286007  0.383002  0  0.958545  0
H  H4  1  0.21501398  0.27606357  0.03255445  1  0.617622  0  0.317599  0.405212  0  0.883996  0
H  H5  1  0.39204043  0.35916652  0.03940213  1  0.666411  0  0.286017  0.383133  0  0.958348  0
H  H6  1  0.27035387  0.50707956  0.78842766  1  0.118643  0  0.102969  0.106464  0  1.016111  0
H  H7  1  0.22609946  0.70057086  0.21911579  1  0.118557  0  0.106033  0.112761  0  1.013792  0
H  H8  1  0.72958394  0.49297962  0.21157603  1  0.119482  0  0.102831  0.106216  0  1.016059  0
H  H9  1  0.77386773  0.29945328  0.78091471  1  0.11811  0  0.10598  0.112738  0  1.013958  0
H  H10  1  0.10798023  0.37518881  0.65716663  1  0.043103  0  0.099702  0.104555  0  1.016989  0
H  H11  1  0.38943840  0.71655986  0.34900444  1  0.080253  0  0.101144  0.107909  0  1.016549  0
H  H12  1  0.89196754  0.62481216  0.34283777  1  0.043942  0  0.09966  0.104495  0  1.017125  0
H  H13  1  0.61056379  0.28337614  0.65101395  1  0.07928  0  0.101219  0.108006  0  1.016385  0
H  H14  1  0.28371774  0.94985994  0.67129212  1  0.047584  0  0.095257  0.09582  0  1.054869  0
H  H15  1  0.22566409  0.26208175  0.32585594  1  0.082476  0  0.095802  0.096842  0  1.055404  0
H  H16  1  0.71627296  0.05020437  0.32873500  1  0.048638  0  0.095294  0.095975  0  1.054836  0
H  H17  1  0.77441168  0.73780376  0.67408286  1  0.083316  0  0.095884  0.097062  0  1.055003  0
H  H18  1  0.44874722  0.08377986  0.80241154  1  0.084465  0  0.105892  0.108742  0  0.993872  0
H  H19  1  0.06067345  0.24709614  0.19555374  1  0.060563  0  0.105242  0.110682  0  0.99656  0
H  H20  1  0.55126154  0.91629750  0.19761509  1  0.084132  0  0.105977  0.108945  0  0.993738  0
H  H21  1  0.93935442  0.75285255  0.80439583  1  0.060635  0  0.105279  0.110747  0  0.996612  0
H  H22  1  0.39348104  0.17427473  0.55868475  1  0.066807  0  0.097063  0.09531  0  1.041573  0
H  H23  1  0.11393764  0.61581824  0.44395855  1  0.078946  0  0.097818  0.097766  0  1.034246  0
H  H24  1  0.60651003  0.82572171  0.44134142  1  0.066669  0  0.097084  0.095378  0  1.041479  0
H  H25  1  0.88611577  0.38415006  0.55601049  1  0.079549  0  0.097802  0.09765  0  1.034383  0
H  H26  1  0.51654572  0.14100045  0.42976228  1  0.074958  0  0.097914  0.097331  0  1.029009  0
H  H27  1  0.98922159  0.71583762  0.57306153  1  0.0591  0  0.098586  0.098886  0  1.023642  0
H  H28  1  0.48344732  0.85895953  0.57025569  1  0.075369  0  0.097822  0.097227  0  1.029076  0
H  H29  1  0.01087092  0.28418800  0.42690970  1  0.058388  0  0.098573  0.098826  0  1.023891  0
H  H30  1  0.35499029  0.01134620  0.29686843  1  0.03346  0  0.100071  0.097409  0  1.011172  0
H  H31  1  0.14425328  0.72136796  0.70463130  1  0.058572  0  0.099993  0.098755  0  1.01103  0
H  H32  1  0.64498685  0.98862067  0.70316262  1  0.032521  0  0.100108  0.097664  0  1.01136  0
H  H33  1  0.85585137  0.27861000  0.29533899  1  0.058177  0  0.099893  0.098631  0  1.010915  0
H  H34  1  0.92788281  0.08650885  0.70610607  1  0.06282  0  0.101812  0.10605  0  1.014752  0
H  H35  1  0.57780159  0.37561897  0.29406941  1  0.093937  0  0.099763  0.10231  0  1.02262  0
H  H36  1  0.07210184  0.91349919  0.29391848  1  0.06286  0  0.101754  0.10604  0  1.014751  0
H  H37  1  0.42227345  0.62425359  0.70588253  1  0.095086  0  0.099854  0.10255  0  1.02229  0
C  C38  1  0.47835014  0.38693030  0.87747138  1  1.522222  0  0.212622  0.593225  0  4.178904  0
C  C39  1  0.02594239  0.46721915  0.12463845  1  1.493953  0  0.191785  0.544575  0  4.252912  0
C  C40  1  0.52160265  0.61317873  0.12254884  1  1.521315  0  0.212828  0.593728  0  4.178449  0
C  C41  1  0.97401700  0.53281194  0.87537117  1  1.494739  0  0.19172  0.544466  0  4.25317  0
C  C42  1  0.37111688  0.30383730  0.80274577  1  0.051219  0  -0.023325  -0.04851  0  3.983913  0
C  C43  1  0.13265744  0.47334320  0.19950368  1  0.024121  0  -0.027161  -0.052379  0  4.00145  0
C  C44  1  0.62885764  0.69623132  0.19727078  1  0.051651  0  -0.02342  -0.048686  0  3.98393  0
C  C45  1  0.86733079  0.52665464  0.80049733  1  0.024923  0  -0.027016  -0.052127  0  4.001404  0
C  C46  1  0.27276337  0.38493706  0.76222613  1  -0.079511  0  -0.084168  -0.085437  0  3.977071  0
C  C47  1  0.22637979  0.60494464  0.24285789  1  -0.058938  0  -0.080473  -0.076856  0  3.960026  0
C  C48  1  0.72719178  0.61511949  0.23778654  1  -0.079203  0  -0.083964  -0.084899  0  3.977001  0
C  C49  1  0.77360611  0.39505196  0.75714939  1  -0.058836  0  -0.080398  -0.076916  0  3.959871  0
C  C50  1  0.18194120  0.31070433  0.68887836  1  0.077604  0  -0.088291  -0.130835  0  3.96265  0
C  C51  1  0.31820748  0.61312008  0.31555626  1  -0.073071  0  -0.085551  -0.131397  0  3.949653  0
C  C52  1  0.81802816  0.68932162  0.31113475  1  0.075911  0  -0.088278  -0.130905  0  3.962936  0
C  C53  1  0.68181493  0.38682324  0.68443175  1  -0.071662  0  -0.085394  -0.131135  0  3.949217  0
C  C54  1  0.18645775  0.15370204  0.65500165  1  -0.104788  0  0.000371  0.08819  0  4.002252  0
C  C55  1  0.31806935  0.49009544  0.34632978  1  -0.048468  0  0.00316  0.091439  0  3.993571  0
C  C56  1  0.81352511  0.84632707  0.34501857  1  -0.105183  0  0.000356  0.08829  0  4.002114  0
C  C57  1  0.68198669  0.50980845  0.65363097  1  -0.040582  0  0.002871  0.091197  0  3.993641  0
C  C58  1  0.28159909  0.07221203  0.69695209  1  -0.040041  0  -0.091315  -0.138817  0  3.966669  0
C  C59  1  0.22600569  0.35770634  0.30199351  1  0.008428  0  -0.090971  -0.135344  0  3.970569  0
C  C60  1  0.71841017  0.92784367  0.30307408  1  -0.040819  0  -0.091236  -0.138885  0  3.966634  0
C  C61  1  0.77405151  0.64219442  0.69795682  1  0.000631  0  -0.091114  -0.135738  0  3.970845  0
C  C62  1  0.37355008  0.14639932  0.76999792  1  -0.085904  0  -0.080045  -0.077142  0  3.968634  0
C  C63  1  0.13424484  0.34898451  0.22938116  1  -0.062336  0  -0.086241  -0.09346  0  3.985275  0
C  C64  1  0.62645139  0.85367448  0.23002752  1  -0.086593  0  -0.080241  -0.077579  0  3.968709  0
C  C65  1  0.86577598  0.65096084  0.77058441  1  -0.063879  0  -0.086411  -0.093656  0  3.985747  0
C  C66  1  0.09156560  0.07509064  0.57578505  1  -0.017239  0  -0.001794  -0.027415  0  3.940341  0
C  C67  1  0.41185070  0.49726464  0.42492827  1  0.024956  0  -0.00153  -0.027747  0  3.934143  0
C  C68  1  0.90841058  0.92491401  0.42424166  1  -0.016715  0  -0.001872  -0.027553  0  3.940888  0
C  C69  1  0.58820284  0.50264161  0.57503263  1  -0.003013  0  -0.001606  -0.027875  0  3.933542  0
C  C70  1  0.93151645  0.01668373  0.57473230  1  -0.011737  0  -0.007096  0.028678  0  4.002644  0
C  C71  1  0.56956686  0.43944321  0.42503329  1  0.008712  0  -0.006178  0.029752  0  3.999572  0
C  C72  1  0.06845976  0.98332087  0.42529649  1  -0.01253  0  -0.007146  0.028791  0  4.002815  0
C  C73  1  0.43047563  0.56045640  0.57491504  1  0.039601  0  -0.006021  0.030315  0  3.999162  0
C  C74  1  0.16142867  0.05966632  0.50214143  1  -0.013653  0  -0.006079  0.030842  0  3.987485  0
C  C75  1  0.34099924  0.55799462  0.49882518  1  -0.087549  0  -0.005601  0.031688  0  3.986637  0
C  C76  1  0.83855264  0.94032888  0.49788578  1  -0.013827  0  -0.006196  0.030853  0  3.98817  0
C  C77  1  0.65905405  0.44192109  0.50113411  1  -0.085492  0  -0.0058  0.031592  0  3.986562  0
C  C78  1  0.32353343  0.11668793  0.50090254  1  -0.018727  0  -0.090864  -0.121773  0  3.977912  0
C  C79  1  0.18134888  0.61709984  0.50106211  1  -0.030692  0  -0.090409  -0.123691  0  3.976076  0
C  C80  1  0.67645298  0.88329938  0.49912560  1  -0.017988  0  -0.090949  -0.122127  0  3.978463  0
C  C81  1  0.81871267  0.38283198  0.49890182  1  -0.031899  0  -0.090262  -0.123283  0  3.976403  0
C  C82  1  0.39170478  0.09859580  0.42903427  1  -0.071109  0  -0.094968  -0.086741  0  4.024499  0
C  C83  1  0.11222868  0.67351196  0.57310565  1  -0.015926  0  -0.093507  -0.084  0  4.023901  0
C  C84  1  0.60828311  0.90138001  0.57099244  1  -0.073743  0  -0.094761  -0.08623  0  4.02484  0
C  C85  1  0.88784542  0.32646106  0.42686238  1  -0.014216  0  -0.093596  -0.084126  0  4.02449  0
C  C86  1  0.29982388  0.02473564  0.35361291  1  -0.093555  0  -0.095338  -0.088034  0  4.03633  0
C  C87  1  0.20038369  0.67644425  0.64777055  1  -0.080155  0  -0.095763  -0.088338  0  4.034411  0
C  C88  1  0.70016171  0.97523675  0.64641907  1  -0.089606  0  -0.095484  -0.088681  0  4.03751  0
C  C89  1  0.79968467  0.32351211  0.35219652  1  -0.081875  0  -0.095694  -0.088454  0  4.034777  0
C  C90  1  0.85737561  0.03017582  0.64819375  1  0.008514  0  -0.091523  -0.13244  0  3.98679  0
C  C91  1  0.64491281  0.37747234  0.35136068  1  -0.111809  0  -0.091476  -0.130938  0  3.988816  0
C  C92  1  0.14260214  0.96981566  0.35183527  1  0.010793  0  -0.091569  -0.132661  0  3.986722  0
C  C93  1  0.35513343  0.62242677  0.64859137  1  -0.113615  0  -0.091836  -0.131947  0  3.988301  0
O  O94  1  0.59705617  0.31697303  0.89940993  1  -1.141523  0  -0.318937  -0.544377  0  2.253043  0
O  O95  1  0.93174145  0.34896498  0.09106861  1  -1.135311  0  -0.331717  -0.555383  0  2.171508  0
O  O96  1  0.40290371  0.68314892  0.10061403  1  -1.140283  0  -0.318945  -0.544403  0  2.252781  0
O  O97  1  0.06820414  0.65107582  0.90893448  1  -1.136508  0  -0.331716  -0.555348  0  2.171383  0
O  O98  1  0.71265069  0.67897569  0.99636933  1  -1.246631  0  -0.576839  -0.748989  0  2.041596  0
O  O99  1  0.28731386  0.32109053  0.00363124  1  -1.246548  0  -0.576706  -0.748878  0  2.041685  0
O  O100  1  0.44824421  0.52535014  0.91387490  1  -1.195878  0  -0.332433  -0.601703  0  2.274895  0
O  O101  1  0.02682943  0.57879664  0.09566362  1  -1.170435  0  -0.337645  -0.592605  0  2.254703  0
O  O102  1  0.55169239  0.47476383  0.08613533  1  -1.195793  0  -0.332592  -0.602231  0  2.274844  0
O  O103  1  0.97312711  0.42125850  0.90435832  1  -1.170125  0  -0.337581  -0.592526  0  2.255263  0
