# generated using pymatgen
data_CuH20C26IN6
_symmetry_space_group_name_H-M   'P 1'
_cell_length_a   8.46157567
_cell_length_b   10.48397253
_cell_length_c   15.89100000
_cell_angle_alpha   91.72395274
_cell_angle_beta   97.30004232
_cell_angle_gamma   104.33653636
_symmetry_Int_Tables_number   1
_chemical_formula_structural   CuH20C26IN6
_chemical_formula_sum   'Cu2 H40 C52 I2 N12'
_cell_volume   1351.95234279
_cell_formula_units_Z   2
loop_
 _symmetry_equiv_pos_site_id
 _symmetry_equiv_pos_as_xyz
  1  'x, y, z'
loop_
 _atom_site_type_symbol
 _atom_site_label
 _atom_site_symmetry_multiplicity
 _atom_site_fract_x
 _atom_site_fract_y
 _atom_site_fract_z
 _atom_site_occupancy
 _atom_site_hle17_bader_spin_density
 _atom_site_hle17_ddec_charge
 _atom_site_hle17_ddec_spin_density
 _atom_site_hle17_ddec_sum_bond_order
 _atom_site_hle17_magmom
 _atom_site_hse06_10hf_bader_spin_density
 _atom_site_hse06_10hf_ddec_charge
 _atom_site_hse06_10hf_ddec_spin_density
 _atom_site_hse06_10hf_ddec_sum_bond_order
 _atom_site_hse06_10hf_magmom
 _atom_site_hse06_bader_spin_density
 _atom_site_hse06_ddec_charge
 _atom_site_hse06_ddec_spin_density
 _atom_site_hse06_ddec_sum_bond_order
 _atom_site_hse06_magmom
 _atom_site_pbe_bader_charge
 _atom_site_pbe_bader_spin_density
 _atom_site_pbe_cm5_charge
 _atom_site_pbe_ddec_charge
 _atom_site_pbe_ddec_spin_density
 _atom_site_pbe_ddec_sum_bond_order
 _atom_site_pbe_magmom
Cu  Cu0  1  0.92405501  0.99790288  0.06349560  1  0  0.293357  0  2.188532  0  0  0.196168  0  2.688105  0  0  0.201511  0  2.636159  0  0.507096  0  0.342103  0.197458  0  2.719024  0
Cu  Cu1  1  0.07594424  0.00209932  0.93650465  1  0  0.293353  0  2.188517  0  0  0.196141  0  2.688092  0  0  0.201532  0  2.636162  0  0.506987  0  0.342285  0.197745  0  2.71887  0
H  H2  1  0.01945244  0.76280990  0.14482007  1  0  0.079602  0  0.936906  0  0  0.085802  0  1.002322  0  0  0.089307  0  0.998543  0  0.110939  0  0.108851  0.082962  0  1.0054  0
H  H3  1  0.98054862  0.23719427  0.85517971  1  0  0.07963  0  0.936822  0  0  0.085843  0  1.002219  0  0  0.08935  0  0.998437  0  0.111002  0  0.108874  0.08299  0  1.005312  0
H  H4  1  0.90869551  0.60619174  0.25144789  1  0  0.100842  0  0.979783  0  0  0.102266  0  1.053545  0  0  0.105626  0  1.052732  0  0.113711  0  0.102459  0.100035  0  1.053657  0
H  H5  1  0.09130675  0.39381243  0.74855260  1  0  0.100807  0  0.979835  0  0  0.102227  0  1.053577  0  0  0.105584  0  1.052775  0  0.113686  0  0.102451  0.099994  0  1.053692  0
H  H6  1  0.64040013  0.61439072  0.30153297  1  0  0.099464  0  0.949671  0  0  0.108612  0  1.015494  0  0  0.111464  0  1.012706  0  0.102988  0  0.107668  0.10639  0  1.017637  0
H  H7  1  0.35959730  0.38560951  0.69846586  1  0  0.099481  0  0.949674  0  0  0.108637  0  1.01549  0  0  0.111489  0  1.012702  0  0.102969  0  0.107673  0.106416  0  1.01763  0
H  H8  1  0.61236987  0.91863293  0.12790015  1  0  0.075278  0  0.954874  0  0  0.079767  0  1.02998  0  0  0.082619  0  1.027511  0  0.07394  0  0.106591  0.077375  0  1.032075  0
H  H9  1  0.38763477  0.08137124  0.87209924  1  0  0.075288  0  0.954943  0  0  0.079763  0  1.030062  0  0  0.082615  0  1.027593  0  0.074068  0  0.106581  0.077367  0  1.032158  0
H  H10  1  0.40505877  0.86548409  0.21118449  1  0  0.066374  0  0.970126  0  0  0.07166  0  1.046216  0  0  0.075349  0  1.04203  0  0.108404  0  0.100282  0.068635  0  1.049419  0
H  H11  1  0.59493985  0.13451614  0.78881504  1  0  0.066405  0  0.970094  0  0  0.071691  0  1.046176  0  0  0.07538  0  1.041992  0  0.108415  0  0.100296  0.068661  0  1.049382  0
H  H12  1  0.95081878  0.64012808  0.48371731  1  0  0.092261  0  0.995629  0  0  0.093613  0  1.072429  0  0  0.096763  0  1.071202  0  0.103359  0  0.096607  0.091193  0  1.073538  0
H  H13  1  0.04918129  0.35986919  0.51628415  1  0  0.092263  0  0.99562  0  0  0.093629  0  1.072395  0  0  0.096792  0  1.071155  0  0.103365  0  0.096629  0.091196  0  1.073518  0
H  H14  1  0.71266976  0.72332932  0.51082513  1  0  0.080809  0  0.985582  0  0  0.087896  0  1.055272  0  0  0.089536  0  1.056474  0  0.083946  0  0.093539  0.086631  0  1.054706  0
H  H15  1  0.28733006  0.27667091  0.48917386  1  0  0.080841  0  0.985603  0  0  0.087943  0  1.055267  0  0  0.089577  0  1.056484  0  0.08392  0  0.093541  0.086667  0  1.054716  0
H  H16  1  0.66881385  0.92660008  0.44697887  1  0  0.074798  0  0.983892  0  0  0.085449  0  1.049671  0  0  0.087202  0  1.049585  0  0.061357  0  0.093438  0.08407  0  1.05001  0
H  H17  1  0.33118597  0.07340015  0.55301823  1  0  0.074767  0  0.98393  0  0  0.08543  0  1.049677  0  0  0.087186  0  1.049587  0  0.061389  0  0.093432  0.08405  0  1.050018  0
H  H18  1  0.86949009  0.05224617  0.35820029  1  0  0.084567  0  0.951321  0  0  0.09616  0  1.009301  0  0  0.098029  0  1.0102  0  0.043859  0  0.096065  0.094774  0  1.008766  0
H  H19  1  0.13051061  0.94775307  0.64179811  1  0  0.084552  0  0.95133  0  0  0.096139  0  1.009315  0  0  0.098006  0  1.010217  0  0.043857  0  0.096069  0.094758  0  1.008773  0
H  H20  1  0.10921529  0.96685607  0.32918147  1  0  0.093166  0  0.959534  0  0  0.099336  0  1.029739  0  0  0.102322  0  1.028061  0  0.051975  0  0.099986  0.097022  0  1.031193  0
H  H21  1  0.89078359  0.03314120  0.67081991  1  0  0.093134  0  0.959507  0  0  0.099294  0  1.029727  0  0  0.10228  0  1.028049  0  0.051867  0  0.099961  0.096974  0  1.031186  0
H  H22  1  0.36086379  0.89753222  0.50193654  1  0  0.085222  0  0.982835  0  0  0.094443  0  1.049771  0  0  0.096895  0  1.049278  0  0.057167  0  0.099298  0.092552  0  1.050533  0
H  H23  1  0.63912976  0.10246702  0.49806641  1  0  0.085238  0  0.982751  0  0  0.09447  0  1.049683  0  0  0.096922  0  1.04919  0  0.057131  0  0.099296  0.092585  0  1.050438  0
H  H24  1  0.55202127  0.98024612  0.63592719  1  0  0.09279  0  0.968504  0  0  0.099586  0  1.03475  0  0  0.102486  0  1.033802  0  0.054577  0  0.098586  0.097481  0  1.035659  0
H  H25  1  0.44797403  0.01975114  0.36407458  1  0  0.092798  0  0.968499  0  0  0.099582  0  1.034758  0  0  0.102487  0  1.033803  0  0.054561  0  0.098584  0.097478  0  1.035674  0
H  H26  1  0.64820485  0.82274009  0.72972975  1  0  0.08134  0  0.982302  0  0  0.089879  0  1.050746  0  0  0.092957  0  1.049255  0  0.082348  0  0.087749  0.087463  0  1.051991  0
H  H27  1  0.35179610  0.17725619  0.27026924  1  0  0.081334  0  0.982309  0  0  0.089868  0  1.050783  0  0  0.092969  0  1.049257  0  0.082403  0  0.087745  0.087458  0  1.05203  0
H  H28  1  0.56280106  0.58073357  0.68644405  1  0  0.089221  0  0.948881  0  0  0.1  0  1.008211  0  0  0.1032  0  1.006295  0  0.075947  0  0.101467  0.097911  0  1.009344  0
H  H29  1  0.43720051  0.41926468  0.31355312  1  0  0.089222  0  0.948819  0  0  0.100005  0  1.008142  0  0  0.103205  0  1.006227  0  0.07596  0  0.1015  0.097922  0  1.009275  0
H  H30  1  0.37233496  0.49891247  0.55302448  1  0  0.09903  0  0.966624  0  0  0.105424  0  1.036671  0  0  0.108517  0  1.035289  0  0.081193  0  0.104425  0.103081  0  1.038114  0
H  H31  1  0.62766812  0.50108677  0.44697219  1  0  0.09901  0  0.966672  0  0  0.105393  0  1.03672  0  0  0.108486  0  1.035344  0  0.081245  0  0.104457  0.103052  0  1.038164  0
H  H32  1  0.16317726  0.32469378  0.33724074  1  0  0.067602  0  0.957423  0  0  0.078324  0  1.026015  0  0  0.080804  0  1.023281  0  0.101273  0  0.113359  0.07636  0  1.028429  0
H  H33  1  0.83682582  0.67530546  0.66275908  1  0  0.067663  0  0.957411  0  0  0.078403  0  1.025984  0  0  0.080864  0  1.023269  0  0.101331  0  0.113391  0.076438  0  1.028398  0
H  H34  1  0.74896430  0.40199365  0.27226703  1  0  0.097729  0  0.964523  0  0  0.106385  0  1.030608  0  0  0.109126  0  1.028375  0  0.104959  0  0.106233  0.104706  0  1.031515  0
H  H35  1  0.25104154  0.59801052  0.72773307  1  0  0.097731  0  0.964418  0  0  0.106339  0  1.030558  0  0  0.109085  0  1.028327  0  0.105314  0  0.106217  0.104673  0  1.031457  0
H  H36  1  0.55829407  0.29153680  0.14060120  1  0  0.106532  0  0.947462  0  0  0.117159  0  1.002683  0  0  0.120812  0  1.001682  0  0.06961  0  0.102269  0.114523  0  1.0035  0
H  H37  1  0.44170969  0.70846836  0.85939878  1  0  0.106549  0  0.947442  0  0  0.117179  0  1.002665  0  0  0.12083  0  1.001666  0  0.069627  0  0.102295  0.114564  0  1.003477  0
H  H38  1  0.65275901  0.13863092  0.04655737  1  0  0.07192  0  0.965156  0  0  0.074701  0  1.040135  0  0  0.078502  0  1.036134  0  0.120045  0  0.097421  0.071645  0  1.04338  0
H  H39  1  0.34723936  0.86137227  0.95344157  1  0  0.071894  0  0.965221  0  0  0.074691  0  1.040183  0  0  0.078493  0  1.03618  0  0.120075  0  0.09742  0.071654  0  1.04343  0
H  H40  1  0.09559087  0.18950484  0.20389194  1  0  0.070099  0  0.974357  0  0  0.075452  0  1.048302  0  0  0.079035  0  1.044693  0  0.112044  0  0.099807  0.072763  0  1.050908  0
H  H41  1  0.90440588  0.81048947  0.79610735  1  0  0.070076  0  0.974388  0  0  0.075429  0  1.048335  0  0  0.079014  0  1.044722  0  0.112083  0  0.099799  0.072754  0  1.050941  0
C  C42  1  0.89984627  0.75892893  0.16489380  1  0  0.139222  0  3.650961  0  0  0.109466  0  3.8961  0  0  0.117619  0  3.911214  0  0.469366  0  0.049647  0.103778  0  3.886764  0
C  C43  1  0.10015598  0.24107524  0.83510732  1  0  0.139163  0  3.650983  0  0  0.109383  0  3.896084  0  0  0.117537  0  3.911199  0  0.469299  0  0.049622  0.103697  0  3.886756  0
C  C44  1  0.83705518  0.67208644  0.22449411  1  0  -0.114797  0  3.743647  0  0  -0.122566  0  3.992341  0  0  -0.131189  0  4.01504  0  -0.056608  0  -0.083097  -0.117228  0  3.977127  0
C  C45  1  0.16294588  0.32791774  0.77550630  1  0  -0.114787  0  3.743664  0  0  -0.122524  0  3.992351  0  0  -0.131146  0  4.015048  0  -0.056745  0  -0.083103  -0.117175  0  3.977113  0
C  C46  1  0.68921208  0.67641529  0.25230849  1  0  -0.033566  0  3.671808  0  0  -0.060267  0  3.912693  0  0  -0.054894  0  3.930275  0  -0.030415  0  -0.062147  -0.06381  0  3.900818  0
C  C47  1  0.31078836  0.32358691  0.74769120  1  0  -0.03354  0  3.671776  0  0  -0.060268  0  3.91267  0  0  -0.054898  0  3.930253  0  -0.030337  0  -0.062127  -0.063822  0  3.900785  0
C  C48  1  0.60553186  0.76751265  0.21809740  1  0  -0.00795  0  3.826692  0  0  0.018109  0  4.05108  0  0  0.010576  0  4.076407  0  -0.021514  0  -0.009172  0.022815  0  4.034099  0
C  C49  1  0.39446858  0.23248955  0.78190230  1  0  -0.007963  0  3.826732  0  0  0.018092  0  4.051131  0  0  0.01056  0  4.076452  0  -0.021662  0  -0.009177  0.02281  0  4.034119  0
C  C50  1  0.67532604  0.84787074  0.15649749  1  0  0.088848  0  3.649393  0  0  0.054792  0  3.889253  0  0  0.060363  0  3.907766  0  0.535506  0  0.04666  0.05084  0  3.878219  0
C  C51  1  0.32467502  0.15213344  0.84350418  1  0  0.088841  0  3.649441  0  0  0.054775  0  3.889302  0  0  0.060352  0  3.907807  0  0.535585  0  0.04667  0.05083  0  3.878278  0
C  C52  1  0.45744701  0.79177318  0.24488898  1  0  0.095788  0  3.687798  0  0  0.06678  0  3.941439  0  0  0.075832  0  3.953389  0  0.588505  0  0.070321  0.060467  0  3.933904  0
C  C53  1  0.54254980  0.20822507  0.75511040  1  0  0.095702  0  3.687768  0  0  0.066708  0  3.941402  0  0  0.075757  0  3.953353  0  0.588464  0  0.070207  0.06036  0  3.933866  0
C  C54  1  0.18336207  0.74494499  0.38527609  1  0  0.145593  0  3.724626  0  0  0.138438  0  3.977795  0  0  0.147032  0  3.990059  0  0.635434  0  0.149902  0.132311  0  3.969501  0
C  C55  1  0.81663743  0.25505425  0.61472097  1  0  0.145645  0  3.724706  0  0  0.13844  0  3.97796  0  0  0.147032  0  3.990225  0  0.635232  0  0.149908  0.132288  0  3.969659  0
C  C56  1  0.04676193  0.79869462  0.40477353  1  0  0.004962  0  3.795597  0  0  0.02203  0  4.025903  0  0  0.01739  0  4.052077  0  -0.048201  0  -0.012767  0.025109  0  4.008123  0
C  C57  1  0.95323783  0.20130166  0.59522474  1  0  0.004882  0  3.795839  0  0  0.021963  0  4.026149  0  0  0.017325  0  4.052326  0  -0.048187  0  -0.012848  0.025048  0  4.008354  0
C  C58  1  0.93553601  0.73142077  0.45684815  1  0  -0.095669  0  3.723528  0  0  -0.118182  0  3.973089  0  0  -0.120466  0  3.995571  0  -0.037669  0  -0.088749  -0.116282  0  3.957683  0
C  C59  1  0.06446287  0.26857650  0.54315323  1  0  -0.095591  0  3.723455  0  0  -0.118116  0  3.973016  0  0  -0.120406  0  3.995481  0  -0.037619  0  -0.088725  -0.116216  0  3.957622  0
C  C60  1  0.80012862  0.77760378  0.47162442  1  0  -0.076963  0  3.775222  0  0  -0.08685  0  4.023407  0  0  -0.09045  0  4.046944  0  -0.137022  0  -0.094173  -0.084337  0  4.007286  0
C  C61  1  0.19987358  0.22239645  0.52837472  1  0  -0.077076  0  3.775174  0  0  -0.086985  0  4.023368  0  0  -0.090586  0  4.046908  0  -0.136922  0  -0.094208  -0.084461  0  4.007255  0
C  C62  1  0.77604301  0.89232635  0.43580587  1  0  -0.046291  0  3.750884  0  0  -0.063963  0  3.999949  0  0  -0.06514  0  4.023135  0  0.004028  0  -0.085722  -0.062724  0  3.983866  0
C  C63  1  0.22395825  0.10767092  0.56419252  1  0  -0.046249  0  3.750786  0  0  -0.063921  0  3.999851  0  0  -0.065097  0  4.023035  0  0.003865  0  -0.08574  -0.062692  0  3.983777  0
C  C64  1  0.88800447  0.96184750  0.38537072  1  0  -0.074166  0  3.771729  0  0  -0.082903  0  4.015189  0  0  -0.086697  0  4.03943  0  0.022319  0  -0.091838  -0.080287  0  3.998681  0
C  C65  1  0.11199322  0.03814977  0.61462806  1  0  -0.074176  0  3.771632  0  0  -0.082904  0  4.015082  0  0  -0.086697  0  4.039322  0  0.022406  0  -0.091862  -0.080299  0  3.998582  0
C  C66  1  0.02234690  0.91534189  0.36949698  1  0  -0.079322  0  3.713087  0  0  -0.099031  0  3.956508  0  0  -0.100384  0  3.978924  0  -0.025729  0  -0.081116  -0.098255  0  3.941748  0
C  C67  1  0.97765079  0.08465537  0.63050117  1  0  -0.079202  0  3.713178  0  0  -0.0989  0  3.956563  0  0  -0.10025  0  3.978974  0  -0.025749  0  -0.081035  -0.098134  0  3.941813  0
C  C68  1  0.23417444  0.64530633  0.44192362  1  0  0.151243  0  3.712435  0  0  0.139753  0  3.968938  0  0  0.151225  0  3.978757  0  0.659119  0  0.154413  0.13181  0  3.96216  0
C  C69  1  0.76582657  0.35469390  0.55807607  1  0  0.151297  0  3.712527  0  0  0.139784  0  3.969063  0  0  0.151252  0  3.978886  0  0.659146  0  0.154432  0.131845  0  3.962267  0
C  C70  1  0.35201423  0.69273137  0.51924135  1  0  0.025658  0  3.767785  0  0  0.040506  0  4.000614  0  0  0.037321  0  4.023706  0  -0.009023  0  -0.004851  0.04258  0  3.984962  0
C  C71  1  0.64798528  0.30726787  0.48075822  1  0  0.025606  0  3.767835  0  0  0.04049  0  4.000647  0  0  0.037313  0  4.023726  0  -0.008994  0  -0.004856  0.042566  0  3.984984  0
C  C72  1  0.40526379  0.82843627  0.54277820  1  0  -0.096105  0  3.721303  0  0  -0.115898  0  3.963195  0  0  -0.117498  0  3.984581  0  -0.077308  0  -0.085195  -0.114547  0  3.948586  0
C  C73  1  0.59473691  0.17156297  0.45722335  1  0  -0.096171  0  3.721132  0  0  -0.115987  0  3.963026  0  0  -0.11759  0  3.98441  0  -0.077298  0  -0.085196  -0.11463  0  3.948415  0
C  C74  1  0.51160890  0.87479093  0.61783827  1  0  -0.07152  0  3.757861  0  0  -0.078947  0  4.000044  0  0  -0.081416  0  4.021445  0  -0.00335  0  -0.091284  -0.077131  0  3.985472  0
C  C75  1  0.48838790  0.12520732  0.38216236  1  0  -0.071415  0  3.757769  0  0  -0.078819  0  3.99994  0  0  -0.081292  0  4.021342  0  -0.003354  0  -0.091215  -0.077008  0  3.98538  0
C  C76  1  0.56745137  0.78596553  0.67021602  1  0  -0.061792  0  3.757416  0  0  -0.075708  0  4.001246  0  0  -0.077546  0  4.023242  0  -0.041369  0  -0.088862  -0.074419  0  3.986553  0
C  C77  1  0.43254600  0.21403075  0.32978461  1  0  -0.061827  0  3.757539  0  0  -0.075765  0  4.001373  0  0  -0.077615  0  4.02337  0  -0.041439  0  -0.088881  -0.074472  0  3.986681  0
C  C78  1  0.51769761  0.65066708  0.64650529  1  0  -0.087467  0  3.79325  0  0  -0.098807  0  4.045126  0  0  -0.102012  0  4.06608  0  -0.10052  0  -0.092431  -0.096535  0  4.030697  0
C  C79  1  0.48230246  0.34933018  0.35349428  1  0  -0.087375  0  3.793263  0  0  -0.098712  0  4.045131  0  0  -0.101918  0  4.066093  0  -0.100389  0  -0.092423  -0.096439  0  4.0307  0
C  C80  1  0.41114435  0.60395234  0.57182609  1  0  -0.080432  0  3.696049  0  0  -0.10315  0  3.945094  0  0  -0.103456  0  3.964371  0  -0.024066  0  -0.079545  -0.102933  0  3.932355  0
C  C81  1  0.58885485  0.39604592  0.42817218  1  0  -0.080483  0  3.696225  0  0  -0.10319  0  3.945278  0  0  -0.103502  0  3.96455  0  -0.024189  0  -0.079611  -0.102974  0  3.932539  0
C  C82  1  0.06149539  0.37039439  0.31845013  1  0  0.08836  0  3.683021  0  0  0.052538  0  3.941181  0  0  0.062884  0  3.952187  0  0.583818  0  0.071869  0.044994  0  3.934402  0
C  C83  1  0.93850707  0.62960288  0.68155150  1  0  0.088388  0  3.68307  0  0  0.052555  0  3.941231  0  0  0.062914  0  3.952236  0  0.583809  0  0.071895  0.044997  0  3.934454  0
C  C84  1  0.93984145  0.30828596  0.24662739  1  0  -0.007015  0  3.829842  0  0  0.017582  0  4.060473  0  0  0.010834  0  4.083  0  0.047849  0  -0.010111  0.02209  0  4.044885  0
C  C85  1  0.06016012  0.69171229  0.75337419  1  0  -0.007113  0  3.829845  0  0  0.017468  0  4.060473  0  0  0.010728  0  4.082978  0  0.047349  0  -0.010119  0.021987  0  4.044879  0
C  C86  1  0.78509104  0.33587502  0.22872972  1  0  -0.036963  0  3.690929  0  0  -0.065305  0  3.935411  0  0  -0.058666  0  3.951648  0  -0.074997  0  -0.065898  -0.069139  0  3.923157  0
C  C87  1  0.21491116  0.66412521  0.77127194  1  0  -0.036882  0  3.690854  0  0  -0.065145  0  3.935301  0  0  -0.058515  0  3.951536  0  -0.07502  0  -0.065868  -0.068961  0  3.923026  0
C  C88  1  0.68022745  0.27467419  0.15666948  1  0  -0.115098  0  3.754499  0  0  -0.122995  0  3.998193  0  0  -0.131287  0  4.019007  0  0.02713  0  -0.085909  -0.118092  0  3.98459  0
C  C89  1  0.31977268  0.72532702  0.84333143  1  0  -0.115099  0  3.754579  0  0  -0.123028  0  3.998277  0  0  -0.131317  0  4.019093  0  0.027141  0  -0.085865  -0.118107  0  3.98466  0
C  C90  1  0.73077095  0.18743512  0.10438817  1  0  0.122911  0  3.672062  0  0  0.093922  0  3.918066  0  0  0.102175  0  3.932702  0  0.437931  0  0.039138  0.08809  0  3.909149  0
C  C91  1  0.26922861  0.81256807  0.89561149  1  0  0.122993  0  3.672125  0  0  0.09397  0  3.918109  0  0  0.102222  0  3.932749  0  0.437932  0  0.039165  0.088147  0  3.909199  0
C  C92  1  0.97816581  0.21636782  0.19209868  1  0  0.083144  0  3.659104  0  0  0.050197  0  3.897219  0  0  0.056129  0  3.913353  0  0.437292  0  0.043444  0.046187  0  3.886751  0
C  C93  1  0.02183251  0.78363142  0.80790082  1  0  0.083208  0  3.659084  0  0  0.050241  0  3.89718  0  0  0.05617  0  3.913321  0  0.437476  0  0.04346  0.04625  0  3.886711  0
I  I94  1  0.24703667  0.03062360  0.08984682  1  0  -0.494854  0  1.351451  0  0  -0.449232  0  1.743562  0  0  -0.467109  0  1.706938  0  -0.502721  0  -0.236921  -0.433642  0  1.765699  0
I  I95  1  0.75295889  0.96937071  0.91015553  1  0  -0.494875  0  1.351438  0  0  -0.44926  0  1.743554  0  0  -0.467135  0  1.706929  0  -0.502747  0  -0.236936  -0.433679  0  1.765691  0
N  N96  1  0.82047702  0.84627553  0.13111956  1  0  -0.262245  0  3.36468  0  0  -0.188785  0  3.649473  0  0  -0.201173  0  3.659504  0  -1.207464  0  -0.354926  -0.182604  0  3.643815  0
N  N97  1  0.17952436  0.15372963  0.86888215  1  0  -0.262221  0  3.364709  0  0  -0.188727  0  3.649466  0  0  -0.201128  0  3.659525  0  -1.207406  0  -0.354958  -0.182607  0  3.643844  0
N  N98  1  0.38840816  0.73585025  0.30745163  1  0  -0.209561  0  3.008912  0  0  -0.184932  0  3.299639  0  0  -0.194994  0  3.316074  0  -0.765542  0  -0.221522  -0.178344  0  3.288474  0
N  N99  1  0.61158896  0.26414899  0.69254526  1  0  -0.209505  0  3.008839  0  0  -0.184878  0  3.299556  0  0  -0.194939  0  3.315994  0  -0.765845  0  -0.221466  -0.178303  0  3.288398  0
N  N100  1  0.25607529  0.78721250  0.32047089  1  0  -0.239891  0  3.040285  0  0  -0.214017  0  3.330609  0  0  -0.222745  0  3.34555  0  -0.753641  0  -0.209869  -0.208165  0  3.320522  0
N  N101  1  0.74392151  0.21278576  0.67952849  1  0  -0.239929  0  3.040295  0  0  -0.214037  0  3.330648  0  0  -0.222765  0  3.345587  0  -0.753212  0  -0.209875  -0.208195  0  3.320564  0
N  N102  1  0.17487475  0.51912926  0.42661535  1  0  -0.214037  0  3.072165  0  0  -0.183338  0  3.358314  0  0  -0.195352  0  3.37511  0  -0.768241  0  -0.191232  -0.174543  0  3.346108  0
N  N103  1  0.82512475  0.48086998  0.57338611  1  0  -0.214038  0  3.072207  0  0  -0.183327  0  3.35837  0  0  -0.195337  0  3.375163  0  -0.768256  0  -0.191287  -0.174544  0  3.346159  0
N  N104  1  0.05490194  0.47832574  0.35796259  1  0  -0.180483  0  3.075137  0  0  -0.147976  0  3.363262  0  0  -0.158865  0  3.381028  0  -0.750476  0  -0.199316  -0.140251  0  3.350538  0
N  N105  1  0.94509813  0.52167152  0.64203824  1  0  -0.180585  0  3.075203  0  0  -0.148082  0  3.363337  0  0  -0.158971  0  3.381098  0  -0.750505  0  -0.199363  -0.14035  0  3.350609  0
N  N106  1  0.87699929  0.15686381  0.12219690  1  0  -0.261537  0  3.351841  0  0  -0.189331  0  3.635268  0  0  -0.200114  0  3.643673  0  -1.233127  0  -0.357038  -0.182948  0  3.629635  0
N  N107  1  0.12300265  0.84313938  0.87780166  1  0  -0.261667  0  3.351867  0  0  -0.189399  0  3.635261  0  0  -0.200195  0  3.643693  0  -1.233115  0  -0.357016  -0.183033  0  3.629641  0
