# generated using pymatgen
data_TbH18C20N4Cl3
_symmetry_space_group_name_H-M   'P 1'
_cell_length_a   12.70778316
_cell_length_b   14.21577253
_cell_length_c   14.81670094
_cell_angle_alpha   89.99996405
_cell_angle_beta   90.00021339
_cell_angle_gamma   89.99982225
_symmetry_Int_Tables_number   1
_chemical_formula_structural   TbH18C20N4Cl3
_chemical_formula_sum   'Tb4 H72 C80 N16 Cl12'
_cell_volume   2676.65117064
_cell_formula_units_Z   4
loop_
 _symmetry_equiv_pos_site_id
 _symmetry_equiv_pos_as_xyz
  1  'x, y, z'
loop_
 _atom_site_type_symbol
 _atom_site_label
 _atom_site_symmetry_multiplicity
 _atom_site_fract_x
 _atom_site_fract_y
 _atom_site_fract_z
 _atom_site_occupancy
 _atom_site_pbe_bader_charge
 _atom_site_pbe_bader_spin_density
 _atom_site_pbe_cm5_charge
 _atom_site_pbe_ddec_charge
 _atom_site_pbe_ddec_spin_density
 _atom_site_pbe_ddec_sum_bond_order
 _atom_site_pbe_magmom
Tb  Tb0  1  0.33516783  0.33423020  0.63538344  1  2.017944  0  1.169679  1.617676  0  2.549576  0
Tb  Tb1  1  0.16483276  0.66576868  0.13538377  1  2.017943  0  1.169705  1.617746  0  2.549508  0
Tb  Tb2  1  0.83516741  0.16576882  0.36461619  1  2.01796  0  1.169712  1.617712  0  2.549554  0
Tb  Tb3  1  0.66483078  0.83423134  0.86461838  1  2.017943  0  1.169697  1.617723  0  2.549537  0
H  H4  1  0.09347398  0.99640288  0.32745196  1  0.125521  0  0.100759  0.118934  0  1.052354  0
H  H5  1  0.40652431  0.00359588  0.82745273  1  0.125538  0  0.100772  0.118961  0  1.05233  0
H  H6  1  0.59347546  0.50359664  0.67254795  1  0.12554  0  0.10074  0.118919  0  1.05239  0
H  H7  1  0.90652584  0.49640154  0.17254848  1  0.125551  0  0.100776  0.118958  0  1.052344  0
H  H8  1  0.33652574  0.43700913  0.21159272  1  0.068844  0  0.101818  0.09635  0  1.025818  0
H  H9  1  0.16347440  0.56299040  0.71159237  1  0.068842  0  0.101804  0.096358  0  1.025812  0
H  H10  1  0.83652516  0.06299200  0.78840557  1  0.068876  0  0.101811  0.096373  0  1.025843  0
H  H11  1  0.66347506  0.93700892  0.28840776  1  0.068834  0  0.101839  0.096385  0  1.025745  0
H  H12  1  0.44319368  0.06090415  0.38160048  1  0.117171  0  0.097902  0.11776  0  1.035056  0
H  H13  1  0.05680720  0.93909528  0.88160091  1  0.117179  0  0.097903  0.11776  0  1.035076  0
H  H14  1  0.94319420  0.43909528  0.61839882  1  0.11718  0  0.097914  0.11779  0  1.035057  0
H  H15  1  0.55680608  0.56090293  0.11839820  1  0.117175  0  0.097912  0.117769  0  1.035068  0
H  H16  1  0.41525732  0.89957336  0.35776492  1  0.08779  0  0.109943  0.117847  0  0.998024  0
H  H17  1  0.08474188  0.10042820  0.85776662  1  0.087762  0  0.109922  0.117864  0  0.998006  0
H  H18  1  0.91525755  0.60042668  0.64223331  1  0.087768  0  0.109931  0.117887  0  0.998007  0
H  H19  1  0.58474283  0.39957293  0.14223355  1  0.087774  0  0.109937  0.11786  0  0.998015  0
H  H20  1  0.11968902  0.03800184  0.47002451  1  0.088079  0  0.108059  0.114946  0  1.030173  0
H  H21  1  0.38031224  0.96199683  0.97002462  1  0.088097  0  0.108063  0.114933  0  1.030141  0
H  H22  1  0.61968908  0.46199708  0.52997510  1  0.088108  0  0.108055  0.114916  0  1.030203  0
H  H23  1  0.88031081  0.53800260  0.02997553  1  0.088113  0  0.108051  0.114899  0  1.030234  0
H  H24  1  0.19207322  0.36272896  0.82765880  1  0.105592  0  0.109856  0.069175  0  1.029544  0
H  H25  1  0.30792743  0.63726979  0.32765961  1  0.105594  0  0.109861  0.06918  0  1.029532  0
H  H26  1  0.69207364  0.13726975  0.17234037  1  0.105587  0  0.109848  0.069124  0  1.029551  0
H  H27  1  0.80792372  0.86273194  0.67235380  1  0.105731  0  0.109869  0.069129  0  1.029537  0
H  H28  1  0.18158204  0.32483739  0.44631952  1  0.110894  0  0.104683  0.076332  0  1.039872  0
H  H29  1  0.31841912  0.67516200  0.94631960  1  0.110885  0  0.104692  0.076334  0  1.039896  0
H  H30  1  0.68158004  0.17516347  0.55367827  1  0.110834  0  0.104688  0.076329  0  1.03985  0
H  H31  1  0.81841838  0.82483760  0.05368102  1  0.110888  0  0.104681  0.076348  0  1.039893  0
H  H32  1  0.46640546  0.18811419  0.49247874  1  0.121665  0  0.106486  0.079908  0  1.041388  0
H  H33  1  0.03359511  0.81188516  0.99247850  1  0.121672  0  0.106491  0.079932  0  1.041359  0
H  H34  1  0.96640672  0.31188517  0.50752064  1  0.121645  0  0.10649  0.079923  0  1.041343  0
H  H35  1  0.53359385  0.68811382  0.00752121  1  0.121654  0  0.106489  0.079936  0  1.041417  0
H  H36  1  0.38033945  0.45957631  0.05067437  1  0.112144  0  0.098982  0.094875  0  1.030824  0
H  H37  1  0.11966235  0.54042263  0.55067389  1  0.112166  0  0.09895  0.09481  0  1.030805  0
H  H38  1  0.88033886  0.04042259  0.94932541  1  0.112136  0  0.098944  0.094772  0  1.030848  0
H  H39  1  0.61966836  0.95957822  0.44933217  1  0.112229  0  0.098964  0.094814  0  1.030785  0
H  H40  1  0.37172179  0.77043098  0.25047312  1  0.127588  0  0.105279  0.07898  0  1.043444  0
H  H41  1  0.12827773  0.22956994  0.75047286  1  0.127569  0  0.105278  0.078972  0  1.043448  0
H  H42  1  0.87172282  0.72956917  0.74952565  1  0.127606  0  0.105276  0.078972  0  1.043421  0
H  H43  1  0.62827881  0.27043036  0.24952610  1  0.127584  0  0.105275  0.078991  0  1.043464  0
H  H44  1  0.15571812  0.17076485  0.57611967  1  0.090647  0  0.112541  0.074277  0  1.027874  0
H  H45  1  0.34428300  0.82923477  0.07612048  1  0.090624  0  0.112538  0.074265  0  1.027905  0
H  H46  1  0.65571818  0.32923467  0.42387938  1  0.090635  0  0.112522  0.074247  0  1.027883  0
H  H47  1  0.84428185  0.67076405  0.92388022  1  0.090653  0  0.11255  0.074285  0  1.027882  0
H  H48  1  0.53891589  0.44866257  0.94811192  1  0.085452  0  0.101335  0.104549  0  1.013209  0
H  H49  1  0.96108424  0.55133824  0.44811124  1  0.084968  0  0.101343  0.104567  0  1.013209  0
H  H50  1  0.03891712  0.05133727  0.05188812  1  0.085435  0  0.101337  0.104547  0  1.013252  0
H  H51  1  0.46108469  0.94866377  0.55188511  1  0.085597  0  0.10133  0.104472  0  1.013257  0
H  H52  1  0.17741251  0.36402912  0.28257792  1  0.137715  0  0.100604  0.121533  0  1.010714  0
H  H53  1  0.32258793  0.63596966  0.78257804  1  0.137724  0  0.10061  0.121534  0  1.010714  0
H  H54  1  0.67741137  0.13597104  0.71742120  1  0.137709  0  0.10063  0.121562  0  1.010733  0
H  H55  1  0.82258855  0.86402992  0.21742260  1  0.137699  0  0.100613  0.121561  0  1.010717  0
H  H56  1  0.49725260  0.46413649  0.30899926  1  0.057099  0  0.102722  0.106325  0  1.003004  0
H  H57  1  0.00274717  0.53586228  0.80899909  1  0.057069  0  0.102734  0.106348  0  1.003025  0
H  H58  1  0.99725248  0.03586349  0.69100021  1  0.057111  0  0.102755  0.106389  0  1.003006  0
H  H59  1  0.50274732  0.96413749  0.19100119  1  0.057064  0  0.102745  0.106369  0  1.003022  0
H  H60  1  0.20495929  0.41262980  0.99002963  1  0.130005  0  0.09744  0.119455  0  1.031288  0
H  H61  1  0.29504206  0.58736955  0.49003043  1  0.129969  0  0.097469  0.119504  0  1.031345  0
H  H62  1  0.70495918  0.08736958  0.00996958  1  0.129998  0  0.097455  0.119496  0  1.031337  0
H  H63  1  0.79504614  0.91263503  0.50998159  1  0.129911  0  0.097458  0.119472  0  1.031372  0
H  H64  1  0.51253181  0.39440602  0.78902790  1  0.096696  0  0.108826  0.074974  0  1.033678  0
H  H65  1  0.98746842  0.60559349  0.28902727  1  0.096695  0  0.108824  0.074967  0  1.033656  0
H  H66  1  0.01253354  0.10559319  0.21097273  1  0.096677  0  0.108815  0.074962  0  1.033656  0
H  H67  1  0.48746109  0.89441057  0.71097187  1  0.096553  0  0.10885  0.075001  0  1.033699  0
H  H68  1  0.48658555  0.42275214  0.47301215  1  0.088066  0  0.107682  0.064384  0  1.059237  0
H  H69  1  0.01341572  0.57724723  0.97301132  1  0.088088  0  0.107676  0.064379  0  1.059232  0
H  H70  1  0.98658379  0.07724787  0.52698796  1  0.088094  0  0.10768  0.064389  0  1.059262  0
H  H71  1  0.51341452  0.92275251  0.02698833  1  0.088079  0  0.107673  0.064366  0  1.059249  0
H  H72  1  0.06370719  0.86161112  0.22484139  1  0.141479  0  0.112635  0.08482  0  1.024813  0
H  H73  1  0.43629065  0.13838630  0.72484015  1  0.141514  0  0.112624  0.084842  0  1.02484  0
H  H74  1  0.56370944  0.63838637  0.77515977  1  0.141514  0  0.112605  0.084824  0  1.024841  0
H  H75  1  0.93629231  0.36161175  0.27516048  1  0.141578  0  0.112616  0.084793  0  1.024865  0
C  C76  1  0.25799453  0.96011548  0.35233496  1  -0.012102  0  0.01308  0.110036  0  3.972993  0
C  C77  1  0.24200386  0.03988537  0.85233586  1  -0.012089  0  0.013064  0.110063  0  3.972954  0
C  C78  1  0.75799499  0.53988428  0.64766479  1  -0.012148  0  0.013139  0.110159  0  3.972877  0
C  C79  1  0.74200541  0.46011391  0.14766482  1  -0.011948  0  0.013062  0.110024  0  3.973004  0
C  C80  1  0.27821695  0.03685221  0.41692860  1  -0.008752  0  0.012333  0.10589  0  3.976435  0
C  C81  1  0.22178329  0.96314719  0.91692955  1  -0.008774  0  0.012375  0.105859  0  3.976351  0
C  C82  1  0.77821723  0.46314697  0.58307017  1  -0.008539  0  0.012365  0.105852  0  3.976441  0
C  C83  1  0.72178367  0.53685197  0.08307076  1  -0.008914  0  0.012366  0.105945  0  3.976395  0
C  C84  1  0.15830359  0.94837304  0.31308180  1  -0.032166  0  -0.077721  -0.157261  0  3.886019  0
C  C85  1  0.34169463  0.05162713  0.81308166  1  -0.03215  0  -0.077706  -0.157266  0  3.886031  0
C  C86  1  0.65830575  0.55162629  0.68691830  1  -0.032165  0  -0.077625  -0.157174  0  3.885886  0
C  C87  1  0.84169561  0.44837188  0.18691799  1  -0.032165  0  -0.077708  -0.157257  0  3.885979  0
C  C88  1  0.33753162  0.41660712  0.28249785  1  0.002909  0  -0.064955  -0.022447  0  3.957511  0
C  C89  1  0.16246883  0.58339237  0.78249816  1  0.00291  0  -0.064942  -0.022482  0  3.957682  0
C  C90  1  0.83753144  0.08339401  0.71750179  1  0.002921  0  -0.064951  -0.022464  0  3.95761  0
C  C91  1  0.66246769  0.91660696  0.21750264  1  0.002943  0  -0.064981  -0.022435  0  3.957497  0
C  C92  1  0.37687218  0.08027074  0.42436630  1  -0.049348  0  -0.083045  -0.16797  0  3.917397  0
C  C93  1  0.12312810  0.91972936  0.92436628  1  -0.049334  0  -0.083053  -0.167967  0  3.917399  0
C  C94  1  0.87687258  0.41972887  0.57563279  1  -0.049648  0  -0.083094  -0.168063  0  3.91761  0
C  C95  1  0.62312672  0.58027008  0.07563169  1  -0.049336  0  -0.083084  -0.168023  0  3.917538  0
C  C96  1  0.33648900  0.89522619  0.32886497  1  -0.023037  0  -0.083698  -0.174688  0  3.94434  0
C  C97  1  0.16351086  0.10477538  0.82886558  1  -0.023034  0  -0.083716  -0.174756  0  3.944356  0
C  C98  1  0.83648934  0.60477406  0.67113503  1  -0.023038  0  -0.083715  -0.174786  0  3.944445  0
C  C99  1  0.66351116  0.39522553  0.17113485  1  -0.023017  0  -0.083716  -0.174732  0  3.944405  0
C  C100  1  0.19768684  0.06944075  0.47344374  1  -0.008455  0  -0.079023  -0.156705  0  3.922673  0
C  C101  1  0.30231365  0.93055721  0.97344429  1  -0.008433  0  -0.078986  -0.156557  0  3.922561  0
C  C102  1  0.69768699  0.43055795  0.52655545  1  -0.008303  0  -0.079041  -0.156676  0  3.92269  0
C  C103  1  0.80231210  0.56944173  0.02655628  1  -0.008423  0  -0.079003  -0.156669  0  3.922746  0
C  C104  1  0.26782368  0.38049151  0.85777088  1  0.371816  0  0.045073  0.102597  0  3.965693  0
C  C105  1  0.23217631  0.61950723  0.35777078  1  0.371845  0  0.045089  0.102638  0  3.965637  0
C  C106  1  0.76782482  0.11950770  0.14222853  1  0.371872  0  0.045107  0.102673  0  3.965659  0
C  C107  1  0.73217320  0.88049683  0.64223969  1  0.3713  0  0.045001  0.102684  0  3.965957  0
C  C108  1  0.25030987  0.35555178  0.41359641  1  0.430303  0  0.047674  0.110303  0  3.940114  0
C  C109  1  0.24969115  0.64444693  0.91359629  1  0.430284  0  0.047628  0.110257  0  3.940181  0
C  C110  1  0.75030813  0.14444889  0.58640227  1  0.430298  0  0.04765  0.110268  0  3.940106  0
C  C111  1  0.74969201  0.85555145  0.08640479  1  0.430234  0  0.047611  0.110176  0  3.940246  0
C  C112  1  0.39046622  0.15310108  0.48583275  1  0.449316  0  0.048425  0.115115  0  3.950364  0
C  C113  1  0.10953511  0.84689828  0.98583341  1  0.449349  0  0.048422  0.115117  0  3.950308  0
C  C114  1  0.89046660  0.34689850  0.51416638  1  0.449323  0  0.048417  0.11516  0  3.950371  0
C  C115  1  0.60953243  0.65310049  0.01416655  1  0.449282  0  0.048469  0.115174  0  3.95034  0
C  C116  1  0.37324035  0.43374978  0.98165354  1  -0.048239  0  -0.066787  -0.023211  0  3.957148  0
C  C117  1  0.12676017  0.56625029  0.48165313  1  -0.048267  0  -0.066782  -0.023128  0  3.957095  0
C  C118  1  0.87324114  0.06624985  0.01834689  1  -0.048235  0  -0.066803  -0.023133  0  3.957094  0
C  C119  1  0.62676342  0.93375476  0.51835295  1  -0.047789  0  -0.06682  -0.0232  0  3.956918  0
C  C120  1  0.31245413  0.82209902  0.27014878  1  0.411888  0  0.041451  0.0913  0  3.994085  0
C  C121  1  0.18754469  0.17790119  0.77014875  1  0.411855  0  0.041447  0.091292  0  3.994128  0
C  C122  1  0.81245446  0.67789989  0.72985047  1  0.411847  0  0.041418  0.091278  0  3.994229  0
C  C123  1  0.68754551  0.32209825  0.22985176  1  0.411874  0  0.041441  0.091249  0  3.994163  0
C  C124  1  0.21774542  0.14274309  0.53288141  1  0.484328  0  0.04751  0.107981  0  3.96799  0
C  C125  1  0.28225552  0.85725656  0.03288133  1  0.484283  0  0.047464  0.107897  0  3.968094  0
C  C126  1  0.71774556  0.35725696  0.46711784  1  0.484311  0  0.047522  0.108006  0  3.96799  0
C  C127  1  0.78225386  0.64274313  0.96711783  1  0.484317  0  0.047486  0.107981  0  3.968052  0
C  C128  1  0.46059379  0.42896837  0.92476787  1  -0.037348  0  -0.088021  -0.129404  0  3.968143  0
C  C129  1  0.03940649  0.57103174  0.42476786  1  -0.036891  0  -0.088014  -0.129456  0  3.968177  0
C  C130  1  0.96059481  0.07103242  0.07523216  1  -0.03739  0  -0.088001  -0.129411  0  3.968152  0
C  C131  1  0.53940764  0.92897145  0.57523592  1  -0.037995  0  -0.087946  -0.129254  0  3.967962  0
C  C132  1  0.24841395  0.37681762  0.32184858  1  -0.01868  0  -0.080941  -0.110845  0  3.925494  0
C  C133  1  0.25158589  0.62318184  0.82184915  1  -0.018688  0  -0.080914  -0.110763  0  3.925542  0
C  C134  1  0.74841267  0.12318375  0.67815010  1  -0.018664  0  -0.080939  -0.110823  0  3.925436  0
C  C135  1  0.75158707  0.87681653  0.17815058  1  -0.018678  0  -0.080909  -0.110811  0  3.92547  0
C  C136  1  0.42585789  0.43263144  0.33645129  1  -0.037815  0  -0.089175  -0.134298  0  3.977925  0
C  C137  1  0.07414201  0.56736802  0.83645065  1  -0.037751  0  -0.089193  -0.134383  0  3.978099  0
C  C138  1  0.92585754  0.06736945  0.66354796  1  -0.037797  0  -0.089201  -0.134421  0  3.978069  0
C  C139  1  0.57414136  0.93263155  0.16354986  1  -0.037782  0  -0.089215  -0.134448  0  3.978104  0
C  C140  1  0.27497063  0.40819591  0.94764784  1  -0.001789  0  -0.084912  -0.121851  0  3.944999  0
C  C141  1  0.22502975  0.59180347  0.44764909  1  -0.001797  0  -0.084978  -0.121986  0  3.945093  0
C  C142  1  0.77497068  0.09180328  0.05235092  1  -0.001793  0  -0.084945  -0.121934  0  3.94509  0
C  C143  1  0.72503166  0.90820060  0.55236203  1  -0.00155  0  -0.084921  -0.121949  0  3.945088  0
C  C144  1  0.44656603  0.39964324  0.83590260  1  0.473267  0  0.047786  0.107801  0  3.958005  0
C  C145  1  0.05343387  0.60035622  0.33590329  1  0.473285  0  0.047805  0.107874  0  3.95786  0
C  C146  1  0.94656654  0.10035618  0.16409672  1  0.473285  0  0.047807  0.107836  0  3.957956  0
C  C147  1  0.55342921  0.89964904  0.66410121  1  0.473367  0  0.047833  0.107898  0  3.957776  0
C  C148  1  0.42081476  0.40963020  0.42764838  1  0.474243  0  0.043191  0.097049  0  3.982973  0
C  C149  1  0.07918632  0.59036920  0.92764842  1  0.474214  0  0.043216  0.097133  0  3.982939  0
C  C150  1  0.92081393  0.09036999  0.57235085  1  0.474145  0  0.043198  0.097064  0  3.983034  0
C  C151  1  0.57918535  0.90963036  0.07235279  1  0.474221  0  0.043207  0.097095  0  3.982988  0
C  C152  1  0.14089143  0.87294771  0.25525719  1  0.464148  0  0.052529  0.116637  0  3.932692  0
C  C153  1  0.35910654  0.12705110  0.75525638  1  0.464152  0  0.052533  0.116593  0  3.932804  0
C  C154  1  0.64089358  0.62705168  0.74474422  1  0.4641  0  0.052462  0.116492  0  3.932789  0
C  C155  1  0.85910803  0.37294786  0.24474400  1  0.464049  0  0.052553  0.116667  0  3.932723  0
N  N156  1  0.33467715  0.37198550  0.46640857  1  -1.269858  0  -0.394315  -0.347351  0  3.558656  0
N  N157  1  0.16532410  0.62801387  0.96640886  1  -1.26986  0  -0.394333  -0.347412  0  3.558717  0
N  N158  1  0.83467523  0.12801493  0.53359039  1  -1.269824  0  -0.394358  -0.347369  0  3.558807  0
N  N159  1  0.66532310  0.87198474  0.03359195  1  -1.269797  0  -0.394285  -0.347284  0  3.558646  0
N  N160  1  0.31242592  0.18479343  0.53938232  1  -1.248841  0  -0.385769  -0.338568  0  3.549304  0
N  N161  1  0.18757584  0.81520622  0.03938264  1  -1.24885  0  -0.385792  -0.33861  0  3.549329  0
N  N162  1  0.81242539  0.31520636  0.46061723  1  -1.248853  0  -0.385756  -0.338581  0  3.549305  0
N  N163  1  0.68757400  0.68479304  0.96061689  1  -1.24884  0  -0.385813  -0.338668  0  3.549279  0
N  N164  1  0.35164306  0.37602032  0.80219184  1  -1.252418  0  -0.394499  -0.341938  0  3.552278  0
N  N165  1  0.14835747  0.62397915  0.30219147  1  -1.252411  0  -0.394511  -0.341977  0  3.552176  0
N  N166  1  0.85164364  0.12397865  0.19780784  1  -1.252403  0  -0.394501  -0.341925  0  3.552203  0
N  N167  1  0.64834990  0.87602513  0.69781400  1  -1.252163  0  -0.39456  -0.342077  0  3.552357  0
N  N168  1  0.21601160  0.80960881  0.23419663  1  -1.253454  0  -0.37886  -0.333747  0  3.541054  0
N  N169  1  0.28398628  0.19039001  0.73419555  1  -1.253448  0  -0.378852  -0.333705  0  3.541099  0
N  N170  1  0.71601362  0.69039037  0.76580366  1  -1.253381  0  -0.378824  -0.333647  0  3.541125  0
N  N171  1  0.78398808  0.30960916  0.26580459  1  -1.253475  0  -0.378862  -0.333707  0  3.541058  0
Cl  Cl172  1  0.13070805  0.36309912  0.63889941  1  -0.724912  0  -0.356738  -0.607059  0  1.045412  0
Cl  Cl173  1  0.36929177  0.63690046  0.13890041  1  -0.724908  0  -0.356728  -0.607049  0  1.045404  0
Cl  Cl174  1  0.63070929  0.13690047  0.36110024  1  -0.724913  0  -0.356733  -0.607037  0  1.045389  0
Cl  Cl175  1  0.86929046  0.86309829  0.86110172  1  -0.724899  0  -0.356734  -0.607061  0  1.045413  0
Cl  Cl176  1  0.53160267  0.28180365  0.64028432  1  -0.717976  0  -0.361283  -0.598478  0  1.054848  0
Cl  Cl177  1  0.96839691  0.71819595  0.14028289  1  -0.71797  0  -0.361282  -0.598475  0  1.054815  0
Cl  Cl178  1  0.03160308  0.21819551  0.35971569  1  -0.717984  0  -0.361291  -0.598493  0  1.054843  0
Cl  Cl179  1  0.46839613  0.78180252  0.85971753  1  -0.717967  0  -0.361293  -0.59851  0  1.054857  0
Cl  Cl180  1  0.38876301  0.51340787  0.63158438  1  -0.727415  0  -0.386513  -0.631974  0  1.019137  0
Cl  Cl181  1  0.11123757  0.48659172  0.13158330  1  -0.727428  0  -0.386525  -0.631983  0  1.019127  0
Cl  Cl182  1  0.88876228  0.98659083  0.36841916  1  -0.727443  0  -0.386528  -0.63198  0  1.019125  0
Cl  Cl183  1  0.61123514  0.01340933  0.86842169  1  -0.72745  0  -0.386515  -0.631978  0  1.01914  0
