# generated using pymatgen
data_ZnH12C16S(NO2)2
_symmetry_space_group_name_H-M   'P 1'
_cell_length_a   8.57639146
_cell_length_b   13.41537460
_cell_length_c   15.10309759
_cell_angle_alpha   91.50646408
_cell_angle_beta   90.00003189
_cell_angle_gamma   90.00008213
_symmetry_Int_Tables_number   1
_chemical_formula_structural   ZnH12C16S(NO2)2
_chemical_formula_sum   'Zn4 H48 C64 S4 N8 O16'
_cell_volume   1737.09390043
_cell_formula_units_Z   4
loop_
 _symmetry_equiv_pos_site_id
 _symmetry_equiv_pos_as_xyz
  1  'x, y, z'
loop_
 _atom_site_type_symbol
 _atom_site_label
 _atom_site_symmetry_multiplicity
 _atom_site_fract_x
 _atom_site_fract_y
 _atom_site_fract_z
 _atom_site_occupancy
 _atom_site_hle17_bader_spin_density
 _atom_site_hle17_ddec_charge
 _atom_site_hle17_ddec_spin_density
 _atom_site_hle17_ddec_sum_bond_order
 _atom_site_hle17_magmom
 _atom_site_hse06_10hf_bader_spin_density
 _atom_site_hse06_10hf_ddec_charge
 _atom_site_hse06_10hf_ddec_spin_density
 _atom_site_hse06_10hf_ddec_sum_bond_order
 _atom_site_hse06_10hf_magmom
 _atom_site_hse06_bader_spin_density
 _atom_site_hse06_ddec_charge
 _atom_site_hse06_ddec_spin_density
 _atom_site_hse06_ddec_sum_bond_order
 _atom_site_hse06_magmom
 _atom_site_pbe_bader_spin_density
 _atom_site_pbe_cm5_charge
 _atom_site_pbe_ddec_charge
 _atom_site_pbe_ddec_spin_density
 _atom_site_pbe_ddec_sum_bond_order
 _atom_site_pbe_magmom
Zn  Zn0  1  0.77315449  0.24999950  0.74999976  1  0  0.959934  0  1.897011  0  0  0.771425  0  2.361473  0  0  0.821412  0  2.308117  0  0  0.67508  0.736676  0  2.397876  0
Zn  Zn1  1  0.22684462  0.74999998  0.24999991  1  0  0.959938  0  1.896997  0  0  0.771433  0  2.361456  0  0  0.82142  0  2.308101  0  0  0.675078  0.736684  0  2.397861  0
Zn  Zn2  1  0.78921075  0.75000019  0.75000011  1  0  0.959219  0  1.836123  0  0  0.772004  0  2.286489  0  0  0.824193  0  2.233919  0  0  0.666442  0.735694  0  2.322279  0
Zn  Zn3  1  0.21078952  0.25000004  0.24999959  1  0  0.959244  0  1.836105  0  0  0.772024  0  2.286472  0  0  0.824214  0  2.233901  0  0  0.666448  0.735713  0  2.322262  0
H  H4  1  0.60008633  0.29764184  0.57693280  1  0  0.078287  0  0.940911  0  0  0.08819  0  1.003016  0  0  0.089619  0  1.002603  0  0  0.115977  0.087081  0  1.003374  0
H  H5  1  0.60008756  0.20235849  0.92306736  1  0  0.078296  0  0.940886  0  0  0.088199  0  1.002997  0  0  0.089628  0  1.002585  0  0  0.115967  0.087091  0  1.003349  0
H  H6  1  0.39991278  0.70235913  0.42306757  1  0  0.078275  0  0.940881  0  0  0.088176  0  1.003002  0  0  0.089604  0  1.002589  0  0  0.115975  0.087074  0  1.003349  0
H  H7  1  0.39991271  0.79764173  0.07693299  1  0  0.078285  0  0.940896  0  0  0.088192  0  1.003001  0  0  0.08962  0  1.002588  0  0  0.115974  0.087082  0  1.003355  0
H  H8  1  0.90346652  0.97368077  0.75764754  1  0  0.091263  0  0.953829  0  0  0.097487  0  1.020816  0  0  0.099749  0  1.019215  0  0  0.116806  0.095718  0  1.022108  0
H  H9  1  0.90346601  0.52631896  0.74235270  1  0  0.091264  0  0.953848  0  0  0.097487  0  1.020835  0  0  0.09975  0  1.019232  0  0  0.116806  0.095721  0  1.022128  0
H  H10  1  0.09653375  0.02631871  0.24235214  1  0  0.091256  0  0.953845  0  0  0.09748  0  1.020833  0  0  0.099742  0  1.019232  0  0  0.116797  0.09571  0  1.022124  0
H  H11  1  0.09653310  0.47368126  0.25764766  1  0  0.091271  0  0.953828  0  0  0.097495  0  1.020816  0  0  0.099757  0  1.019215  0  0  0.116815  0.095729  0  1.022109  0
H  H12  1  0.17532198  0.81610732  0.50353150  1  0  0.115718  0  0.962454  0  0  0.123069  0  1.026885  0  0  0.125534  0  1.02723  0  0  0.107225  0.121288  0  1.026805  0
H  H13  1  0.17532441  0.68389397  0.99646920  1  0  0.115676  0  0.962487  0  0  0.123028  0  1.026916  0  0  0.125494  0  1.027261  0  0  0.107193  0.121245  0  1.026836  0
H  H14  1  0.82467713  0.18389365  0.49646887  1  0  0.115697  0  0.962468  0  0  0.12305  0  1.026897  0  0  0.125515  0  1.027242  0  0  0.107203  0.121268  0  1.026818  0
H  H15  1  0.82467587  0.31610625  0.00353115  1  0  0.115689  0  0.962459  0  0  0.123038  0  1.026899  0  0  0.125503  0  1.027245  0  0  0.107209  0.121255  0  1.026817  0
H  H16  1  0.39006197  0.21814505  0.48371935  1  0  0.130696  0  0.947266  0  0  0.138669  0  1.007182  0  0  0.142374  0  1.005889  0  0  0.110766  0.135945  0  1.008341  0
H  H17  1  0.39006414  0.28185519  0.01628120  1  0  0.130698  0  0.947243  0  0  0.138675  0  1.007151  0  0  0.142379  0  1.005858  0  0  0.110781  0.135951  0  1.008308  0
H  H18  1  0.60993831  0.78185442  0.51627966  1  0  0.130727  0  0.947224  0  0  0.1387  0  1.007138  0  0  0.142404  0  1.005844  0  0  0.110773  0.135977  0  1.008298  0
H  H19  1  0.60993613  0.71814429  0.98371980  1  0  0.130692  0  0.947289  0  0  0.13866  0  1.007199  0  0  0.142364  0  1.005905  0  0  0.110775  0.135934  0  1.008357  0
H  H20  1  0.40557758  0.96906369  0.66256696  1  0  0.125041  0  0.953057  0  0  0.133689  0  1.012161  0  0  0.137571  0  1.010451  0  0  0.108973  0.130887  0  1.01356  0
H  H21  1  0.40557951  0.53093632  0.83743313  1  0  0.124983  0  0.953111  0  0  0.133674  0  1.01217  0  0  0.137555  0  1.010461  0  0  0.108954  0.130872  0  1.013569  0
H  H22  1  0.59442269  0.03093578  0.33743272  1  0  0.125038  0  0.953066  0  0  0.133688  0  1.012168  0  0  0.13757  0  1.010457  0  0  0.108952  0.130885  0  1.013566  0
H  H23  1  0.59442193  0.46906390  0.16256657  1  0  0.125068  0  0.953031  0  0  0.13373  0  1.012126  0  0  0.137609  0  1.010414  0  0  0.108983  0.130926  0  1.013524  0
H  H24  1  0.06519800  0.08048455  0.66208579  1  0  0.145972  0  0.950144  0  0  0.154885  0  1.008412  0  0  0.158696  0  1.006405  0  0  0.115289  0.152142  0  1.009975  0
H  H25  1  0.06519846  0.41951454  0.83791417  1  0  0.145983  0  0.950132  0  0  0.154895  0  1.008401  0  0  0.158706  0  1.006394  0  0  0.115293  0.152152  0  1.009965  0
H  H26  1  0.93480228  0.91951418  0.33791453  1  0  0.145978  0  0.950147  0  0  0.154887  0  1.008418  0  0  0.158698  0  1.006411  0  0  0.115294  0.152143  0  1.009982  0
H  H27  1  0.93480181  0.58048569  0.16208552  1  0  0.145981  0  0.950143  0  0  0.154896  0  1.008409  0  0  0.158708  0  1.006402  0  0  0.115301  0.152154  0  1.009974  0
H  H28  1  0.87232810  0.50589486  0.57394670  1  0  0.095052  0  0.961249  0  0  0.103122  0  1.028948  0  0  0.105943  0  1.027473  0  0  0.10205  0.101033  0  1.030114  0
H  H29  1  0.87232882  0.99410485  0.92605353  1  0  0.095041  0  0.961258  0  0  0.10312  0  1.028936  0  0  0.105942  0  1.027459  0  0  0.102051  0.101031  0  1.030103  0
H  H30  1  0.12767217  0.49410462  0.42605430  1  0  0.095055  0  0.961229  0  0  0.103121  0  1.028922  0  0  0.105946  0  1.027441  0  0  0.102047  0.101032  0  1.030089  0
H  H31  1  0.12767145  0.00589538  0.07394616  1  0  0.095051  0  0.961248  0  0  0.10313  0  1.028926  0  0  0.105952  0  1.02745  0  0  0.102056  0.10104  0  1.030093  0
H  H32  1  0.11771449  0.34572121  0.52287267  1  0  0.120163  0  0.956524  0  0  0.126436  0  1.023189  0  0  0.131093  0  1.020373  0  0  0.103463  0.123087  0  1.025393  0
H  H33  1  0.11771566  0.15427793  0.97712731  1  0  0.120167  0  0.956509  0  0  0.12644  0  1.023178  0  0  0.131097  0  1.020362  0  0  0.103467  0.123091  0  1.02538  0
H  H34  1  0.88228579  0.65427752  0.47712699  1  0  0.120192  0  0.956521  0  0  0.126465  0  1.023181  0  0  0.131122  0  1.020365  0  0  0.103477  0.123121  0  1.025381  0
H  H35  1  0.88228461  0.84572230  0.02287304  1  0  0.120194  0  0.956508  0  0  0.126469  0  1.023169  0  0  0.131125  0  1.020353  0  0  0.10348  0.123123  0  1.025369  0
H  H36  1  0.64567337  0.56980627  0.49517252  1  0  0.091293  0  0.948597  0  0  0.103284  0  1.00942  0  0  0.105587  0  1.008436  0  0  0.106587  0.101575  0  1.010274  0
H  H37  1  0.64567353  0.93019333  0.00482809  1  0  0.091299  0  0.948562  0  0  0.103295  0  1.00938  0  0  0.105597  0  1.008399  0  0  0.106592  0.101592  0  1.010226  0
H  H38  1  0.35432691  0.43019321  0.50482715  1  0  0.091293  0  0.948579  0  0  0.103287  0  1.009402  0  0  0.105588  0  1.00842  0  0  0.106589  0.101585  0  1.010245  0
H  H39  1  0.35432674  0.06980540  0.99517157  1  0  0.091289  0  0.948555  0  0  0.103279  0  1.009379  0  0  0.105582  0  1.008396  0  0  0.106575  0.101574  0  1.010226  0
H  H40  1  0.41485254  0.52457288  0.64559638  1  0  0.115125  0  0.935803  0  0  0.126813  0  0.990014  0  0  0.13059  0  0.989127  0  0  0.106884  0.1242  0  0.990695  0
H  H41  1  0.41485314  0.97542640  0.85440501  1  0  0.11513  0  0.935836  0  0  0.126825  0  0.990039  0  0  0.130603  0  0.989152  0  0  0.106916  0.124213  0  0.990722  0
H  H42  1  0.58514774  0.47542660  0.35440396  1  0  0.115144  0  0.935816  0  0  0.126833  0  0.990021  0  0  0.13061  0  0.989135  0  0  0.106901  0.124221  0  0.990704  0
H  H43  1  0.58514713  0.02457308  0.14559532  1  0  0.115133  0  0.935857  0  0  0.126825  0  0.990066  0  0  0.130602  0  0.98918  0  0  0.106904  0.124211  0  0.990749  0
H  H44  1  0.61166444  0.05879061  0.74528372  1  0  0.088069  0  0.956795  0  0  0.095121  0  1.023968  0  0  0.097261  0  1.021899  0  0  0.117136  0.093493  0  1.025537  0
H  H45  1  0.61166371  0.44120824  0.75471641  1  0  0.088106  0  0.95678  0  0  0.095152  0  1.023953  0  0  0.097292  0  1.021885  0  0  0.11715  0.093527  0  1.025524  0
H  H46  1  0.38833583  0.94120961  0.25471729  1  0  0.088084  0  0.95677  0  0  0.095138  0  1.023947  0  0  0.097278  0  1.021879  0  0  0.11715  0.093509  0  1.025516  0
H  H47  1  0.38833540  0.55879050  0.24528325  1  0  0.088088  0  0.956786  0  0  0.09514  0  1.023958  0  0  0.09728  0  1.021892  0  0  0.117154  0.093517  0  1.025528  0
H  H48  1  0.00851168  0.71923712  0.60626010  1  0  0.082622  0  0.941694  0  0  0.092814  0  1.002582  0  0  0.094416  0  1.001578  0  0  0.118811  0.091621  0  1.003332  0
H  H49  1  0.00851189  0.78076327  0.89373920  1  0  0.082632  0  0.941702  0  0  0.092814  0  1.002606  0  0  0.094416  0  1.001601  0  0  0.118814  0.091619  0  1.003356  0
H  H50  1  0.99148977  0.28076310  0.39373893  1  0  0.08263  0  0.941662  0  0  0.092798  0  1.002578  0  0  0.094399  0  1.001574  0  0  0.118798  0.091605  0  1.003328  0
H  H51  1  0.99148956  0.21923620  0.10626047  1  0  0.082635  0  0.94165  0  0  0.092816  0  1.002556  0  0  0.094418  0  1.001551  0  0  0.118806  0.09162  0  1.003304  0
C  C52  1  0.55279947  0.22460021  0.59270305  1  0  0.128406  0  3.717094  0  0  0.097822  0  3.968332  0  0  0.105401  0  3.986906  0  0  0.044134  0.092943  0  3.955672  0
C  C53  1  0.55279968  0.27540007  0.90729644  1  0  0.128405  0  3.717122  0  0  0.097814  0  3.968361  0  0  0.105392  0  3.986937  0  0  0.044163  0.092934  0  3.955697  0
C  C54  1  0.44719964  0.77540076  0.40729798  1  0  0.128475  0  3.716968  0  0  0.09789  0  3.968213  0  0  0.105471  0  3.986788  0  0  0.044157  0.093008  0  3.955558  0
C  C55  1  0.44719943  0.72460015  0.09270326  1  0  0.128415  0  3.71709  0  0  0.097819  0  3.968326  0  0  0.105398  0  3.9869  0  0  0.044147  0.092939  0  3.955661  0
C  C56  1  0.96788865  0.94049352  0.70196607  1  0  0.135995  0  3.679642  0  0  0.105273  0  3.932108  0  0  0.111908  0  3.950842  0  0  0.048653  0.101001  0  3.919485  0
C  C57  1  0.96788827  0.55950627  0.79803418  1  0  0.135973  0  3.679666  0  0  0.105257  0  3.932129  0  0  0.111891  0  3.950862  0  0  0.048649  0.10098  0  3.91951  0
C  C58  1  0.03211045  0.05950521  0.29803359  1  0  0.135946  0  3.67979  0  0  0.105228  0  3.932245  0  0  0.111862  0  3.950979  0  0  0.048619  0.100955  0  3.919618  0
C  C59  1  0.03210967  0.44049395  0.20196617  1  0  0.135979  0  3.679702  0  0  0.105256  0  3.932166  0  0  0.111889  0  3.9509  0  0  0.048626  0.100979  0  3.919551  0
C  C60  1  0.13650632  0.95549867  0.57620647  1  0  0.07649  0  3.775961  0  0  0.093302  0  4.030862  0  0  0.098681  0  4.051331  0  0  0.010642  0.089676  0  4.016984  0
C  C61  1  0.13650603  0.54450408  0.92379294  1  0  0.076419  0  3.776117  0  0  0.09325  0  4.030993  0  0  0.098628  0  4.051466  0  0  0.010618  0.089626  0  4.017113  0
C  C62  1  0.86349512  0.04450454  0.42379330  1  0  0.076482  0  3.776108  0  0  0.093318  0  4.030965  0  0  0.098696  0  4.051438  0  0  0.010632  0.089693  0  4.017087  0
C  C63  1  0.86349425  0.45549614  0.07620676  1  0  0.076429  0  3.776124  0  0  0.093277  0  4.030971  0  0  0.098655  0  4.051444  0  0  0.010635  0.089652  0  4.017091  0
C  C64  1  0.11959698  0.85299787  0.56015790  1  0  -0.151779  0  3.723932  0  0  -0.17194  0  3.972758  0  0  -0.17858  0  3.993225  0  0  -0.082328  -0.167746  0  3.959194  0
C  C65  1  0.11959344  0.64700263  0.93984343  1  0  -0.151707  0  3.724095  0  0  -0.171875  0  3.972907  0  0  -0.178516  0  3.993375  0  0  -0.082271  -0.16768  0  3.959338  0
C  C66  1  0.88040795  0.14700236  0.43984378  1  0  -0.151754  0  3.724073  0  0  -0.171928  0  3.972888  0  0  -0.178568  0  3.993354  0  0  -0.082284  -0.167734  0  3.959324  0
C  C67  1  0.88040334  0.35299759  0.06015758  1  0  -0.151674  0  3.724059  0  0  -0.171849  0  3.972868  0  0  -0.178489  0  3.993335  0  0  -0.082287  -0.167653  0  3.959297  0
C  C68  1  0.61263281  0.62601666  0.66685923  1  0  0.650073  0  3.947926  0  0  0.610199  0  4.229959  0  0  0.644903  0  4.222728  0  0  0.184345  0.586773  0  4.233978  0
C  C69  1  0.61263317  0.87398280  0.83314091  1  0  0.650048  0  3.948027  0  0  0.610168  0  4.230063  0  0  0.644873  0  4.222833  0  0  0.184329  0.586745  0  4.23408  0
C  C70  1  0.38736746  0.37398356  0.33314046  1  0  0.65011  0  3.947916  0  0  0.610241  0  4.229936  0  0  0.644946  0  4.222706  0  0  0.184357  0.586816  0  4.233956  0
C  C71  1  0.38736710  0.12601668  0.16685943  1  0  0.65012  0  3.947876  0  0  0.61024  0  4.229914  0  0  0.644945  0  4.222683  0  0  0.184356  0.586815  0  4.233931  0
C  C72  1  0.43620840  0.18033745  0.54132120  1  0  -0.160603  0  3.687774  0  0  -0.176019  0  3.933165  0  0  -0.183769  0  3.952313  0  0  -0.08411  -0.171032  0  3.920452  0
C  C73  1  0.43620993  0.31966272  0.95867891  1  0  -0.160608  0  3.687799  0  0  -0.176032  0  3.933181  0  0  -0.183782  0  3.952329  0  0  -0.084138  -0.171045  0  3.920468  0
C  C74  1  0.56379304  0.81966202  0.45867782  1  0  -0.160678  0  3.687755  0  0  -0.176092  0  3.933145  0  0  -0.18384  0  3.952292  0  0  -0.084116  -0.171107  0  3.920438  0
C  C75  1  0.56378918  0.68033675  0.04132010  1  0  -0.160556  0  3.687855  0  0  -0.175955  0  3.933211  0  0  -0.183706  0  3.952358  0  0  -0.084095  -0.170966  0  3.920495  0
C  C76  1  0.37793672  0.08733603  0.56655373  1  0  0.096281  0  3.776677  0  0  0.108504  0  4.037197  0  0  0.116027  0  4.056608  0  0  0.015122  0.103431  0  4.023978  0
C  C77  1  0.37793843  0.41266335  0.93344635  1  0  0.096291  0  3.776711  0  0  0.108545  0  4.037196  0  0  0.116069  0  4.056606  0  0  0.015117  0.103468  0  4.023984  0
C  C78  1  0.62206473  0.91266345  0.43344529  1  0  0.096277  0  3.776726  0  0  0.108509  0  4.037224  0  0  0.116029  0  4.056641  0  0  0.015118  0.103437  0  4.024004  0
C  C79  1  0.62206301  0.58733688  0.06655335  1  0  0.096224  0  3.776829  0  0  0.108476  0  4.037303  0  0  0.116  0  4.056713  0  0  0.015075  0.1034  0  4.024086  0
C  C80  1  0.44074284  0.04269497  0.64145448  1  0  -0.168304  0  3.740382  0  0  -0.18829  0  3.991998  0  0  -0.196397  0  4.011951  0  0  -0.08829  -0.183086  0  3.978743  0
C  C81  1  0.44074457  0.45730446  0.85854561  1  0  -0.168302  0  3.740342  0  0  -0.188344  0  3.991966  0  0  -0.196451  0  4.011918  0  0  -0.088309  -0.18314  0  3.978717  0
C  C82  1  0.55925860  0.95730450  0.35854453  1  0  -0.168295  0  3.740356  0  0  -0.188274  0  3.991977  0  0  -0.19638  0  4.01193  0  0  -0.08824  -0.183068  0  3.978717  0
C  C83  1  0.55925687  0.54269427  0.14145405  1  0  -0.168372  0  3.740283  0  0  -0.188392  0  3.99192  0  0  -0.196494  0  4.011868  0  0  -0.088313  -0.183183  0  3.978668  0
C  C84  1  0.05982734  0.00020709  0.64905115  1  0  -0.154387  0  3.681529  0  0  -0.173347  0  3.927293  0  0  -0.180432  0  3.947104  0  0  -0.079712  -0.168815  0  3.914166  0
C  C85  1  0.05982800  0.49979349  0.85094886  1  0  -0.154384  0  3.681513  0  0  -0.173348  0  3.927266  0  0  -0.180432  0  3.947078  0  0  -0.079721  -0.168817  0  3.914142  0
C  C86  1  0.94017293  0.99979314  0.35094921  1  0  -0.154397  0  3.681622  0  0  -0.173355  0  3.927367  0  0  -0.18044  0  3.94718  0  0  -0.079712  -0.168825  0  3.914239  0
C  C87  1  0.94017227  0.50020673  0.14905084  1  0  -0.154389  0  3.681554  0  0  -0.173362  0  3.927309  0  0  -0.180447  0  3.947122  0  0  -0.079727  -0.168833  0  3.914188  0
C  C88  1  0.96879985  0.47263979  0.53620171  1  0  -0.022367  0  3.781643  0  0  -0.039877  0  4.029831  0  0  -0.037954  0  4.04944  0  0  -0.083358  -0.040976  0  4.016402  0
C  C89  1  0.96879956  0.02736014  0.96379856  1  0  -0.022346  0  3.781607  0  0  -0.039854  0  4.029797  0  0  -0.03793  0  4.049406  0  0  -0.083361  -0.040955  0  4.016369  0
C  C90  1  0.03120042  0.52735969  0.46379862  1  0  -0.022354  0  3.781622  0  0  -0.039854  0  4.029813  0  0  -0.037933  0  4.04942  0  0  -0.083358  -0.040951  0  4.016385  0
C  C91  1  0.03119954  0.97264009  0.03620113  1  0  -0.022347  0  3.781627  0  0  -0.039855  0  4.029817  0  0  -0.037932  0  4.049426  0  0  -0.083357  -0.040954  0  4.016387  0
C  C92  1  0.02253699  0.38215684  0.55929469  1  0  -0.227067  0  3.658762  0  0  -0.238872  0  3.905497  0  0  -0.249317  0  3.921469  0  0  -0.095511  -0.231997  0  3.894682  0
C  C93  1  0.02253804  0.11784295  0.94070462  1  0  -0.227069  0  3.658746  0  0  -0.238895  0  3.905471  0  0  -0.24934  0  3.921443  0  0  -0.09553  -0.232024  0  3.894657  0
C  C94  1  0.97746212  0.61784263  0.44070631  1  0  -0.227124  0  3.658775  0  0  -0.238922  0  3.905514  0  0  -0.249368  0  3.921487  0  0  -0.095532  -0.232051  0  3.894701  0
C  C95  1  0.97746223  0.88215727  0.05929441  1  0  -0.227095  0  3.65877  0  0  -0.238915  0  3.905495  0  0  -0.249359  0  3.921467  0  0  -0.095544  -0.232048  0  3.894682  0
C  C96  1  0.54535493  0.53468312  0.52634705  1  0  -0.019096  0  3.785439  0  0  -0.037488  0  4.038415  0  0  -0.035449  0  4.057795  0  0  -0.077547  -0.038688  0  4.02513  0
C  C97  1  0.54535563  0.96531628  0.97365439  1  0  -0.019203  0  3.785361  0  0  -0.037608  0  4.038356  0  0  -0.035569  0  4.057735  0  0  -0.077604  -0.038809  0  4.025061  0
C  C98  1  0.45464535  0.46531711  0.47365330  1  0  -0.019165  0  3.78539  0  0  -0.037556  0  4.038373  0  0  -0.035518  0  4.057753  0  0  -0.077576  -0.038758  0  4.025081  0
C  C99  1  0.45464464  0.03468245  0.02634593  1  0  -0.019142  0  3.785321  0  0  -0.037528  0  4.038297  0  0  -0.035491  0  4.057677  0  0  -0.077573  -0.038734  0  4.025007  0
C  C100  1  0.51405395  0.55810401  0.61211536  1  0  -0.213354  0  3.649878  0  0  -0.227217  0  3.898647  0  0  -0.236858  0  3.913999  0  0  -0.088851  -0.22094  0  3.888228  0
C  C101  1  0.51405335  0.94189461  0.88788407  1  0  -0.213259  0  3.649784  0  0  -0.227118  0  3.898538  0  0  -0.23676  0  3.91389  0  0  -0.088817  -0.220851  0  3.888126  0
C  C102  1  0.48594632  0.44189621  0.38788434  1  0  -0.213333  0  3.649834  0  0  -0.227192  0  3.898586  0  0  -0.236834  0  3.913938  0  0  -0.088821  -0.220918  0  3.888172  0
C  C103  1  0.48594692  0.05810412  0.11211559  1  0  -0.21329  0  3.649737  0  0  -0.227159  0  3.898498  0  0  -0.236801  0  3.913851  0  0  -0.088817  -0.220889  0  3.888082  0
C  C104  1  0.55732925  0.09226380  0.68812209  1  0  0.135048  0  3.71428  0  0  0.102489  0  3.968294  0  0  0.110665  0  3.985636  0  0  0.044645  0.097179  0  3.956526  0
C  C105  1  0.55732966  0.40773574  0.81187738  1  0  0.135066  0  3.71419  0  0  0.102513  0  3.968222  0  0  0.110691  0  3.985563  0  0  0.044665  0.097199  0  3.95646  0
C  C106  1  0.44266870  0.90773717  0.31187894  1  0  0.135029  0  3.714299  0  0  0.102443  0  3.968366  0  0  0.110621  0  3.985709  0  0  0.04461  0.097134  0  3.956596  0
C  C107  1  0.44266945  0.59226299  0.18812161  1  0  0.135088  0  3.7142  0  0  0.102525  0  3.968238  0  0  0.110701  0  3.98558  0  0  0.044653  0.09721  0  3.956479  0
C  C108  1  0.94933584  0.32426058  0.62997643  1  0  0.653954  0  3.952211  0  0  0.61491  0  4.230831  0  0  0.649258  0  4.22349  0  0  0.183359  0.591732  0  4.23491  0
C  C109  1  0.94933812  0.17573933  0.87002317  1  0  0.653866  0  3.952385  0  0  0.614874  0  4.230931  0  0  0.649224  0  4.223587  0  0  0.183333  0.591696  0  4.235012  0
C  C110  1  0.05066211  0.67573890  0.37002457  1  0  0.65401  0  3.952268  0  0  0.614945  0  4.230904  0  0  0.649296  0  4.223561  0  0  0.183364  0.591766  0  4.234984  0
C  C111  1  0.05066099  0.82426089  0.12997652  1  0  0.653822  0  3.95246  0  0  0.614823  0  4.231016  0  0  0.649173  0  4.223674  0  0  0.183305  0.591646  0  4.235096  0
C  C112  1  0.02604595  0.79911186  0.61683364  1  0  0.142739  0  3.693464  0  0  0.11238  0  3.942309  0  0  0.119499  0  3.96047  0  0  0.051228  0.107757  0  3.930021  0
C  C113  1  0.02604597  0.70088855  0.88316567  1  0  0.142767  0  3.693458  0  0  0.11242  0  3.9423  0  0  0.119539  0  3.960461  0  0  0.051242  0.107797  0  3.930009  0
C  C114  1  0.97395549  0.20088837  0.38316539  1  0  0.142727  0  3.693456  0  0  0.112395  0  3.94229  0  0  0.119513  0  3.96045  0  0  0.051243  0.107768  0  3.930002  0
C  C115  1  0.97395430  0.29911167  0.11683402  1  0  0.142701  0  3.693441  0  0  0.112348  0  3.942285  0  0  0.119467  0  3.960446  0  0  0.051222  0.107726  0  3.92999  0
S  S116  1  0.23939117  0.02729474  0.49879760  1  0  0.053866  0  2.438577  0  0  0.049397  0  2.758031  0  0  0.042887  0  2.764214  0  0  0.070353  0.054462  0  2.753647  0
S  S117  1  0.23939142  0.47270537  0.00120224  1  0  0.053844  0  2.438593  0  0  0.049359  0  2.758026  0  0  0.04285  0  2.76421  0  0  0.070337  0.054424  0  2.753642  0
S  S118  1  0.76060911  0.97270474  0.50120207  1  0  0.053858  0  2.438614  0  0  0.049378  0  2.758054  0  0  0.04287  0  2.76424  0  0  0.070343  0.054443  0  2.75367  0
S  S119  1  0.76060885  0.52729486  0.99879745  1  0  0.053856  0  2.438597  0  0  0.049368  0  2.758026  0  0  0.042858  0  2.76421  0  0  0.070341  0.054433  0  2.75364  0
N  N120  1  0.95017129  0.84170171  0.68605147  1  0  -0.330046  0  3.299883  0  0  -0.251245  0  3.572556  0  0  -0.270712  0  3.589329  0  0  -0.324729  -0.238146  0  3.56102  0
N  N121  1  0.95017232  0.65829807  0.81394878  1  0  -0.330016  0  3.299821  0  0  -0.251229  0  3.572502  0  0  -0.270696  0  3.589274  0  0  -0.324727  -0.238131  0  3.560968  0
N  N122  1  0.04982781  0.15829852  0.31394822  1  0  -0.329965  0  3.29994  0  0  -0.251172  0  3.5726  0  0  -0.270639  0  3.589374  0  0  -0.324708  -0.238072  0  3.561061  0
N  N123  1  0.04982796  0.34170216  0.18605092  1  0  -0.330033  0  3.299926  0  0  -0.251228  0  3.572588  0  0  -0.270695  0  3.589361  0  0  -0.324715  -0.23813  0  3.561053  0
N  N124  1  0.61272559  0.18183066  0.66502305  1  0  -0.338553  0  3.318398  0  0  -0.258958  0  3.593363  0  0  -0.278433  0  3.609007  0  0  -0.336364  -0.245876  0  3.582622  0
N  N125  1  0.61272583  0.31816894  0.83497710  1  0  -0.338556  0  3.318431  0  0  -0.258954  0  3.593385  0  0  -0.278429  0  3.60903  0  0  -0.33637  -0.245874  0  3.582647  0
N  N126  1  0.38727235  0.81817106  0.33497866  1  0  -0.338573  0  3.31832  0  0  -0.258971  0  3.593307  0  0  -0.278451  0  3.608957  0  0  -0.336403  -0.245889  0  3.582566  0
N  N127  1  0.38727328  0.68182979  0.16502256  1  0  -0.33857  0  3.318457  0  0  -0.258965  0  3.593421  0  0  -0.278441  0  3.609067  0  0  -0.33637  -0.245886  0  3.582686  0
O  O128  1  0.72515337  0.67402830  0.63020797  1  0  -0.649783  0  1.960945  0  0  -0.585636  0  2.210327  0  0  -0.614277  0  2.198595  0  0  -0.332407  -0.565586  0  2.217622  0
O  O129  1  0.72515482  0.82597201  0.86979090  1  0  -0.649785  0  1.960955  0  0  -0.585638  0  2.21034  0  0  -0.614276  0  2.198602  0  0  -0.332402  -0.565589  0  2.217635  0
O  O130  1  0.27484691  0.32597192  0.36979173  1  0  -0.649784  0  1.960914  0  0  -0.585646  0  2.210302  0  0  -0.614283  0  2.198564  0  0  -0.332391  -0.565595  0  2.217597  0
O  O131  1  0.27484662  0.17402821  0.13020879  1  0  -0.649812  0  1.960933  0  0  -0.585655  0  2.210311  0  0  -0.614293  0  2.198572  0  0  -0.332389  -0.565607  0  2.217606  0
O  O132  1  0.84123800  0.36722611  0.67791311  1  0  -0.654426  0  2.001409  0  0  -0.581952  0  2.256999  0  0  -0.611418  0  2.24464  0  0  -0.337356  -0.561311  0  2.264594  0
O  O133  1  0.84123897  0.13277369  0.82208712  1  0  -0.654378  0  2.001459  0  0  -0.581936  0  2.257058  0  0  -0.611403  0  2.2447  0  0  -0.337346  -0.56129  0  2.264643  0
O  O134  1  0.15876228  0.63277336  0.32208723  1  0  -0.654424  0  2.001402  0  0  -0.581944  0  2.257006  0  0  -0.61141  0  2.244647  0  0  -0.337321  -0.561304  0  2.264609  0
O  O135  1  0.15876130  0.86722578  0.17791255  1  0  -0.654358  0  2.00143  0  0  -0.581915  0  2.257031  0  0  -0.611381  0  2.244674  0  0  -0.337346  -0.561268  0  2.264612  0
O  O136  1  0.58645169  0.63445757  0.74943457  1  0  -0.607392  0  1.895205  0  0  -0.551178  0  2.115177  0  0  -0.576337  0  2.105141  0  0  -0.319568  -0.533563  0  2.12136  0
O  O137  1  0.58645078  0.86554113  0.75056620  1  0  -0.607381  0  1.895301  0  0  -0.551174  0  2.115282  0  0  -0.576334  0  2.105248  0  0  -0.319576  -0.533562  0  2.121468  0
O  O138  1  0.41354859  0.36554191  0.25056577  1  0  -0.607396  0  1.89522  0  0  -0.551191  0  2.115197  0  0  -0.57635  0  2.105162  0  0  -0.319586  -0.533575  0  2.12138  0
O  O139  1  0.41354833  0.13445761  0.24943412  1  0  -0.607437  0  1.895258  0  0  -0.551224  0  2.115236  0  0  -0.576384  0  2.105201  0  0  -0.319609  -0.533612  0  2.121418  0
O  O140  1  0.98810146  0.23452978  0.63985057  1  0  -0.614598  0  1.902289  0  0  -0.567568  0  2.126055  0  0  -0.59055  0  2.115961  0  0  -0.323082  -0.551454  0  2.132313  0
O  O141  1  0.98810161  0.26547091  0.86014973  1  0  -0.614543  0  1.902396  0  0  -0.567534  0  2.126152  0  0  -0.590514  0  2.116052  0  0  -0.323046  -0.551423  0  2.132413  0
O  O142  1  0.01189881  0.76547045  0.36015111  1  0  -0.614616  0  1.902338  0  0  -0.567579  0  2.126122  0  0  -0.59056  0  2.116022  0  0  -0.323086  -0.551465  0  2.132382  0
O  O143  1  0.01189750  0.73452931  0.13984931  1  0  -0.614512  0  1.902459  0  0  -0.567514  0  2.126237  0  0  -0.590498  0  2.116144  0  0  -0.323018  -0.551403  0  2.132499  0
