# generated using pymatgen
data_CuH12C10(NO3)2
_symmetry_space_group_name_H-M   'P 1'
_cell_length_a   8.21276885
_cell_length_b   15.17216737
_cell_length_c   27.16877157
_cell_angle_alpha   90.00091705
_cell_angle_beta   90.00124677
_cell_angle_gamma   89.99579302
_symmetry_Int_Tables_number   1
_chemical_formula_structural   CuH12C10(NO3)2
_chemical_formula_sum   'Cu8 H96 C80 N16 O48'
_cell_volume   3385.37845208
_cell_formula_units_Z   8
loop_
 _symmetry_equiv_pos_site_id
 _symmetry_equiv_pos_as_xyz
  1  'x, y, z'
loop_
 _atom_site_type_symbol
 _atom_site_label
 _atom_site_symmetry_multiplicity
 _atom_site_fract_x
 _atom_site_fract_y
 _atom_site_fract_z
 _atom_site_occupancy
 _atom_site_pbe_bader_charge
 _atom_site_pbe_bader_spin_density
 _atom_site_pbe_cm5_charge
 _atom_site_pbe_ddec_charge
 _atom_site_pbe_ddec_spin_density
 _atom_site_pbe_ddec_sum_bond_order
 _atom_site_pbe_magmom
Cu  Cu0  1  0.65728800  0.01408725  0.38024320  1  1.066999  -0.514442  0.663841  0.804093  -0.658184  2.252426  -0.512
Cu  Cu1  1  0.34272834  0.48591387  0.88023598  1  1.066934  -0.51452  0.663795  0.804135  -0.658273  2.252295  -0.512
Cu  Cu2  1  0.65721961  0.98592610  0.61975675  1  1.067414  -0.514475  0.663735  0.803843  -0.658214  2.252618  -0.512
Cu  Cu3  1  0.34274659  0.51407834  0.11976889  1  1.066881  -0.514542  0.663905  0.804308  -0.658296  2.252195  -0.512
Cu  Cu4  1  0.50074229  0.14251177  0.33938937  1  1.091549  0.522418  0.682891  0.833058  0.664292  2.311896  0.52
Cu  Cu5  1  0.49925529  0.35749280  0.83938534  1  1.091296  0.52247  0.682942  0.833084  0.664362  2.312316  0.52
Cu  Cu6  1  0.50070647  0.85750911  0.66060513  1  1.091028  0.522427  0.682863  0.833076  0.664322  2.312196  0.52
Cu  Cu7  1  0.49925049  0.64249518  0.16060952  1  1.091109  0.522487  0.682903  0.832977  0.664395  2.312388  0.52
H  H8  1  0.12011968  0.36518039  0.43700156  1  0.034118  6.4e-05  0.099025  0.11235  3.3e-05  0.978297  0.0
H  H9  1  0.87985203  0.13483025  0.93699729  1  0.034294  6.4e-05  0.098999  0.112375  3.3e-05  0.978193  0.0
H  H10  1  0.12021183  0.63480285  0.56301436  1  0.034344  6.4e-05  0.098943  0.112218  3.3e-05  0.978473  0.0
H  H11  1  0.87975030  0.86515252  0.06299382  1  0.034363  6.4e-05  0.098884  0.112308  3.3e-05  0.978238  0.0
H  H12  1  0.90975638  0.34051960  0.43665733  1  0.042732  1e-06  0.095968  0.104723  4e-06  1.00382  0.0
H  H13  1  0.09022992  0.15949301  0.93667090  1  0.042286  1e-06  0.095963  0.104752  4e-06  1.003802  0.0
H  H14  1  0.90982328  0.65946067  0.56333251  1  0.042775  1e-06  0.09592  0.104662  4e-06  1.003885  0.0
H  H15  1  0.09013643  0.84048483  0.06331501  1  0.042292  1e-06  0.095892  0.104624  4e-06  1.003851  0.0
H  H16  1  0.00291177  0.18707430  0.43400060  1  0.031567  0.000146  0.089429  0.087293  6.3e-05  1.013137  0.0
H  H17  1  0.99708773  0.31294087  0.93400055  1  0.031321  0.000146  0.089469  0.087301  6.3e-05  1.013062  0.0
H  H18  1  0.00289834  0.81291425  0.56599283  1  0.031854  0.000146  0.0893  0.087054  6.3e-05  1.01309  0.0
H  H19  1  0.99704573  0.68704450  0.06600421  1  0.031656  0.000146  0.089487  0.087261  6.3e-05  1.013097  0.0
H  H20  1  0.19461261  0.21993165  0.41033561  1  0.123007  0.000227  0.09429  0.110333  0.000182  1.037645  0.0
H  H21  1  0.80539128  0.28007230  0.91033400  1  0.123021  0.000227  0.094274  0.110357  0.000183  1.037618  0.0
H  H22  1  0.19460048  0.78005919  0.58966571  1  0.123107  0.000227  0.094318  0.110357  0.000182  1.037534  0.0
H  H23  1  0.80535504  0.71990947  0.08967318  1  0.123149  0.000228  0.094158  0.110167  0.000183  1.037881  0.0
H  H24  1  0.09757996  0.17398917  0.33469088  1  0.124268  0.001878  0.118906  0.100169  0.000985  0.98417  0.001
H  H25  1  0.90243432  0.32601066  0.83469511  1  0.124385  0.001877  0.118923  0.100192  0.000984  0.984216  0.001
H  H26  1  0.09750858  0.82600223  0.66530133  1  0.124421  0.001878  0.118881  0.100191  0.000984  0.984438  0.001
H  H27  1  0.90243776  0.67400483  0.16531823  1  0.124064  0.001879  0.118956  0.100141  0.000984  0.98411  0.001
H  H28  1  0.36433479  0.84526395  0.16623998  1  0.124961  -3.7e-05  0.103843  0.136619  4.4e-05  1.012647  0.0
H  H29  1  0.63567250  0.65474972  0.66624165  1  0.124373  -3.7e-05  0.103852  0.136627  4.5e-05  1.012595  0.0
H  H30  1  0.36434481  0.15475508  0.83377460  1  0.124874  -3.7e-05  0.103816  0.13662  4.4e-05  1.012545  0.0
H  H31  1  0.63569132  0.34526251  0.33376442  1  0.125097  -3.7e-05  0.103747  0.136555  4.5e-05  1.01257  0.0
H  H32  1  0.52553926  0.88894616  0.13043269  1  0.046914  3.1e-05  0.102671  0.116395  1.4e-05  0.965193  0.0
H  H33  1  0.47448615  0.61107110  0.63042885  1  0.046944  3.2e-05  0.1026  0.116425  1.4e-05  0.965197  0.0
H  H34  1  0.52555536  0.11105264  0.86957854  1  0.04652  3.2e-05  0.102665  0.11653  1.4e-05  0.965237  0.0
H  H35  1  0.47451866  0.38895543  0.36957799  1  0.046924  3.2e-05  0.102696  0.116581  1.4e-05  0.965176  0.0
H  H36  1  0.37381266  0.96597047  0.22368924  1  0.044901  -0.000198  0.099508  0.103692  -9.1e-05  0.971463  0.0
H  H37  1  0.62620971  0.53403230  0.72368680  1  0.045005  -0.000198  0.099489  0.103749  -9.1e-05  0.971393  0.0
H  H38  1  0.37377408  0.03404687  0.77631915  1  0.045275  -0.000198  0.099489  0.103702  -9.1e-05  0.971291  0.0
H  H39  1  0.62621774  0.46597437  0.27631736  1  0.044774  -0.000198  0.099478  0.10369  -9.1e-05  0.971454  0.0
H  H40  1  0.45615760  0.02581702  0.17381956  1  0.049884  -8e-06  0.102205  0.104472  9e-06  0.973213  0.0
H  H41  1  0.54386947  0.47419735  0.67381099  1  0.049957  -8e-06  0.102255  0.104558  9e-06  0.973402  0.0
H  H42  1  0.45613121  0.97419574  0.82619415  1  0.049868  -8e-06  0.102288  0.104548  9e-06  0.97321  0.0
H  H43  1  0.54388270  0.52582248  0.32618306  1  0.049871  -8e-06  0.102222  0.104472  9e-06  0.973242  0.0
H  H44  1  0.72988349  0.01054855  0.20430208  1  0.091519  -0.001418  0.117677  0.088321  -0.000764  0.945185  -0.001
H  H45  1  0.27016769  0.48944494  0.70429515  1  0.091268  -0.001417  0.117728  0.088413  -0.000763  0.945101  -0.001
H  H46  1  0.72980901  0.98941644  0.79570239  1  0.092185  -0.001413  0.117743  0.088439  -0.000762  0.945085  -0.001
H  H47  1  0.27016009  0.51057520  0.29570114  1  0.092226  -0.001414  0.117699  0.088413  -0.000763  0.945193  -0.001
H  H48  1  0.12003862  0.72188095  0.34639730  1  0.082573  0.000102  0.11093  0.131725  5.5e-05  0.959681  0.0
H  H49  1  0.87989030  0.77810159  0.84639028  1  0.083127  0.000103  0.110836  0.131568  5.5e-05  0.95982  0.0
H  H50  1  0.11993369  0.27816097  0.65359653  1  0.082678  0.000103  0.111028  0.131788  5.5e-05  0.959397  0.0
H  H51  1  0.88001765  0.22186206  0.15359421  1  0.082373  0.000103  0.110978  0.131727  5.5e-05  0.959429  0.0
H  H52  1  0.94533869  0.77359651  0.37213237  1  0.081198  9.7e-05  0.107336  0.12557  4.5e-05  0.992869  0.0
H  H53  1  0.05463469  0.72643158  0.87213306  1  0.08141  9.7e-05  0.107434  0.125599  4.5e-05  0.992693  0.0
H  H54  1  0.94525112  0.22644496  0.62786359  1  0.080092  9.7e-05  0.107213  0.125271  4.5e-05  0.993327  0.0
H  H55  1  0.05473490  0.27354570  0.12785740  1  0.080459  9.7e-05  0.10726  0.125233  4.5e-05  0.993187  0.0
H  H56  1  0.30113276  0.82472018  0.38621798  1  0.050902  1.6e-05  0.096936  0.100342  -1.9e-05  0.993015  0.0
H  H57  1  0.69887816  0.67525822  0.88623202  1  0.050983  1.6e-05  0.096886  0.100293  -1.9e-05  0.993084  0.0
H  H58  1  0.30106574  0.17531257  0.61378883  1  0.051248  1.6e-05  0.096937  0.100265  -1.9e-05  0.992841  0.0
H  H59  1  0.69894240  0.32470932  0.11377188  1  0.050887  1.6e-05  0.096829  0.10023  -1.9e-05  0.993011  0.0
H  H60  1  0.13735161  0.84094847  0.42797685  1  0.01857  0.000102  0.094103  0.09224  4.7e-05  0.989831  0.0
H  H61  1  0.86270371  0.65903902  0.92798226  1  0.018455  0.000102  0.094061  0.092228  4.8e-05  0.989926  0.0
H  H62  1  0.13729962  0.15909803  0.57201820  1  0.018813  0.000102  0.093976  0.092062  4.7e-05  0.989931  0.0
H  H63  1  0.86272378  0.34093124  0.07201389  1  0.018724  0.000102  0.094097  0.092268  4.7e-05  0.990088  0.0
H  H64  1  0.06380186  0.97713692  0.39035535  1  0.091681  -0.000231  0.11974  0.0988  -0.00013  0.967251  0.0
H  H65  1  0.93619718  0.52284686  0.89036296  1  0.091391  -0.000232  0.119658  0.09879  -0.00013  0.967307  0.0
H  H66  1  0.06372238  0.02291315  0.60964216  1  0.091475  -0.000233  0.119686  0.098616  -0.000131  0.967675  0.0
H  H67  1  0.93623920  0.47712114  0.10963993  1  0.091278  -0.000232  0.11968  0.098693  -0.00013  0.967294  0.0
H  H68  1  0.83590183  0.72405181  0.44895970  1  0.072398  -5e-05  0.110086  0.128327  -1.9e-05  0.9685  0.0
H  H69  1  0.16415500  0.77596660  0.94895051  1  0.072153  -4.9e-05  0.110154  0.128619  -1.9e-05  0.968652  0.0
H  H70  1  0.83583244  0.27595116  0.55105652  1  0.072297  -5e-05  0.110195  0.128655  -1.9e-05  0.968629  0.0
H  H71  1  0.16420407  0.22402413  0.05104582  1  0.072237  -4.9e-05  0.110122  0.128512  -1.9e-05  0.968481  0.0
H  H72  1  0.87063126  0.79590709  0.49943169  1  0.084257  -1.2e-05  0.105275  0.120246  -1.3e-05  0.998117  0.0
H  H73  1  0.12934275  0.70411868  0.99941868  1  0.08454  -1.2e-05  0.105239  0.120351  -1.3e-05  0.998223  0.0
H  H74  1  0.87062646  0.20410438  0.50058218  1  0.08466  -1.2e-05  0.105289  0.120434  -1.4e-05  0.998155  0.0
H  H75  1  0.12938938  0.29587409  0.00057779  1  0.084363  -1.2e-05  0.10528  0.120357  -1.3e-05  0.998284  0.0
H  H76  1  0.66354684  0.70295734  0.53897415  1  0.044515  -0.000125  0.102126  0.105686  -5.8e-05  0.993598  0.0
H  H77  1  0.33646713  0.79705271  0.03897407  1  0.045066  -0.000124  0.102129  0.105583  -5.8e-05  0.993672  0.0
H  H78  1  0.66349491  0.29706367  0.46103909  1  0.045286  -0.000125  0.102157  0.105686  -5.8e-05  0.993574  0.0
H  H79  1  0.33651628  0.20292261  0.96102486  1  0.045032  -0.000124  0.102143  0.105617  -5.8e-05  0.993723  0.0
H  H80  1  0.57758900  0.67557255  0.48099173  1  0.040272  -3.6e-05  0.102504  0.101994  -2.6e-05  0.967763  0.0
H  H81  1  0.42243969  0.82442765  0.98100493  1  0.039823  -3.6e-05  0.102535  0.102001  -2.6e-05  0.967824  0.0
H  H82  1  0.57752169  0.32443012  0.51901542  1  0.039684  -3.6e-05  0.102583  0.102158  -2.6e-05  0.967672  0.0
H  H83  1  0.42250887  0.17555019  0.01899274  1  0.039771  -3.5e-05  0.102569  0.102031  -2.6e-05  0.967691  0.0
H  H84  1  0.38194088  0.78274603  0.50478065  1  0.072526  -0.001667  0.119024  0.084888  -0.000856  0.949312  -0.001
H  H85  1  0.61804019  0.71723075  0.00478539  1  0.072581  -0.001666  0.119024  0.085007  -0.000856  0.949269  -0.001
H  H86  1  0.38192539  0.21724660  0.49522485  1  0.072166  -0.001667  0.11893  0.084754  -0.000857  0.949231  -0.001
H  H87  1  0.61808338  0.28274658  0.99520694  1  0.072227  -0.001666  0.118945  0.084793  -0.000856  0.949431  -0.001
H  H88  1  0.98450651  0.30996280  0.29594956  1  0.490533  4.6e-05  0.309117  0.286964  0.0  0.992887  0.0
H  H89  1  0.01550742  0.19004252  0.79595372  1  0.490376  4.6e-05  0.309115  0.286821  0.0  0.992985  0.0
H  H90  1  0.98446613  0.69003427  0.70404591  1  0.490422  4.6e-05  0.309114  0.286893  0.0  0.993036  0.0
H  H91  1  0.01554631  0.80998575  0.20403759  1  0.490919  4.6e-05  0.309182  0.287021  0.0  0.992529  0.0
H  H92  1  0.78691903  0.85784423  0.24649460  1  0.529212  -9.5e-05  0.30945  0.287116  -0.000137  0.997569  0.0
H  H93  1  0.21310012  0.64215128  0.74649042  1  0.529344  -9.5e-05  0.309513  0.287178  -0.000137  0.997424  0.0
H  H94  1  0.78688603  0.14214024  0.75351798  1  0.52917  -9.5e-05  0.309484  0.287059  -0.000137  0.997709  0.0
H  H95  1  0.21312607  0.35783750  0.25351507  1  0.528934  -9.5e-05  0.309511  0.287177  -0.000137  0.997524  0.0
H  H96  1  0.06825635  0.97425456  0.29563815  1  0.482248  0.000125  0.337599  0.304243  0.000135  0.89657  0.0
H  H97  1  0.93179799  0.52573445  0.79565091  1  0.482183  0.000125  0.33764  0.304125  0.000135  0.896689  0.0
H  H98  1  0.06822346  0.02579468  0.70436159  1  0.483081  0.000125  0.337566  0.304109  0.000135  0.896745  0.0
H  H99  1  0.93178876  0.47421660  0.20435894  1  0.482894  0.000125  0.337694  0.304336  0.000135  0.896457  0.0
H  H100  1  0.47673282  0.90700115  0.44913969  1  0.504446  -3.6e-05  0.314201  0.294738  -1.4e-05  0.977895  0.0
H  H101  1  0.52324732  0.59298035  0.94914190  1  0.505244  -3.6e-05  0.314255  0.294797  -1.4e-05  0.977884  0.0
H  H102  1  0.47671873  0.09300222  0.55086532  1  0.504256  -3.6e-05  0.314242  0.294751  -1.4e-05  0.977949  0.0
H  H103  1  0.52327150  0.40699877  0.05085459  1  0.504587  -3.7e-05  0.314278  0.294902  -1.4e-05  0.977917  0.0
C  C104  1  0.00621373  0.36886271  0.36516100  1  1.413427  -0.000103  0.226062  0.525254  -0.000202  4.127667  0.0
C  C105  1  0.99381492  0.13114259  0.86516702  1  1.413431  -0.000102  0.226025  0.524961  -0.000203  4.127958  0.0
C  C106  1  0.00621778  0.63112637  0.63483834  1  1.412309  -0.000103  0.226147  0.525323  -0.000203  4.127388  0.0
C  C107  1  0.99377629  0.86886400  0.13482079  1  1.413634  -0.000102  0.226065  0.525049  -0.000203  4.12769  0.0
C  C108  1  0.02478811  0.32969794  0.41682461  1  -0.044937  6.8e-05  -0.162986  -0.27968  7.2e-05  3.928135  0.0
C  C109  1  0.97521502  0.17030883  0.91682865  1  -0.044409  6.8e-05  -0.162925  -0.279692  7.2e-05  3.928185  0.0
C  C110  1  0.02483670  0.67027788  0.58317632  1  -0.045159  6.7e-05  -0.162708  -0.279312  7.2e-05  3.928104  0.0
C  C111  1  0.97513174  0.82967872  0.08316309  1  -0.044549  6.8e-05  -0.162758  -0.279621  7.2e-05  3.927979  0.0
C  C112  1  0.06326745  0.23211772  0.40818570  1  -0.081951  0.000303  -0.1604  -0.179872  0.0002  3.87178  0.0
C  C113  1  0.93673750  0.26789012  0.90818558  1  -0.081887  0.000305  -0.160458  -0.180034  0.000201  3.871758  0.0
C  C114  1  0.06326078  0.76786515  0.59181291  1  -0.082637  0.000304  -0.160382  -0.179692  0.000201  3.871287  0.0
C  C115  1  0.93668271  0.73209434  0.09181805  1  -0.082102  0.000305  -0.160372  -0.179715  0.000201  3.871613  0.0
C  C116  1  0.00681442  0.21380626  0.35439058  1  0.358398  0.000755  0.020604  0.035005  0.000372  3.819653  0.001
C  C117  1  0.99320127  0.28620138  0.85439652  1  0.358201  0.00076  0.020653  0.035211  0.000375  3.819698  0.001
C  C118  1  0.00676652  0.78618676  0.64560029  1  0.359282  0.000759  0.020762  0.035163  0.000374  3.819916  0.001
C  C119  1  0.99319058  0.71380853  0.14560564  1  0.358764  0.000758  0.020656  0.035284  0.000375  3.819442  0.001
C  C120  1  0.84660176  0.16146287  0.35465996  1  1.542162  -0.000552  0.217273  0.567652  -0.000312  4.126003  0.0
C  C121  1  0.15339204  0.33854741  0.85465863  1  1.54217  -0.000553  0.217093  0.567263  -0.000313  4.126458  0.0
C  C122  1  0.84655159  0.83854231  0.64532872  1  1.543413  -0.000553  0.217222  0.567354  -0.000313  4.127014  0.0
C  C123  1  0.15338722  0.66145890  0.14533983  1  1.542526  -0.000555  0.217089  0.567244  -0.000314  4.126543  0.0
C  C124  1  0.60687045  0.82625239  0.19590932  1  1.435795  -0.000139  0.247541  0.545557  2.7e-05  4.061931  0.0
C  C125  1  0.39314140  0.67374894  0.69590771  1  1.43728  -0.00014  0.247485  0.5456  2.7e-05  4.062167  0.0
C  C126  1  0.60687090  0.17373396  0.80409655  1  1.437905  -0.00014  0.247552  0.5457  2.7e-05  4.061964  0.0
C  C127  1  0.39315093  0.32626830  0.30409933  1  1.437673  -0.000141  0.247557  0.54574  2.7e-05  4.061787  0.0
C  C128  1  0.48063065  0.88039377  0.16836760  1  -0.081768  -0.000188  -0.158565  -0.289791  -0.000195  3.901507  0.0
C  C129  1  0.51938775  0.61961666  0.66836413  1  -0.080362  -0.000188  -0.158461  -0.289826  -0.000195  3.901388  0.0
C  C130  1  0.48062825  0.11960549  0.83164517  1  -0.080944  -0.000188  -0.158574  -0.290072  -0.000195  3.901594  0.0
C  C131  1  0.51940286  0.38040215  0.33164153  1  -0.081541  -0.000188  -0.158501  -0.28999  -0.000194  3.901309  0.0
C  C132  1  0.47404454  0.96752029  0.19690883  1  -0.012831  -0.000343  -0.147324  -0.157663  -0.000227  3.875772  0.0
C  C133  1  0.52598443  0.53248239  0.69690241  1  -0.013499  -0.000343  -0.147368  -0.15793  -0.000227  3.875615  0.0
C  C134  1  0.47403001  0.03248451  0.80310280  1  -0.012801  -0.000342  -0.147375  -0.157786  -0.000227  3.875789  0.0
C  C135  1  0.52598443  0.46752562  0.30309852  1  -0.012384  -0.000342  -0.147349  -0.157648  -0.000227  3.875412  0.0
C  C136  1  0.63928556  0.97096846  0.22468429  1  0.357002  -0.001633  0.02432  0.033503  -0.00095  3.842903  -0.001
C  C137  1  0.36074054  0.52903105  0.72467933  1  0.356727  -0.001631  0.024271  0.033773  -0.00095  3.842382  -0.001
C  C138  1  0.63925124  0.02901726  0.77532400  1  0.355817  -0.001633  0.02415  0.033738  -0.000949  3.842345  -0.001
C  C139  1  0.36074051  0.47098484  0.27531683  1  0.35549  -0.001632  0.024198  0.033317  -0.000948  3.843013  -0.001
C  C140  1  0.62202221  0.01215793  0.27575509  1  1.553079  0.000698  0.215978  0.562971  0.000449  4.150463  0.0
C  C141  1  0.37801219  0.48785076  0.77575254  1  1.552621  0.000702  0.215873  0.562711  0.000451  4.150201  0.0
C  C142  1  0.62196960  0.98784890  0.72423947  1  1.552911  0.000702  0.215886  0.562557  0.000451  4.150031  0.0
C  C143  1  0.37801020  0.51214796  0.22424777  1  1.552421  0.000701  0.215953  0.563123  0.000451  4.150343  0.0
C  C144  1  0.03755524  0.84054145  0.31027079  1  1.438729  -0.000339  0.252957  0.550986  -0.000359  4.092667  0.0
C  C145  1  0.96245509  0.65944665  0.81027723  1  1.439653  -0.000339  0.252913  0.550966  -0.000359  4.092579  0.0
C  C146  1  0.03748243  0.15950571  0.68972397  1  1.438839  -0.00034  0.252888  0.550971  -0.000359  4.092202  0.0
C  C147  1  0.96252508  0.34051175  0.18971700  1  1.439058  -0.000339  0.252694  0.550911  -0.000359  4.092348  0.0
C  C148  1  0.06608449  0.78569242  0.35600881  1  -0.067426  0.00049  -0.153818  -0.284846  0.000374  3.906399  0.0
C  C149  1  0.93388286  0.71430358  0.85601298  1  -0.068283  0.00049  -0.153805  -0.284637  0.000374  3.906296  0.0
C  C150  1  0.06600825  0.21435032  0.64398061  1  -0.067597  0.00049  -0.15368  -0.284665  0.000374  3.906579  0.0
C  C151  1  0.93398502  0.28566518  0.14397738  1  -0.067435  0.00049  -0.153603  -0.284408  0.000374  3.906182  0.0
C  C152  1  0.17272664  0.84388813  0.38910662  1  0.006494  0.001082  -0.156607  -0.167722  0.000671  3.895101  0.001
C  C153  1  0.82728936  0.65610749  0.88911360  1  0.006423  0.001084  -0.156554  -0.167676  0.000672  3.895202  0.001
C  C154  1  0.17266323  0.15615170  0.61089161  1  0.006155  0.001083  -0.156536  -0.167247  0.000671  3.894805  0.001
C  C155  1  0.82733497  0.34386748  0.11088010  1  0.006662  0.001084  -0.156534  -0.167516  0.000672  3.895033  0.001
C  C156  1  0.15177040  0.93828017  0.36864157  1  0.36849  0.000291  0.023006  0.0317  0.00017  3.812001  0.0
C  C157  1  0.84823804  0.56170234  0.86864637  1  0.368584  0.000292  0.023086  0.031457  0.00017  3.812151  0.0
C  C158  1  0.15170668  0.06175126  0.63135468  1  0.369253  0.00029  0.022995  0.031606  0.000168  3.812753  0.0
C  C159  1  0.84827229  0.43826323  0.13135410  1  0.368752  0.000292  0.022919  0.031569  0.00017  3.812243  0.0
C  C160  1  0.30846646  0.99323951  0.36598045  1  1.569908  -0.001321  0.223465  0.575266  -0.001046  4.124388  -0.001
C  C161  1  0.69154178  0.50676072  0.86598115  1  1.570083  -0.001316  0.223398  0.575336  -0.001045  4.124373  -0.001
C  C162  1  0.30840066  0.00679098  0.63401315  1  1.572901  -0.001315  0.223392  0.574999  -0.001043  4.124136  -0.001
C  C163  1  0.69156876  0.49321106  0.13401424  1  1.573302  -0.001314  0.223257  0.574804  -0.001043  4.124288  -0.001
C  C164  1  0.70207007  0.84709025  0.44689089  1  1.42667  0.000584  0.248016  0.54733  0.000437  4.064143  0.0
C  C165  1  0.29793547  0.65290833  0.94688553  1  1.426369  0.000583  0.247935  0.547444  0.000437  4.063941  0.0
C  C166  1  0.70205774  0.15291144  0.55312407  1  1.426531  0.000583  0.247982  0.54732  0.000437  4.063562  0.0
C  C167  1  0.29797527  0.34708764  0.05311095  1  1.426349  0.000584  0.24792  0.547313  0.000437  4.063977  0.0
C  C168  1  0.77663461  0.76975677  0.47461380  1  -0.094719  -8.9e-05  -0.154282  -0.288659  -8.3e-05  3.908403  0.0
C  C169  1  0.22337657  0.73025050  0.97460532  1  -0.094555  -8.8e-05  -0.154258  -0.289255  -8.3e-05  3.908643  0.0
C  C170  1  0.77661221  0.23024196  0.52540092  1  -0.094481  -8.9e-05  -0.154418  -0.289431  -8.3e-05  3.908636  0.0
C  C171  1  0.22341271  0.26973986  0.02538808  1  -0.094182  -8.9e-05  -0.154447  -0.289126  -8.3e-05  3.908337  0.0
C  C172  1  0.63253472  0.72910137  0.50254484  1  0.005756  0.000253  -0.147718  -0.169937  0.000156  3.883561  0.0
C  C173  1  0.36748880  0.77089513  0.00254768  1  0.005666  0.000253  -0.147764  -0.169799  0.000156  3.883529  0.0
C  C174  1  0.63248044  0.27089781  0.49746525  1  0.005423  0.000254  -0.147772  -0.170019  0.000157  3.883595  0.0
C  C175  1  0.36753824  0.22908555  0.99745183  1  0.005343  0.000254  -0.147751  -0.169886  0.000157  3.883701  0.0
C  C176  1  0.50844480  0.80608036  0.50614707  1  0.34633  -0.001722  0.022165  0.036486  -0.001152  3.853495  -0.001
C  C177  1  0.49154368  0.69390570  0.00615556  1  0.346187  -0.001718  0.022177  0.036607  -0.001148  3.853025  -0.001
C  C178  1  0.50843481  0.19392637  0.49385889  1  0.346785  -0.00172  0.022283  0.036901  -0.00115  3.85321  -0.001
C  C179  1  0.49158361  0.30607006  0.99384256  1  0.346111  -0.001718  0.022291  0.036987  -0.001148  3.853017  -0.001
C  C180  1  0.53229148  0.85489299  0.55540319  1  1.56382  0.000793  0.210745  0.557619  0.000556  4.150421  0.001
C  C181  1  0.46766157  0.64510501  0.05541255  1  1.564743  0.000794  0.210706  0.557132  0.000554  4.150778  0.001
C  C182  1  0.53232720  0.14512400  0.44459704  1  1.564165  0.000791  0.210534  0.556991  0.000553  4.151441  0.001
C  C183  1  0.46767063  0.35487500  0.94458652  1  1.563681  0.000793  0.210597  0.556984  0.000554  4.15089  0.001
N  N184  1  0.99281994  0.30045628  0.33322065  1  -1.211017  -0.005935  -0.41956  -0.369113  -0.003654  3.522575  -0.005
N  N185  1  0.00720885  0.19954680  0.83322778  1  -1.210913  -0.005929  -0.419619  -0.36882  -0.003649  3.522723  -0.005
N  N186  1  0.99277316  0.69953782  0.66677268  1  -1.210582  -0.005932  -0.419734  -0.369313  -0.003652  3.52301  -0.005
N  N187  1  0.00719399  0.80046993  0.16676384  1  -1.212038  -0.005931  -0.419718  -0.369109  -0.003651  3.522278  -0.005
N  N188  1  0.68832401  0.87964240  0.22655935  1  -1.262799  0.003373  -0.412155  -0.357276  0.001998  3.525844  0.003
N  N189  1  0.31169370  0.62035255  0.72655600  1  -1.264391  0.003375  -0.412183  -0.357509  0.001998  3.526132  0.003
N  N190  1  0.68830516  0.12033347  0.77344669  1  -1.264586  0.003376  -0.412161  -0.357537  0.001999  3.52662  0.003
N  N191  1  0.31170229  0.37965869  0.27344720  1  -1.263869  0.003373  -0.41209  -0.357416  0.001997  3.526463  0.003
N  N192  1  0.08674162  0.92366452  0.31946092  1  -1.231643  -0.002377  -0.403862  -0.356764  -0.00146  3.490483  -0.002
N  N193  1  0.91327303  0.57632450  0.81946886  1  -1.231468  -0.002378  -0.403883  -0.356497  -0.00146  3.490503  -0.002
N  N194  1  0.08670501  0.07637937  0.68053637  1  -1.231944  -0.002377  -0.403804  -0.356622  -0.001461  3.4907  -0.002
N  N195  1  0.91330549  0.42363387  0.18053277  1  -1.232299  -0.002377  -0.403834  -0.356836  -0.00146  3.490422  -0.002
N  N196  1  0.54907155  0.85867328  0.46371601  1  -1.219892  0.002279  -0.418581  -0.374298  0.001405  3.530365  0.002
N  N197  1  0.45090598  0.64130139  0.96372222  1  -1.220639  0.002282  -0.418787  -0.374583  0.001406  3.530135  0.002
N  N198  1  0.54906445  0.14132525  0.53629059  1  -1.219786  0.002283  -0.41872  -0.374427  0.001407  3.530101  0.002
N  N199  1  0.45095273  0.35867467  0.03627416  1  -1.219499  0.002282  -0.418733  -0.374812  0.001406  3.530378  0.002
O  O200  1  0.86074907  0.07981322  0.36496596  1  -1.110835  -0.086057  -0.31128  -0.523764  -0.055814  2.368356  -0.078
O  O201  1  0.13923938  0.42019801  0.86496527  1  -1.111285  -0.086063  -0.31117  -0.523605  -0.055817  2.36814  -0.078
O  O202  1  0.86070655  0.92018678  0.63501840  1  -1.112199  -0.086054  -0.311147  -0.523527  -0.055813  2.368526  -0.078
O  O203  1  0.13924857  0.57980755  0.13503715  1  -1.111013  -0.086076  -0.311228  -0.52368  -0.055824  2.368255  -0.078
O  O204  1  0.71560141  0.20310146  0.34649704  1  -1.109109  0.077334  -0.302662  -0.516193  0.050267  2.40677  0.07
O  O205  1  0.28438693  0.29691848  0.84648442  1  -1.109004  0.077334  -0.302599  -0.51607  0.050272  2.407003  0.07
O  O206  1  0.71556844  0.79691419  0.65350366  1  -1.109592  0.077343  -0.302709  -0.516128  0.050276  2.40738  0.07
O  O207  1  0.28437705  0.70308989  0.15350829  1  -1.109278  0.077366  -0.302511  -0.515938  0.050288  2.406713  0.07
O  O208  1  0.00324916  0.44806620  0.35439972  1  -1.158303  -0.00357  -0.353958  -0.552549  -0.002289  2.029333  -0.003
O  O209  1  0.99678724  0.05193089  0.85440431  1  -1.158089  -0.003568  -0.353956  -0.552537  -0.002287  2.028931  -0.003
O  O210  1  0.00325622  0.55192234  0.64560769  1  -1.157806  -0.00357  -0.354057  -0.552648  -0.002289  2.028822  -0.003
O  O211  1  0.99676541  0.94807558  0.14557763  1  -1.158364  -0.00357  -0.354002  -0.552563  -0.002289  2.029034  -0.003
O  O212  1  0.65572458  0.96390579  0.31268682  1  -1.101273  -0.080657  -0.31305  -0.513888  -0.0525  2.353332  -0.073
O  O213  1  0.34428227  0.53610479  0.81268365  1  -1.100815  -0.08068  -0.312934  -0.513696  -0.052513  2.353088  -0.073
O  O214  1  0.65570611  0.03610827  0.68731349  1  -1.101076  -0.080652  -0.312958  -0.513624  -0.052497  2.353211  -0.073
O  O215  1  0.34430001  0.46388868  0.18731865  1  -1.100828  -0.080682  -0.313093  -0.514014  -0.052513  2.35325  -0.073
O  O216  1  0.57312831  0.09157340  0.27594301  1  -1.096375  0.086679  -0.311494  -0.508191  0.055811  2.326668  0.078
O  O217  1  0.42691827  0.40843860  0.77594521  1  -1.096018  0.086679  -0.311481  -0.508169  0.055811  2.326785  0.078
O  O218  1  0.57304995  0.90843867  0.72404755  1  -1.09614  0.086686  -0.31142  -0.508085  0.055814  2.326838  0.078
O  O219  1  0.42690792  0.59156016  0.22404843  1  -1.095976  0.086676  -0.311436  -0.50818  0.055808  2.326702  0.078
O  O220  1  0.63813680  0.74613395  0.19101631  1  -1.170594  0.001217  -0.319992  -0.51974  0.001037  2.308943  0.002
O  O221  1  0.36185279  0.75386856  0.69102295  1  -1.170532  0.001218  -0.320022  -0.519787  0.001037  2.308928  0.002
O  O222  1  0.63813158  0.25385116  0.80898241  1  -1.171004  0.001218  -0.319945  -0.519696  0.001037  2.309001  0.002
O  O223  1  0.36185042  0.24615123  0.30898278  1  -1.171009  0.001215  -0.319998  -0.519794  0.001035  2.308746  0.002
O  O224  1  0.30645286  0.05932182  0.33759733  1  -1.108624  0.065363  -0.296425  -0.502331  0.042526  2.336943  0.059
O  O225  1  0.69356284  0.44067282  0.83760158  1  -1.108847  0.065399  -0.296499  -0.5024  0.042551  2.336833  0.06
O  O226  1  0.30638517  0.94069622  0.66238816  1  -1.111387  0.065379  -0.296242  -0.501995  0.042531  2.336749  0.059
O  O227  1  0.69357192  0.55930020  0.16239271  1  -1.111366  0.065396  -0.296243  -0.502026  0.042544  2.336917  0.06
O  O228  1  0.42775042  0.96868533  0.39269265  1  -1.145238  -0.059928  -0.311057  -0.548674  -0.039388  2.438156  -0.054
O  O229  1  0.57225122  0.53132225  0.89268395  1  -1.145246  -0.059943  -0.310915  -0.548575  -0.039398  2.438044  -0.054
O  O230  1  0.42770128  0.03136415  0.60731646  1  -1.145229  -0.059947  -0.311067  -0.548506  -0.039402  2.437772  -0.054
O  O231  1  0.57227596  0.46864569  0.10731323  1  -1.14548  -0.059955  -0.310967  -0.548423  -0.039407  2.437675  -0.054
O  O232  1  0.97574716  0.81392028  0.27114134  1  -1.196068  -0.001367  -0.302175  -0.523788  -0.000858  2.200616  -0.001
O  O233  1  0.02428106  0.68606737  0.77115103  1  -1.196603  -0.001366  -0.302128  -0.523788  -0.000857  2.200683  -0.001
O  O234  1  0.97566015  0.18612327  0.72885408  1  -1.196711  -0.001367  -0.302167  -0.523667  -0.000858  2.200161  -0.001
O  O235  1  0.02435261  0.31389727  0.22884769  1  -1.195837  -0.001366  -0.302069  -0.523701  -0.000857  2.20023  -0.001
O  O236  1  0.63478499  0.91737578  0.55655771  1  -1.111468  -0.071739  -0.311222  -0.508689  -0.046848  2.333217  -0.065
O  O237  1  0.36515962  0.58262686  0.05657135  1  -1.11195  -0.071736  -0.311302  -0.508499  -0.046846  2.3334  -0.065
O  O238  1  0.63486199  0.08265493  0.44343878  1  -1.111557  -0.071728  -0.311252  -0.508527  -0.046841  2.333774  -0.065
O  O239  1  0.36514428  0.41735128  0.94343072  1  -1.111498  -0.071731  -0.311275  -0.508572  -0.046842  2.333533  -0.065
O  O240  1  0.44976485  0.82366162  0.59091229  1  -1.11912  0.067358  -0.310355  -0.533394  0.043891  2.405308  0.061
O  O241  1  0.55018466  0.67634332  0.09092248  1  -1.119067  0.067388  -0.310249  -0.533129  0.043913  2.405566  0.061
O  O242  1  0.44978160  0.17635798  0.40908997  1  -1.119128  0.067372  -0.31015  -0.533024  0.0439  2.405437  0.061
O  O243  1  0.55020272  0.32364857  0.90907455  1  -1.118665  0.067374  -0.310229  -0.533034  0.043903  2.405549  0.061
O  O244  1  0.77048736  0.89195611  0.41447984  1  -1.167853  0.002212  -0.301232  -0.506919  0.001299  2.214993  0.001
O  O245  1  0.22953289  0.60805077  0.91446663  1  -1.168011  0.002213  -0.301142  -0.506923  0.0013  2.214731  0.001
O  O246  1  0.77046154  0.10804352  0.58553925  1  -1.168337  0.002212  -0.301175  -0.506771  0.001299  2.214676  0.001
O  O247  1  0.22958597  0.39195648  0.08553013  1  -1.167641  0.002211  -0.301025  -0.506702  0.001299  2.214978  0.001
