# generated using pymatgen
data_CuH14(C3N2)6
_symmetry_space_group_name_H-M   'P 1'
_cell_length_a   7.61864798
_cell_length_b   8.08604810
_cell_length_c   9.27305375
_cell_angle_alpha   64.67885772
_cell_angle_beta   68.38663191
_cell_angle_gamma   71.64605213
_symmetry_Int_Tables_number   1
_chemical_formula_structural   CuH14(C3N2)6
_chemical_formula_sum   'Cu1 H14 C18 N12'
_cell_volume   471.58313793
_cell_formula_units_Z   1
loop_
 _symmetry_equiv_pos_site_id
 _symmetry_equiv_pos_as_xyz
  1  'x, y, z'
loop_
 _atom_site_type_symbol
 _atom_site_label
 _atom_site_symmetry_multiplicity
 _atom_site_fract_x
 _atom_site_fract_y
 _atom_site_fract_z
 _atom_site_occupancy
 _atom_site_hle17_ddec_charge
 _atom_site_hle17_ddec_spin_density
 _atom_site_hle17_ddec_sum_bond_order
 _atom_site_hle17_magmom
 _atom_site_hse06_10hf_ddec_charge
 _atom_site_hse06_10hf_ddec_spin_density
 _atom_site_hse06_10hf_ddec_sum_bond_order
 _atom_site_hse06_10hf_magmom
 _atom_site_hse06_ddec_charge
 _atom_site_hse06_ddec_spin_density
 _atom_site_hse06_ddec_sum_bond_order
 _atom_site_hse06_magmom
 _atom_site_pbe_cm5_charge
 _atom_site_pbe_ddec_charge
 _atom_site_pbe_ddec_spin_density
 _atom_site_pbe_ddec_sum_bond_order
 _atom_site_pbe_magmom
Cu  Cu0  1  0.00000160  0.99999446  0.00000234  1  0.961265  -0.741355  1.949393  -0.577  0.938275  -0.813575  2.359454  -0.68  1.003548  -0.869165  2.308327  -0.752  0.846694  0.89163  -0.771711  2.403016  -0.628
H  H1  1  0.62892828  0.97441618  0.75389145  1  0.109462  -0.000315  0.964445  -0.001  0.120335  -0.000183  1.023571  0.0  0.121848  -9.4e-05  1.023845  0.0  0.107563  0.119362  -0.000276  1.023248  0.0
H  H2  1  0.37106386  0.02558646  0.24611017  1  0.109459  -0.000322  0.964387  -0.001  0.120329  -0.000183  1.023507  0.0  0.121844  -9.4e-05  1.02378  0.0  0.107553  0.119352  -0.000276  1.023198  0.0
H  H3  1  0.61012882  0.31664485  0.65450811  1  0.084171  0.000137  0.976493  0.0  0.095744  6.4e-05  1.039555  0.0  0.097088  5.9e-05  1.040249  0.0  0.099681  0.094898  6.5e-05  1.038816  0.0
H  H4  1  0.38986197  0.68335803  0.34548519  1  0.0841  0.00014  0.976549  0.0  0.095696  6.3e-05  1.039599  0.0  0.09704  5.9e-05  1.040294  0.0  0.09967  0.094854  6.5e-05  1.038854  0.0
H  H5  1  0.73567624  0.49800597  0.35772824  1  0.094329  -8e-06  0.971141  0.0  0.100244  1.5e-05  1.041346  0.0  0.102587  1.4e-05  1.040973  0.0  0.0997  0.098561  1.4e-05  1.041692  0.0
H  H6  1  0.26432088  0.50199253  0.64226475  1  0.094313  -6e-06  0.971201  0.0  0.100237  1.5e-05  1.041389  0.0  0.102577  1.4e-05  1.041023  0.0  0.099683  0.098555  1.4e-05  1.041736  0.0
H  H7  1  0.87341254  0.34544240  0.14525585  1  0.124652  -0.000241  0.956476  0.0  0.134013  -0.000152  1.015232  0.0  0.135967  -8.9e-05  1.014678  0.0  0.110131  0.132698  -0.000219  1.015624  0.0
H  H8  1  0.12658769  0.65454478  0.85474676  1  0.12462  -0.000238  0.956397  0.0  0.133989  -0.000152  1.015168  0.0  0.135941  -8.9e-05  1.014615  0.0  0.110125  0.132675  -0.000219  1.01556  0.0
H  H9  1  0.84177456  0.50293698  0.62070077  1  0.119092  -5.1e-05  0.957444  0.0  0.131092  -7.2e-05  1.034667  0.0  0.132428  -3.8e-05  1.033723  0.0  0.115901  0.130035  -0.000119  1.035359  0.0
H  H10  1  0.15823660  0.49705256  0.37929885  1  0.119072  -6e-05  0.957522  0.0  0.131048  -7.2e-05  1.034764  0.0  0.132382  -3.8e-05  1.033823  0.0  0.115904  0.129997  -0.000119  1.035447  0.0
H  H11  1  0.60792082  0.62437679  0.70173329  1  0.111485  9.3e-05  0.945782  0.0  0.126689  3.7e-05  1.017037  0.0  0.126814  7.2e-05  1.018551  0.0  0.106408  0.12657  3e-06  1.015944  0.0
H  H12  1  0.39208414  0.37560750  0.29826681  1  0.111459  8.7e-05  0.945755  0.0  0.126698  3.7e-05  1.016979  0.0  0.126829  7.2e-05  1.018488  0.0  0.106385  0.126579  3e-06  1.015888  0.0
H  H13  1  0.81422508  0.62337318  0.75133641  1  0.121279  3.7e-05  0.932496  0.0  0.140973  7e-06  0.994011  0.0  0.140781  4.1e-05  0.995569  0.0  0.113787  0.141015  -1.3e-05  0.993051  0.0
H  H14  1  0.18577241  0.37662237  0.24866509  1  0.121257  2.4e-05  0.932549  0.0  0.140964  7e-06  0.994034  0.0  0.14077  4.1e-05  0.995599  0.0  0.113785  0.141004  -1.3e-05  0.993071  0.0
C  C15  1  0.69491421  0.72192941  0.03992057  1  0.450584  0.002655  4.012134  0.002  0.428902  0.000457  4.301742  0.0  0.453435  0.000384  4.311104  0.0  0.280521  0.411957  0.000513  4.295505  0.0
C  C16  1  0.30509824  0.27808575  0.96009754  1  0.450789  0.002676  4.012493  0.002  0.429124  0.000456  4.302085  0.0  0.45367  0.000386  4.311454  0.0  0.280618  0.41218  0.000512  4.295839  0.0
C  C17  1  0.38945236  0.74414523  0.03418181  1  0.511472  0.006181  3.982221  -0.002  0.48375  -0.001009  4.268  -0.008  0.513547  0.001053  4.274684  -0.005  0.313709  0.463213  -0.002489  4.262657  -0.009
C  C18  1  0.61057181  0.25585052  0.96582253  1  0.511468  0.006194  3.982177  -0.002  0.483775  -0.001011  4.267935  -0.008  0.51358  0.001053  4.274616  -0.005  0.313743  0.463243  -0.002489  4.262592  -0.009
C  C19  1  0.82820909  0.07428039  0.33167709  1  0.116117  -0.001385  3.819861  -0.003  0.114649  -0.001707  4.077871  -0.003  0.116432  -0.000238  4.101424  -0.001  0.096717  0.11295  -0.002838  4.061373  -0.004
C  C20  1  0.17178659  0.92571809  0.66831958  1  0.116093  -0.001362  3.819837  -0.003  0.114722  -0.001704  4.077774  -0.003  0.116502  -0.000238  4.101331  -0.001  0.09682  0.113027  -0.002839  4.061275  -0.004
C  C21  1  0.76212158  0.97102852  0.50212141  1  0.086578  -0.004839  3.791825  -0.006  0.059827  -0.002476  4.034897  -0.003  0.06301  -0.002032  4.05671  -0.003  0.103461  0.05787  -0.002924  4.020648  -0.004
C  C22  1  0.23787526  0.02897121  0.49787878  1  0.086522  -0.004852  3.791873  -0.006  0.059772  -0.002477  4.034899  -0.003  0.062951  -0.002032  4.056719  -0.003  0.10343  0.057817  -0.002924  4.020648  -0.004
C  C23  1  0.68057939  0.05435831  0.62298976  1  -0.127513  0.002603  3.722355  0.002  -0.146349  0.000796  3.980245  0.0  -0.149365  0.001222  4.001048  0.001  -0.090762  -0.144691  0.000511  3.96596  0.0
C  C24  1  0.31941149  0.94563486  0.37700807  1  -0.127441  0.002678  3.72233  0.002  -0.146258  0.000793  3.980227  0.0  -0.149276  0.001224  4.001033  0.001  -0.090681  -0.144603  0.000511  3.965939  0.0
C  C25  1  0.67154485  0.24506247  0.56575311  1  -0.047914  -0.001525  3.741281  -0.002  -0.069006  -0.000445  3.998564  -0.001  -0.069753  -0.000676  4.020954  -0.001  -0.088939  -0.067827  -0.000304  3.982516  0.0
C  C26  1  0.32844048  0.75493925  0.43424114  1  -0.047933  -0.001554  3.741449  -0.002  -0.069081  -0.000443  3.998772  -0.001  -0.069827  -0.000678  4.021158  -0.001  -0.089002  -0.067902  -0.000304  3.982724  0.0
C  C27  1  0.74108167  0.34931338  0.39565889  1  -0.080735  0.003199  3.749173  0.002  -0.097143  0.001376  4.0065  0.001  -0.100558  0.001653  4.029048  0.001  -0.09587  -0.094916  0.001131  3.991054  0.001
C  C28  1  0.25892011  0.65068209  0.60433813  1  -0.080659  0.003235  3.749323  0.002  -0.097045  0.001374  4.006653  0.001  -0.100459  0.001658  4.029197  0.001  -0.095817  -0.094818  0.001131  3.991211  0.001
C  C29  1  0.81876442  0.26713030  0.27588646  1  -0.114894  -0.001766  3.709323  -0.002  -0.135022  -0.000613  3.958274  -0.001  -0.13623  -0.000799  3.978084  -0.001  -0.081386  -0.133433  -0.000531  3.943899  -0.001
C  C30  1  0.18122790  0.73286284  0.72410988  1  -0.114929  -0.001802  3.70944  -0.002  -0.135104  -0.000612  3.958394  -0.001  -0.136308  -0.000801  3.978201  -0.001  -0.081441  -0.133516  -0.000531  3.94402  -0.001
C  C31  1  0.76273087  0.62539869  0.65474349  1  -0.188514  -0.00053  3.614273  -0.001  -0.303498  -0.000411  3.860709  -0.001  -0.300785  -0.000288  3.86919  0.0  -0.123648  -0.304875  -0.00053  3.854997  -0.001
C  C32  1  0.23726948  0.37459682  0.34525503  1  -0.18848  -0.000492  3.614269  -0.001  -0.303444  -0.00041  3.860673  -0.001  -0.300743  -0.000288  3.869153  0.0  -0.123617  -0.304826  -0.00053  3.85496  -0.001
N  N33  1  0.82803731  0.76761917  0.03878975  1  -0.570012  -0.001206  2.723846  -0.003  -0.561983  0.003035  2.995876  0.001  -0.578472  0.003377  2.999537  0.001  -0.368877  -0.550691  0.002386  2.993993  0.001
N  N34  1  0.17196515  0.23241615  0.96120467  1  -0.57023  -0.001235  2.723944  -0.004  -0.562234  0.003035  2.996007  0.001  -0.578725  0.003372  2.999665  0.001  -0.368974  -0.550937  0.002383  2.99412  0.001
N  N35  1  0.56029465  0.65330592  0.04161422  1  -0.465093  -0.004379  3.30498  -0.007  -0.41734  0.000746  3.566618  0.0  -0.440806  0.001364  3.570346  0.0  -0.314348  -0.401352  -0.000122  3.564226  -0.001
N  N36  1  0.43971446  0.34670396  0.95840029  1  -0.46517  -0.004386  3.304938  -0.007  -0.417459  0.00074  3.566574  0.0  -0.440955  0.001362  3.570329  0.0  -0.314337  -0.40148  -0.000126  3.564194  -0.001
N  N37  1  0.22855234  0.81029320  0.03205924  1  -0.590621  -0.057071  2.99883  -0.074  -0.575014  -0.040379  3.316132  -0.054  -0.603206  -0.033174  3.317442  -0.047  -0.413495  -0.555661  -0.045184  3.314785  -0.058
N  N38  1  0.77146034  0.18972255  0.96793162  1  -0.590536  -0.057071  2.998995  -0.074  -0.574942  -0.040373  3.31629  -0.054  -0.603126  -0.03317  3.317594  -0.047  -0.413539  -0.555593  -0.045179  3.314944  -0.058
N  N39  1  0.89889872  0.94876088  0.25036883  1  -0.230803  -0.079058  3.23553  -0.106  -0.214611  -0.053729  3.565301  -0.077  -0.238416  -0.042214  3.58515  -0.064  -0.211129  -0.19734  -0.061881  3.55039  -0.084
N  N40  1  0.10110302  0.05123448  0.74963364  1  -0.230656  -0.079062  3.235272  -0.106  -0.21459  -0.053733  3.565134  -0.077  -0.238395  -0.042218  3.584987  -0.064  -0.21118  -0.197329  -0.061886  3.550231  -0.084
N  N41  1  0.88220406  0.78038199  0.35739147  1  -0.04328  0.007133  2.864914  0.006  -0.054046  0.001907  3.141727  0.002  -0.046503  0.004139  3.153534  0.003  -0.059518  -0.058316  0.000186  3.132797  0.0
N  N42  1  0.11778891  0.21961499  0.64261624  1  -0.043418  0.007128  2.864763  0.006  -0.054122  0.001906  3.141568  0.002  -0.046585  0.00414  3.153375  0.003  -0.059547  -0.058388  0.000186  3.132643  0.0
N  N43  1  0.80048389  0.79089016  0.50952435  1  0.049544  0.000988  3.545504  -0.002  0.168688  -0.000473  3.733043  -0.002  0.158417  0.000847  3.755525  -0.001  -0.122957  0.174191  -0.001518  3.719938  -0.004
N  N44  1  0.19950770  0.20910697  0.49047941  1  0.049648  0.000982  3.54538  -0.002  0.168754  -0.000476  3.732958  -0.002  0.158506  0.000847  3.755405  -0.001  -0.122928  0.17426  -0.001519  3.719852  -0.004
