# generated using pymatgen
data_ZnH17C23N6O5
_symmetry_space_group_name_H-M   'P 1'
_cell_length_a   16.49780854
_cell_length_b   17.85253341
_cell_length_c   33.15939946
_cell_angle_alpha   90.31450974
_cell_angle_beta   88.56390526
_cell_angle_gamma   89.98596657
_symmetry_Int_Tables_number   1
_chemical_formula_structural   ZnH17C23N6O5
_chemical_formula_sum   'Zn4 H68 C92 N24 O20'
_cell_volume   9763.14551005
_cell_formula_units_Z   4
loop_
 _symmetry_equiv_pos_site_id
 _symmetry_equiv_pos_as_xyz
  1  'x, y, z'
loop_
 _atom_site_type_symbol
 _atom_site_label
 _atom_site_symmetry_multiplicity
 _atom_site_fract_x
 _atom_site_fract_y
 _atom_site_fract_z
 _atom_site_occupancy
 _atom_site_pbe_bader_charge
 _atom_site_pbe_bader_spin_density
 _atom_site_pbe_cm5_charge
 _atom_site_pbe_ddec_charge
 _atom_site_pbe_ddec_spin_density
 _atom_site_pbe_ddec_sum_bond_order
 _atom_site_pbe_magmom
Zn  Zn0  1  0.57876228  0.49652348  0.49986760  1  1.29094  0  0.667864  0.827086  0  2.43255  0
Zn  Zn1  1  0.40756628  0.49731705  0.50094663  1  1.273693  0  0.664745  0.822847  0  2.387728  0
Zn  Zn2  1  0.42175141  0.49948311  0.96237042  1  1.29366  0  0.668176  0.826765  0  2.438976  0
Zn  Zn3  1  0.59297948  0.50004798  0.96134290  1  1.272789  0  0.664474  0.822613  0  2.385112  0
H  H4  1  0.28181114  0.59060790  0.53904811  1  0.094083  0  0.121336  0.115276  0  0.992273  0
H  H5  1  0.27958722  0.40771870  0.46185240  1  0.071486  0  0.12285  0.116306  0  0.985026  0
H  H6  1  0.69682208  0.54229458  0.56128325  1  0.08623  0  0.117396  0.106853  0  1.010773  0
H  H7  1  0.71341005  0.44494941  0.44782309  1  0.116401  0  0.121294  0.11281  0  0.994375  0
H  H8  1  0.62564905  0.73070563  0.49268078  1  0.066188  0  0.099152  0.121496  0  1.014314  0
H  H9  1  0.36933238  0.73736380  0.51811688  1  0.06974  0  0.093991  0.111213  0  1.027288  0
H  H10  1  0.62231353  0.26317392  0.50888675  1  0.090336  0  0.099184  0.121332  0  1.01575  0
H  H11  1  0.36838934  0.25632359  0.48379276  1  0.047227  0  0.094734  0.112008  0  1.024667  0
H  H12  1  0.35661226  0.50303599  0.63497156  1  0.07574  0  0.111814  0.121222  0  0.989  0
H  H13  1  0.28962502  0.51569455  0.70300841  1  0.135051  0  0.115932  0.123202  0  0.979132  0
H  H14  1  0.61418138  0.49507239  0.62298513  1  0.080491  0  0.106501  0.10945  0  1.042817  0
H  H15  1  0.64367617  0.50294095  0.82745336  1  0.123522  0  0.111444  0.120609  0  0.990356  0
H  H16  1  0.71074309  0.51464342  0.75945688  1  0.124067  0  0.115842  0.122937  0  0.979309  0
H  H17  1  0.38605890  0.49571816  0.83934758  1  0.117504  0  0.106678  0.109556  0  1.042526  0
H  H18  1  0.37543035  0.48358519  0.09005416  1  0.05715  0  0.094728  0.111244  0  1.028223  0
H  H19  1  0.62981632  0.53427862  0.08877035  1  0.080518  0  0.098396  0.11942  0  1.015013  0
H  H20  1  0.37023699  0.52935791  0.37394396  1  0.070417  0  0.09871  0.120187  0  1.015143  0
H  H21  1  0.62477294  0.47898353  0.37158806  1  0.059814  0  0.094572  0.111185  0  1.0285  0
H  H22  1  0.71869491  0.59296611  0.92342015  1  0.109751  0  0.120944  0.112255  0  0.995418  0
H  H23  1  0.72108664  0.41054568  0.99985918  1  0.118727  0  0.122677  0.113493  0  0.987342  0
H  H24  1  0.30353838  0.54471418  0.90141394  1  0.109474  0  0.117639  0.106695  0  1.010596  0
H  H25  1  0.28742965  0.44829780  0.01454187  1  0.104199  0  0.121501  0.112916  0  0.992906  0
H  H26  1  0.37426844  0.73310460  0.96820615  1  0.089065  0  0.099289  0.121484  0  1.014646  0
H  H27  1  0.63064450  0.74035511  0.94285047  1  0.056449  0  0.094044  0.111134  0  1.026374  0
H  H28  1  0.37760127  0.26679628  0.95280238  1  0.090782  0  0.099185  0.121152  0  1.015723  0
H  H29  1  0.63132707  0.25847815  0.97822746  1  0.078619  0  0.094834  0.112166  0  1.024152  0
H  H30  1  0.05944314  0.37949987  0.46825182  1  0.448472  0  0.301835  0.294837  0  0.963854  0
H  H31  1  0.14853022  0.34821687  0.44717975  1  0.450847  0  0.31685  0.310905  0  0.926508  0
H  H32  1  0.05989539  0.61199443  0.54610865  1  0.465738  0  0.304992  0.299225  0  0.959481  0
H  H33  1  0.15095062  0.64838803  0.56032276  1  0.448764  0  0.319254  0.314163  0  0.92494  0
H  H34  1  0.93515679  0.45144617  0.43963199  1  0.461204  0  0.299788  0.292027  0  0.971563  0
H  H35  1  0.84816565  0.42656906  0.41627005  1  0.441834  0  0.315984  0.310605  0  0.927135  0
H  H36  1  0.91478681  0.53469740  0.58073810  1  0.43363  0  0.306967  0.301055  0  0.948076  0
H  H37  1  0.82082987  0.55759126  0.60051831  1  0.46481  0  0.302423  0.312369  0  0.968186  0
H  H38  1  0.36422053  0.94183041  0.52501546  1  0.450601  0  0.292463  0.285354  0  0.979809  0
H  H39  1  0.30978777  0.86184056  0.53112912  1  0.414859  0  0.302565  0.295295  0  0.946232  0
H  H40  1  0.64015932  0.93250504  0.47717981  1  0.43559  0  0.293671  0.286187  0  0.97748  0
H  H41  1  0.69087015  0.84969438  0.47522075  1  0.407049  0  0.306061  0.300721  0  0.939336  0
H  H42  1  0.36589256  0.05234020  0.47357790  1  0.434494  0  0.292961  0.286303  0  0.978036  0
H  H43  1  0.31136877  0.13223546  0.46881233  1  0.414224  0  0.302705  0.295522  0  0.946444  0
H  H44  1  0.63668096  0.06080174  0.52203875  1  0.441944  0  0.29322  0.285911  0  0.979081  0
H  H45  1  0.68644583  0.14380335  0.52527348  1  0.437517  0  0.306314  0.30073  0  0.939159  0
H  H46  1  0.63668917  0.54861118  0.19875956  1  0.430161  0  0.292904  0.286207  0  0.978356  0
H  H47  1  0.68976604  0.56031809  0.15467311  1  0.413855  0  0.305952  0.30037  0  0.940801  0
H  H48  1  0.36472467  0.45624958  0.19907955  1  0.45364  0  0.292836  0.285479  0  0.977986  0
H  H49  1  0.31348274  0.45026204  0.15545005  1  0.423223  0  0.30224  0.295056  0  0.946722  0
H  H50  1  0.63489060  0.45490950  0.26214594  1  0.4348  0  0.292761  0.285634  0  0.978246  0
H  H51  1  0.68645961  0.44754675  0.30558763  1  0.402569  0  0.302148  0.294938  0  0.946732  0
H  H52  1  0.36274648  0.54679625  0.26420827  1  0.446771  0  0.292782  0.285931  0  0.979245  0
H  H53  1  0.30982088  0.55705540  0.30849464  1  0.432088  0  0.305654  0.299784  0  0.940972  0
H  H54  1  0.94121632  0.38234600  0.99339242  1  0.442011  0  0.302044  0.295051  0  0.964448  0
H  H55  1  0.85209671  0.35117650  0.01428775  1  0.44542  0  0.317049  0.311737  0  0.925316  0
H  H56  1  0.94057620  0.61439598  0.91646275  1  0.459539  0  0.305078  0.299194  0  0.959741  0
H  H57  1  0.84948972  0.65062609  0.90235052  1  0.433558  0  0.318896  0.313213  0  0.92426  0
H  H58  1  0.06552849  0.45425149  0.02273241  1  0.429927  0  0.299699  0.291947  0  0.971552  0
H  H59  1  0.15257577  0.42984649  0.04606680  1  0.43779  0  0.315792  0.309784  0  0.927345  0
H  H60  1  0.08565504  0.53642887  0.88197128  1  0.437163  0  0.306745  0.300512  0  0.948278  0
H  H61  1  0.17950373  0.55937170  0.86227078  1  0.512435  0  0.302624  0.312571  0  0.967252  0
H  H62  1  0.63435038  0.94458685  0.93521212  1  0.432497  0  0.292779  0.285854  0  0.979081  0
H  H63  1  0.68923455  0.86469654  0.92932387  1  0.423801  0  0.302462  0.295015  0  0.946837  0
H  H64  1  0.35862229  0.93537149  0.98321966  1  0.443274  0  0.293785  0.286843  0  0.976143  0
H  H65  1  0.30838261  0.85239818  0.98552550  1  0.427121  0  0.306417  0.300857  0  0.939292  0
H  H66  1  0.63281041  0.05447903  0.98700281  1  0.450729  0  0.292599  0.285563  0  0.979476  0
H  H67  1  0.68768027  0.13411837  0.99231201  1  0.41975  0  0.30265  0.295024  0  0.946276  0
H  H68  1  0.36214899  0.06453137  0.93836950  1  0.438149  0  0.293389  0.285752  0  0.978349  0
H  H69  1  0.31292637  0.14782187  0.93553209  1  0.429139  0  0.306462  0.3008  0  0.940119  0
H  H70  1  0.33227371  0.58858944  0.81956699  1  0.597454  0  0.329856  0.367318  0  0.897506  0
H  H71  1  0.66854938  0.58762604  0.64339176  1  0.607035  0  0.330009  0.36739  0  0.897033  0
C  C72  1  0.49593773  0.64328115  0.50608659  1  1.517146  0  0.211198  0.590091  0  4.159102  0
C  C73  1  0.48318144  0.49358456  0.58010024  1  1.604045  0  0.212455  0.586836  0  4.184219  0
C  C74  1  0.49385497  0.35050203  0.49661283  1  1.594001  0  0.213866  0.594433  0  4.152863  0
C  C75  1  0.49743662  0.50399867  0.42162198  1  1.573805  0  0.214469  0.594364  0  4.154021  0
C  C76  1  0.50447876  0.64595133  0.95516425  1  1.58584  0  0.212477  0.591713  0  4.157184  0
C  C77  1  0.51713815  0.49379465  0.88220873  1  1.582046  0  0.211527  0.585027  0  4.187414  0
C  C78  1  0.50629303  0.35342999  0.96601350  1  1.499477  0  0.213794  0.593229  0  4.153034  0
C  C79  1  0.50297802  0.50921189  0.04059803  1  1.594542  0  0.214254  0.594746  0  4.155819  0
C  C80  1  0.24414695  0.55029126  0.52328942  1  0.553576  0  0.022968  -0.075529  0  3.937367  0
C  C81  1  0.15928155  0.55185584  0.52670258  1  0.415299  0  0.1077  0.24166  0  4.120037  0
C  C82  1  0.11498763  0.49705651  0.50522476  1  0.175267  0  -0.019342  -0.072083  0  4.084165  0
C  C83  1  0.15803233  0.44399130  0.48084911  1  0.392934  0  0.105363  0.237294  0  4.115147  0
C  C84  1  0.24292448  0.44740769  0.47953673  1  0.616913  0  0.021952  -0.077324  0  3.940747  0
C  C85  1  0.02982824  0.49568674  0.50766221  1  -0.413191  0  -0.04936  -0.101946  0  4.176212  0
C  C86  1  0.95549955  0.49440748  0.50949081  1  -0.143427  0  -0.045622  -0.09208  0  4.174327  0
C  C87  1  0.87040114  0.49308376  0.50875641  1  0.197914  0  -0.021016  -0.079859  0  4.083552  0
C  C88  1  0.82204338  0.52107741  0.54163973  1  0.427466  0  0.111207  0.247068  0  4.108806  0
C  C89  1  0.73741187  0.52079716  0.53753360  1  0.58872  0  0.022425  -0.067262  0  3.92438  0
C  C90  1  0.74681852  0.46569346  0.47356020  1  0.496236  0  0.017449  -0.082859  0  3.950829  0
C  C91  1  0.83162388  0.46415013  0.47418493  1  0.460362  0  0.104544  0.240022  0  4.116824  0
C  C92  1  0.49747879  0.72734279  0.50574521  1  0.051709  0  -0.021916  0.012343  0  4.038762  0
C  C93  1  0.57102102  0.76405423  0.49781153  1  0.05248  0  -0.122005  -0.26559  0  3.994585  0
C  C94  1  0.57352575  0.84217163  0.49579741  1  0.347671  0  0.094049  0.275895  0  4.106408  0
C  C95  1  0.50090083  0.88392059  0.50244835  1  0.117952  0  -0.032891  -0.091688  0  4.081163  0
C  C96  1  0.42660026  0.84596805  0.51102464  1  0.393591  0  0.093039  0.274659  0  4.101888  0
C  C97  1  0.42566504  0.76775140  0.51236996  1  -0.035951  0  -0.12543  -0.269699  0  4.009148  0
C  C98  1  0.50192736  0.96251041  0.50035570  1  -0.315216  0  -0.058493  -0.111461  0  4.205092  0
C  C99  1  0.50122119  0.03119652  0.49870609  1  -0.137236  0  -0.058131  -0.108331  0  4.204073  0
C  C100  1  0.49962761  0.10982225  0.49736679  1  0.126298  0  -0.032699  -0.093161  0  4.08176  0
C  C101  1  0.57129310  0.15161250  0.50460618  1  0.354527  0  0.094059  0.276605  0  4.105727  0
C  C102  1  0.56836504  0.22975500  0.50355558  1  0.036502  0  -0.121621  -0.266343  0  3.995238  0
C  C103  1  0.49529820  0.26643033  0.49620747  1  -0.063016  0  -0.020828  0.014044  0  4.035664  0
C  C104  1  0.42439233  0.22601002  0.48914794  1  0.099611  0  -0.123492  -0.267363  0  4.005548  0
C  C105  1  0.42590959  0.14773998  0.48927325  1  0.303408  0  0.092778  0.27482  0  4.100688  0
C  C106  1  0.41534602  0.50473057  0.64935264  1  -0.042592  0  -0.070188  -0.126605  0  3.903136  0
C  C107  1  0.42012592  0.50994909  0.69152666  1  0.006708  0  -0.004962  0.072282  0  4.03481  0
C  C108  1  0.34892457  0.51389033  0.71684646  1  -0.01992  0  -0.06473  -0.110854  0  3.93358  0
C  C109  1  0.56176809  0.50272621  0.64321321  1  0.018243  0  -0.089682  -0.172114  0  3.970702  0
C  C110  1  0.57005424  0.51141319  0.68498602  1  -0.048378  0  -0.0086  0.044001  0  4.03337  0
C  C111  1  0.64766722  0.51598003  0.70433767  1  -0.01228  0  -0.021483  -0.116096  0  4.009529  0
C  C112  1  0.58496838  0.50475516  0.81307565  1  -0.047074  0  -0.069706  -0.125946  0  3.903356  0
C  C113  1  0.58022148  0.50980031  0.77092042  1  -0.049689  0  -0.005194  0.071611  0  4.035885  0
C  C114  1  0.65143636  0.51313434  0.74561130  1  -0.03333  0  -0.065139  -0.111313  0  3.933899  0
C  C115  1  0.43852363  0.50325403  0.81917339  1  -0.099997  0  -0.089777  -0.172721  0  3.970444  0
C  C116  1  0.43027859  0.51199959  0.77745757  1  -0.040005  0  -0.008758  0.043968  0  4.033761  0
C  C117  1  0.35268250  0.51701137  0.75812910  1  -0.038297  0  -0.021436  -0.116758  0  4.009262  0
C  C118  1  0.48582928  0.50012849  0.62542702  1  -0.026104  0  -0.011557  -0.003096  0  3.975721  0
C  C119  1  0.49779637  0.51234004  0.70986412  1  0.008613  0  0.007489  0.012573  0  3.906191  0
C  C120  1  0.51445284  0.50033313  0.83694884  1  0.064364  0  -0.011411  -0.001956  0  3.974807  0
C  C121  1  0.50256078  0.51246195  0.75259763  1  -0.015107  0  0.007791  0.013361  0  3.905814  0
C  C122  1  0.50262261  0.50890571  0.08584917  1  -0.102957  0  -0.020525  0.013418  0  4.037748  0
C  C123  1  0.43017810  0.49346366  0.10698462  1  0.003889  0  -0.123527  -0.265456  0  4.006769  0
C  C124  1  0.42872555  0.49053701  0.14905750  1  0.361956  0  0.091804  0.27271  0  4.105924  0
C  C125  1  0.50124835  0.50449079  0.17016725  1  0.198028  0  -0.032911  -0.092337  0  4.08227  0
C  C126  1  0.57447630  0.52094366  0.14835676  1  0.32527  0  0.094185  0.276179  0  4.099585  0
C  C127  1  0.57444078  0.52254912  0.10620084  1  0.098048  0  -0.121454  -0.265116  0  3.993414  0
C  C128  1  0.50031138  0.50253764  0.21255182  1  -0.264542  0  -0.059054  -0.110753  0  4.205687  0
C  C129  1  0.49926297  0.50175115  0.24958447  1  -0.285245  0  -0.058362  -0.110108  0  4.206753  0
C  C130  1  0.49842045  0.50198709  0.29197701  1  0.166792  0  -0.032962  -0.093449  0  4.083013  0
C  C131  1  0.42520615  0.51757026  0.31410341  1  0.34888  0  0.093387  0.276199  0  4.101095  0
C  C132  1  0.42549561  0.51800436  0.35626824  1  0.016059  0  -0.12146  -0.266217  0  3.994687  0
C  C133  1  0.49750610  0.50403366  0.37634164  1  -0.011874  0  -0.020465  0.01398  0  4.034961  0
C  C134  1  0.56985420  0.48915932  0.35489163  1  0.020414  0  -0.12351  -0.266009  0  4.00761  0
C  C135  1  0.57108561  0.48741255  0.31278751  1  0.382075  0  0.092406  0.274341  0  4.104476  0
C  C136  1  0.75639746  0.55274401  0.93899905  1  0.556294  0  0.022968  -0.073141  0  3.937128  0
C  C137  1  0.84126294  0.55433704  0.93561628  1  0.427883  0  0.107574  0.241794  0  4.118251  0
C  C138  1  0.88560251  0.49976333  0.95693792  1  0.171636  0  -0.019022  -0.072169  0  4.084396  0
C  C139  1  0.84260902  0.44680955  0.98107574  1  0.490982  0  0.105912  0.238734  0  4.113389  0
C  C140  1  0.75771200  0.45018217  0.98236571  1  0.465563  0  0.022331  -0.074517  0  3.939844  0
C  C141  1  0.97076662  0.49842825  0.95459575  1  -0.167687  0  -0.049686  -0.102417  0  4.178636  0
C  C142  1  0.04510502  0.49694188  0.95304410  1  -0.391135  0  -0.045498  -0.092408  0  4.176923  0
C  C143  1  0.13020565  0.49571924  0.95384616  1  0.192251  0  -0.021249  -0.07914  0  4.084219  0
C  C144  1  0.17842734  0.52352177  0.92105074  1  0.478478  0  0.111234  0.245884  0  4.110554  0
C  C145  1  0.26305223  0.52343846  0.92513639  1  0.490977  0  0.022436  -0.066836  0  3.925343  0
C  C146  1  0.25389401  0.46885876  0.98892034  1  0.491672  0  0.017161  -0.083555  0  3.950592  0
C  C147  1  0.16907911  0.46713364  0.98831054  1  0.46978  0  0.104795  0.240202  0  4.116423  0
C  C148  1  0.50251984  0.73002078  0.95521424  1  -0.080293  0  -0.022875  0.010535  0  4.041553  0
C  C149  1  0.42871225  0.76656063  0.96302712  1  0.019051  0  -0.121201  -0.264293  0  3.994068  0
C  C150  1  0.42572680  0.84473907  0.96488105  1  0.339306  0  0.093429  0.275201  0  4.103514  0
C  C151  1  0.49808626  0.88667534  0.95811339  1  0.215701  0  -0.032677  -0.090674  0  4.078809  0
C  C152  1  0.57260132  0.84886975  0.94955321  1  0.313672  0  0.092517  0.272998  0  4.103055  0
C  C153  1  0.57407387  0.77061148  0.94846857  1  0.117783  0  -0.124973  -0.268794  0  4.008914  0
C  C154  1  0.49668960  0.96532820  0.96017297  1  -0.219569  0  -0.058615  -0.111499  0  4.203259  0
C  C155  1  0.49734646  0.03405949  0.96187809  1  -0.330237  0  -0.058311  -0.109242  0  4.202836  0
C  C156  1  0.49933000  0.11272413  0.96356135  1  0.118799  0  -0.032513  -0.092216  0  4.079492  0
C  C157  1  0.42800036  0.15497075  0.95643937  1  0.364567  0  0.093754  0.27646  0  4.104855  0
C  C158  1  0.43135009  0.23309771  0.95800904  1  0.005195  0  -0.121716  -0.266537  0  3.995262  0
C  C159  1  0.50452850  0.26935689  0.96578396  1  0.067047  0  -0.020485  0.0152  0  4.03636  0
C  C160  1  0.57514987  0.22851353  0.97264326  1  -0.026618  0  -0.123719  -0.268404  0  4.006333  0
C  C161  1  0.57321234  0.15024071  0.97196981  1  0.388638  0  0.093002  0.274637  0  4.098748  0
C  C162  1  0.27395154  0.52858699  0.78073366  1  1.491066  0  0.228584  0.576938  0  4.1045  0
C  C163  1  0.72643242  0.52682335  0.68173716  1  1.489161  0  0.229518  0.57735  0  4.101713  0
N  N164  1  0.28323087  0.49910300  0.50049592  1  -1.226142  0  -0.320848  -0.147105  0  3.641804  0
N  N165  1  0.70258670  0.49403008  0.50445002  1  -1.255504  0  -0.321402  -0.149889  0  3.647783  0
N  N166  1  0.71736041  0.50171623  0.96160429  1  -1.2277  0  -0.320993  -0.147232  0  3.639621  0
N  N167  1  0.29797042  0.49698096  0.95810004  1  -1.252732  0  -0.322189  -0.149836  0  3.647347  0
N  N168  1  0.11634291  0.39251017  0.45816006  1  -1.243997  0  -0.58957  -0.609578  0  3.320864  0
N  N169  1  0.11949157  0.60296789  0.55117517  1  -1.258304  0  -0.586511  -0.606466  0  3.332872  0
N  N170  1  0.87687468  0.43358007  0.44268013  1  -1.252114  0  -0.590626  -0.609927  0  3.325141  0
N  N171  1  0.85676085  0.54978359  0.57544439  1  -1.229447  0  -0.584251  -0.600363  0  3.329364  0
N  N172  1  0.35603351  0.88777909  0.51614430  1  -1.210735  0  -0.6027  -0.622471  0  3.316456  0
N  N173  1  0.64583541  0.88015333  0.48869758  1  -1.202265  0  -0.601274  -0.623079  0  3.313734  0
N  N174  1  0.35623469  0.10573184  0.48343654  1  -1.226414  0  -0.602898  -0.624125  0  3.314678  0
N  N175  1  0.64316871  0.11373282  0.51126299  1  -1.23949  0  -0.601931  -0.623455  0  3.313342  0
N  N176  1  0.64503272  0.53204552  0.16955352  1  -1.191504  0  -0.602897  -0.625198  0  3.31252  0
N  N177  1  0.35728307  0.47696309  0.17089899  1  -1.237518  0  -0.603217  -0.623376  0  3.313894  0
N  N178  1  0.64243427  0.47464214  0.29063888  1  -1.202549  0  -0.603435  -0.623981  0  3.314201  0
N  N179  1  0.35453401  0.52925398  0.29315302  1  -1.237449  0  -0.602241  -0.62395  0  3.313185  0
N  N180  1  0.88429817  0.39540585  0.00352660  1  -1.233302  0  -0.590101  -0.61106  0  3.32071  0
N  N181  1  0.88100477  0.60529036  0.91133821  1  -1.240132  0  -0.586031  -0.605388  0  3.330863  0
N  N182  1  0.12391389  0.43660626  0.01966509  1  -1.214057  0  -0.590147  -0.608625  0  3.325125  0
N  N183  1  0.14360009  0.55177631  0.88732351  1  -1.264103  0  -0.584022  -0.599471  0  3.327408  0
N  N184  1  0.64290096  0.89088170  0.94427919  1  -1.226556  0  -0.602728  -0.622103  0  3.317011  0
N  N185  1  0.35321409  0.88260280  0.97191243  1  -1.222775  0  -0.601627  -0.623689  0  3.311432  0
N  N186  1  0.64267601  0.10787344  0.97752122  1  -1.230408  0  -0.602599  -0.622571  0  3.314637  0
N  N187  1  0.35594983  0.11751295  0.94942482  1  -1.227158  0  -0.602054  -0.623332  0  3.314406  0
O  O188  1  0.56414566  0.61010970  0.50232256  1  -1.170092  0  -0.320408  -0.545555  0  2.333324  0
O  O189  1  0.42707925  0.61115617  0.50978542  1  -1.178385  0  -0.320861  -0.554847  0  2.323046  0
O  O190  1  0.41423688  0.48841057  0.56424819  1  -1.167  0  -0.314111  -0.537223  0  2.284371  0
O  O191  1  0.55179921  0.49490789  0.56176847  1  -1.176441  0  -0.314941  -0.550903  0  2.350463  0
O  O192  1  0.42508321  0.38306164  0.49504729  1  -1.170511  0  -0.321427  -0.553817  0  2.312445  0
O  O193  1  0.56220785  0.38318186  0.49886478  1  -1.164019  0  -0.32033  -0.546798  0  2.339971  0
O  O194  1  0.56595877  0.49784747  0.43829210  1  -1.163735  0  -0.320869  -0.550202  0  2.32299  0
O  O195  1  0.42891468  0.50973052  0.44000220  1  -1.16773  0  -0.321143  -0.549339  0  2.321842  0
O  O196  1  0.43621246  0.61273241  0.95800966  1  -1.164411  0  -0.321072  -0.54715  0  2.335738  0
O  O197  1  0.57358751  0.61391998  0.95265672  1  -1.16596  0  -0.320905  -0.554508  0  2.319457  0
O  O198  1  0.58617668  0.49029361  0.89807352  1  -1.152465  0  -0.313671  -0.536774  0  2.288825  0
O  O199  1  0.44849317  0.49355628  0.90051239  1  -1.176027  0  -0.314877  -0.549728  0  2.348635  0
O  O200  1  0.57525266  0.38577762  0.96696511  1  -1.166795  0  -0.321254  -0.553113  0  2.309085  0
O  O201  1  0.43788786  0.38629100  0.96484885  1  -1.162591  0  -0.320447  -0.546297  0  2.341739  0
O  O202  1  0.43439431  0.50487914  0.02381042  1  -1.169312  0  -0.320817  -0.549977  0  2.32533  0
O  O203  1  0.57174749  0.51315180  0.02233314  1  -1.168834  0  -0.321069  -0.549368  0  2.319815  0
O  O204  1  0.27642885  0.57247608  0.81504709  1  -1.106976  0  -0.340779  -0.491801  0  2.235681  0
O  O205  1  0.20871858  0.50504553  0.77004452  1  -1.113747  0  -0.289312  -0.455106  0  2.035153  0
O  O206  1  0.72424708  0.57093388  0.64772680  1  -1.118871  0  -0.341313  -0.492552  0  2.234617  0
O  O207  1  0.79146341  0.50255886  0.69214433  1  -1.116544  0  -0.289302  -0.454696  0  2.033288  0
