# generated using pymatgen
data_AlH5C8SNO6
_symmetry_space_group_name_H-M   'P 1'
_cell_length_a   6.72090535
_cell_length_b   11.21458042
_cell_length_c   12.87205198
_cell_angle_alpha   74.99257093
_cell_angle_beta   72.49878737
_cell_angle_gamma   71.65834039
_symmetry_Int_Tables_number   1
_chemical_formula_structural   AlH5C8SNO6
_chemical_formula_sum   'Al2 H10 C16 S2 N2 O12'
_cell_volume   863.68850619
_cell_formula_units_Z   2
loop_
 _symmetry_equiv_pos_site_id
 _symmetry_equiv_pos_as_xyz
  1  'x, y, z'
loop_
 _atom_site_type_symbol
 _atom_site_label
 _atom_site_symmetry_multiplicity
 _atom_site_fract_x
 _atom_site_fract_y
 _atom_site_fract_z
 _atom_site_occupancy
 _atom_site_pbe_bader_charge
 _atom_site_pbe_bader_spin_density
 _atom_site_pbe_cm5_charge
 _atom_site_pbe_ddec_charge
 _atom_site_pbe_ddec_spin_density
 _atom_site_pbe_ddec_sum_bond_order
 _atom_site_pbe_magmom
Al  Al0  1  0.50057875  0.49941137  0.50000843  1  2.508299  0  0.400929  1.649912  0  2.578151  0
Al  Al1  1  0.00050935  0.49965870  0.49980194  1  2.504135  0  0.398496  1.653261  0  2.560646  0
H  H2  1  0.24393097  0.63410169  0.38823375  1  0.621319  0  0.357822  0.437585  0  0.840316  0
H  H3  1  0.75421305  0.36876570  0.61483448  1  0.620737  0  0.356786  0.437586  0  0.840884  0
H  H4  1  0.74539386  0.10900469  0.52710760  1  0.144361  0  0.111775  0.139155  0  1.020795  0
H  H5  1  0.25472911  0.89046483  0.47287498  1  0.139304  0  0.111351  0.138109  0  1.022346  0
H  H6  1  0.92262702  0.77633349  0.53532562  1  0.637042  0  0.312637  0.351853  0  0.974239  0
H  H7  1  0.07722951  0.22309780  0.46503841  1  0.64206  0  0.312839  0.352402  0  0.972998  0
H  H8  1  0.47435635  0.57534311  0.87141184  1  0.457726  0  0.287718  0.274655  0  1.014702  0
H  H9  1  0.45428944  0.55881543  0.74456856  1  0.487601  0  0.312318  0.322218  0  0.955892  0
H  H10  1  0.52448023  0.42582624  0.12834645  1  0.455857  0  0.288617  0.27659  0  1.015262  0
H  H11  1  0.54503325  0.44210197  0.25520976  1  0.51134  0  0.312608  0.323778  0  0.954122  0
C  C12  1  0.85265877  0.51111837  0.30171329  1  1.511474  0  0.244474  0.650863  0  4.149711  0
C  C13  1  0.63486218  0.72877965  0.50039939  1  1.509565  0  0.264145  0.651813  0  4.064907  0
C  C14  1  0.14796660  0.48833288  0.69817267  1  1.506457  0  0.243921  0.650136  0  4.148647  0
C  C15  1  0.36571284  0.27063910  0.49933146  1  1.525046  0  0.262753  0.648902  0  4.065953  0
C  C16  1  0.56702738  0.86730003  0.50128881  1  0.014759  0  -0.030421  -0.170643  0  4.001201  0
C  C17  1  0.43328612  0.13208609  0.49862310  1  0.024582  0  -0.030128  -0.170299  0  4.00193  0
C  C18  1  0.70605488  0.93003258  0.51848213  1  0.558534  0  0.083114  0.289876  0  4.06134  0
C  C19  1  0.29409928  0.06937505  0.48156311  1  0.561107  0  0.083865  0.291811  0  4.059473  0
C  C20  1  0.63670819  0.06139194  0.51626119  1  -0.064831  0  -0.095673  -0.188676  0  3.940751  0
C  C21  1  0.36350306  0.93800545  0.48371325  1  -0.056639  0  -0.09564  -0.188253  0  3.940306  0
C  C22  1  0.20007241  0.53034632  0.87122024  1  0.543847  0  0.113582  0.292475  0  4.109197  0
C  C23  1  0.79907171  0.47063138  0.12843254  1  0.58666  0  0.113058  0.292289  0  4.110322  0
C  C24  1  0.08527977  0.49346363  0.81461271  1  -0.09717  0  -0.047061  -0.269954  0  3.941642  0
C  C25  1  0.91435346  0.50707523  0.18507384  1  -0.099797  0  -0.047064  -0.270925  0  3.940958  0
C  C26  1  0.90622191  0.47939300  0.01367593  1  -0.207939  0  -0.02727  -0.104441  0  4.076384  0
C  C27  1  0.09269917  0.52177822  0.98591596  1  -0.099381  0  -0.028256  -0.106437  0  4.078368  0
S  S28  1  0.85429440  0.44865946  0.90121982  1  0.193566  0  0.063336  0.102543  0  2.844636  0
S  S29  1  0.14503063  0.55218462  0.09837541  1  0.196046  0  0.063227  0.103113  0  2.844518  0
N  N30  1  0.38125567  0.57158217  0.82391698  1  -1.258564  0  -0.578579  -0.573869  0  3.364043  0
N  N31  1  0.61771234  0.42957434  0.17576456  1  -1.28345  0  -0.57892  -0.576682  0  3.364076  0
O  O32  1  0.66400831  0.49391233  0.35327915  1  -1.271666  0  -0.241916  -0.609286  0  2.371154  0
O  O33  1  0.82635695  0.66864472  0.51539682  1  -1.261628  0  -0.240771  -0.616294  0  2.400595  0
O  O34  1  0.01907621  0.46791754  0.65251498  1  -1.269183  0  -0.255263  -0.614452  0  2.307603  0
O  O35  1  0.49184264  0.32437441  0.51511728  1  -1.257456  0  -0.229821  -0.576535  0  2.332854  0
O  O36  1  0.33722665  0.50478782  0.64685984  1  -1.273209  0  -0.24308  -0.611181  0  2.370434  0
O  O37  1  0.17451436  0.33092523  0.48406627  1  -1.270639  0  -0.239501  -0.613521  0  2.398958  0
O  O38  1  0.98189269  0.53127609  0.34729297  1  -1.270273  0  -0.255353  -0.613731  0  2.308097  0
O  O39  1  0.50877476  0.67488134  0.48472692  1  -1.259528  0  -0.231635  -0.579827  0  2.331523  0
O  O40  1  0.24625769  0.56224941  0.44921419  1  -1.426714  0  -0.449619  -0.997951  0  2.185803  0
O  O41  1  0.75487021  0.43691507  0.55072907  1  -1.427196  0  -0.448629  -0.998262  0  2.185865  0
O  O42  1  0.90400200  0.86756322  0.53733493  1  -1.150436  0  -0.352513  -0.439536  0  2.29541  0
O  O43  1  0.09601076  0.13185611  0.46294230  1  -1.155727  0  -0.352259  -0.440172  0  2.294884  0
