# generated using pymatgen
data_ZnH15C16NClO5
_symmetry_space_group_name_H-M   'P 1'
_cell_length_a   5.66104418
_cell_length_b   10.32437269
_cell_length_c   14.17327422
_cell_angle_alpha   96.97445168
_cell_angle_beta   99.76183288
_cell_angle_gamma   101.78182709
_symmetry_Int_Tables_number   1
_chemical_formula_structural   ZnH15C16NClO5
_chemical_formula_sum   'Zn2 H30 C32 N2 Cl2 O10'
_cell_volume   788.66442296
_cell_formula_units_Z   2
loop_
 _symmetry_equiv_pos_site_id
 _symmetry_equiv_pos_as_xyz
  1  'x, y, z'
loop_
 _atom_site_type_symbol
 _atom_site_label
 _atom_site_symmetry_multiplicity
 _atom_site_fract_x
 _atom_site_fract_y
 _atom_site_fract_z
 _atom_site_occupancy
 _atom_site_hle17_bader_spin_density
 _atom_site_hle17_ddec_charge
 _atom_site_hle17_ddec_spin_density
 _atom_site_hle17_ddec_sum_bond_order
 _atom_site_hle17_magmom
 _atom_site_hse06_10hf_bader_spin_density
 _atom_site_hse06_10hf_ddec_charge
 _atom_site_hse06_10hf_ddec_spin_density
 _atom_site_hse06_10hf_ddec_sum_bond_order
 _atom_site_hse06_10hf_magmom
 _atom_site_hse06_bader_spin_density
 _atom_site_hse06_ddec_charge
 _atom_site_hse06_ddec_spin_density
 _atom_site_hse06_ddec_sum_bond_order
 _atom_site_hse06_magmom
 _atom_site_pbe_bader_spin_density
 _atom_site_pbe_cm5_charge
 _atom_site_pbe_ddec_charge
 _atom_site_pbe_ddec_spin_density
 _atom_site_pbe_ddec_sum_bond_order
 _atom_site_pbe_magmom
Zn  Zn0  1  0.18495862  0.65924695  0.34969103  1  0  1.079568  0  1.791442  0  0  0.89577  0  2.270229  0  0  0.944929  0  2.209174  0  0  0.684937  0.857719  0  2.315264  0
Zn  Zn1  1  0.81502934  0.34075959  0.65031322  1  0  1.079518  0  1.791506  0  0  0.895702  0  2.270275  0  0  0.944858  0  2.209221  0  0  0.684912  0.857642  0  2.315303  0
H  H2  1  0.71968127  0.73412816  0.26258965  1  0  0.104221  0  0.927892  0  0  0.110893  0  0.991181  0  0  0.114267  0  0.987353  0  0  0.126762  0.108188  0  0.994201  0
H  H3  1  0.28028771  0.26587985  0.73741263  1  0  0.104265  0  0.927917  0  0  0.110959  0  0.991188  0  0  0.11434  0  0.987355  0  0  0.126768  0.108288  0  0.99417  0
H  H4  1  0.41726064  0.67344682  0.10839932  1  0  0.096538  0  1.000407  0  0  0.102401  0  1.070708  0  0  0.105955  0  1.069299  0  0  0.098129  0.099829  0  1.071802  0
H  H5  1  0.58272062  0.32656396  0.89160058  1  0  0.09663  0  1.000079  0  0  0.102463  0  1.070426  0  0  0.106036  0  1.068998  0  0  0.098196  0.099893  0  1.071517  0
H  H6  1  0.81366886  0.37735884  0.01883752  1  0  0.093334  0  1.010395  0  0  0.099223  0  1.080937  0  0  0.102085  0  1.080842  0  0  0.096931  0.097058  0  1.081315  0
H  H7  1  0.18633549  0.62265542  0.98116862  1  0  0.093359  0  1.010243  0  0  0.099125  0  1.080936  0  0  0.101994  0  1.080833  0  0  0.096888  0.096974  0  1.081301  0
H  H8  1  0.09433939  0.44722696  0.17845439  1  0  0.084882  0  0.95566  0  0  0.090654  0  1.023307  0  0  0.092336  0  1.023618  0  0  0.116084  0.089306  0  1.02318  0
H  H9  1  0.90565237  0.55279065  0.82154901  1  0  0.084834  0  0.955626  0  0  0.090563  0  1.023321  0  0  0.092244  0  1.023633  0  0  0.116013  0.089215  0  1.023193  0
H  H10  1  0.15308681  0.17375487  0.38599760  1  0  0.064908  0  0.927918  0  0  0.077936  0  0.986587  0  0  0.079611  0  0.98571  0  0  0.102041  0.076621  0  0.987589  0
H  H11  1  0.84689983  0.82622643  0.61399233  1  0  0.064863  0  0.92797  0  0  0.077898  0  0.986665  0  0  0.07959  0  0.985756  0  0  0.101994  0.076581  0  0.987671  0
H  H12  1  0.52445296  0.27131750  0.19624288  1  0  0.09201  0  0.961384  0  0  0.104044  0  1.021913  0  0  0.105996  0  1.022532  0  0  0.09898  0.102667  0  1.02156  0
H  H13  1  0.47557062  0.72869224  0.80376569  1  0  0.092082  0  0.961367  0  0  0.104119  0  1.021903  0  0  0.106067  0  1.022529  0  0  0.099044  0.102739  0  1.021551  0
H  H14  1  0.33106798  0.24710428  0.02323037  1  0  0.093649  0  0.985417  0  0  0.103575  0  1.051125  0  0  0.105909  0  1.050918  0  0  0.093186  0.102029  0  1.051132  0
H  H15  1  0.66898692  0.75291790  0.97678091  1  0  0.093654  0  0.985394  0  0  0.103567  0  1.051157  0  0  0.105894  0  1.05097  0  0  0.09314  0.102036  0  1.051114  0
H  H16  1  0.63561250  0.05290892  0.08276929  1  0  0.09848  0  0.971892  0  0  0.105018  0  1.042211  0  0  0.108305  0  1.040307  0  0  0.094089  0.102697  0  1.043502  0
H  H17  1  0.36442949  0.94708534  0.91721316  1  0  0.098423  0  0.972197  0  0  0.105011  0  1.04244  0  0  0.108284  0  1.040566  0  0  0.094096  0.102691  0  1.043725  0
H  H18  1  0.83623766  0.06817958  0.25490361  1  0  0.102899  0  0.9737  0  0  0.113967  0  1.03305  0  0  0.117066  0  1.031077  0  0  0.104531  0.111709  0  1.034486  0
H  H19  1  0.16377449  0.93180926  0.74508252  1  0  0.102888  0  0.973718  0  0  0.113963  0  1.033068  0  0  0.11703  0  1.031136  0  0  0.104496  0.111702  0  1.034513  0
H  H20  1  0.63111474  0.34953584  0.35028918  1  0  0.11267  0  0.923222  0  0  0.127727  0  0.979817  0  0  0.130652  0  0.978331  0  0  0.098675  0.125793  0  0.980979  0
H  H21  1  0.36888828  0.65046928  0.64972593  1  0  0.112673  0  0.92334  0  0  0.127787  0  0.979896  0  0  0.130714  0  0.978406  0  0  0.098709  0.125852  0  0.981058  0
H  H22  1  0.57593092  0.07067950  0.31822041  1  0  0.098889  0  0.958225  0  0  0.113989  0  1.018418  0  0  0.116409  0  1.017015  0  0  0.094365  0.11243  0  1.019558  0
H  H23  1  0.42407188  0.92931660  0.68177626  1  0  0.098976  0  0.958321  0  0  0.11404  0  1.018532  0  0  0.116464  0  1.017128  0  0  0.094381  0.112482  0  1.019671  0
H  H24  1  0.55712626  0.32681675  0.46324671  1  0  0.109358  0  0.952174  0  0  0.123631  0  1.016534  0  0  0.125796  0  1.01526  0  0  0.102416  0.122414  0  1.017772  0
H  H25  1  0.44282759  0.67316923  0.53676803  1  0  0.109503  0  0.952227  0  0  0.123794  0  1.016559  0  0  0.125956  0  1.015295  0  0  0.102537  0.122579  0  1.017795  0
H  H26  1  0.54929014  0.09981468  0.43972267  1  0  0.1178  0  0.924821  0  0  0.136101  0  0.978949  0  0  0.137737  0  0.979101  0  0  0.106996  0.134987  0  0.979211  0
H  H27  1  0.45073296  0.90019312  0.56027300  1  0  0.117811  0  0.924765  0  0  0.136143  0  0.978844  0  0  0.137791  0  0.978984  0  0  0.107014  0.135033  0  0.979108  0
H  H28  1  0.94248378  0.66143213  0.50209346  1  0  0.452875  0  0.843459  0  0  0.417954  0  0.91123  0  0  0.430226  0  0.893744  0  0  0.294725  0.409065  0  0.923865  0
H  H29  1  0.05746446  0.33854093  0.49789856  1  0  0.453037  0  0.843281  0  0  0.418083  0  0.911107  0  0  0.43036  0  0.893612  0  0  0.29471  0.409192  0  0.923746  0
H  H30  1  0.98119938  0.79701002  0.44427219  1  0  0.438449  0  0.843925  0  0  0.410857  0  0.904402  0  0  0.421783  0  0.888387  0  0  0.305627  0.402905  0  0.91605  0
H  H31  1  0.01873631  0.20296024  0.55572924  1  0  0.438459  0  0.843929  0  0  0.410824  0  0.904435  0  0  0.421747  0  0.88843  0  0  0.305562  0.402883  0  0.916062  0
C  C32  1  0.73173696  0.65427327  0.20692880  1  0  0.168661  0  3.653653  0  0  0.132089  0  3.911933  0  0  0.141437  0  3.926169  0  0  0.064011  0.125918  0  3.902218  0
C  C33  1  0.26823804  0.34573966  0.79307506  1  0  0.168381  0  3.654086  0  0  0.131751  0  3.912448  0  0  0.141089  0  3.92669  0  0  0.063936  0.125555  0  3.902718  0
C  C34  1  0.56309588  0.61929530  0.11938877  1  0  -0.150515  0  3.680052  0  0  -0.168536  0  3.928614  0  0  -0.176285  0  3.947923  0  0  -0.079193  -0.163632  0  3.915814  0
C  C35  1  0.43688555  0.38070840  0.88060770  1  0  -0.150492  0  3.679817  0  0  -0.168476  0  3.928494  0  0  -0.176234  0  3.947772  0  0  -0.079189  -0.163573  0  3.915699  0
C  C36  1  0.58616335  0.51893705  0.04758854  1  0  0.091248  0  3.740219  0  0  0.104142  0  3.966517  0  0  0.108425  0  3.987394  0  0  0.013709  0.10144  0  3.952451  0
C  C37  1  0.41382724  0.48107452  0.95241282  1  0  0.09112  0  3.740172  0  0  0.103906  0  3.966537  0  0  0.108182  0  3.987421  0  0  0.01351  0.101203  0  3.952472  0
C  C38  1  0.78224433  0.45632382  0.06993660  1  0  -0.151596  0  3.701767  0  0  -0.169017  0  3.946954  0  0  -0.177221  0  3.968905  0  0  -0.083029  -0.163901  0  3.932625  0
C  C39  1  0.21775136  0.54368358  0.93006477  1  0  -0.151542  0  3.701555  0  0  -0.168808  0  3.946756  0  0  -0.177012  0  3.968697  0  0  -0.082945  -0.163704  0  3.932422  0
C  C40  1  0.94173201  0.49500093  0.15933696  1  0  0.131308  0  3.698224  0  0  0.1018  0  3.948074  0  0  0.109003  0  3.96659  0  0  0.049126  0.097004  0  3.935656  0
C  C41  1  0.05824794  0.50501089  0.84066364  1  0  0.131152  0  3.697943  0  0  0.101685  0  3.947745  0  0  0.108889  0  3.966256  0  0  0.049119  0.096887  0  3.935328  0
C  C42  1  0.33691784  0.43697503  0.38530065  1  0  0.701713  0  3.839337  0  0  0.650782  0  4.143061  0  0  0.684145  0  4.137166  0  0  0.208663  0.62823  0  4.145856  0
C  C43  1  0.66305355  0.56301265  0.61470142  1  0  0.701494  0  3.839561  0  0  0.650648  0  4.14321  0  0  0.68401  0  4.137321  0  0  0.208597  0.628094  0  4.146  0
C  C44  1  0.47573728  0.32660978  0.38716348  1  0  -0.292102  0  3.642658  0  0  -0.33283  0  3.886441  0  0  -0.339468  0  3.894647  0  0  -0.163356  -0.328533  0  3.881367  0
C  C45  1  0.52424556  0.67338673  0.61284304  1  0  -0.292302  0  3.64281  0  0  -0.333083  0  3.886544  0  0  -0.339726  0  3.894752  0  0  -0.163522  -0.328785  0  3.881472  0
C  C46  1  0.27374607  0.93803925  0.35566221  1  0  0.701038  0  3.851296  0  0  0.652148  0  4.157807  0  0  0.685165  0  4.152302  0  0  0.201455  0.629583  0  4.160602  0
C  C47  1  0.72624990  0.06195491  0.64434648  1  0  0.701438  0  3.851061  0  0  0.652589  0  4.157513  0  0  0.685606  0  4.152005  0  0  0.201758  0.630025  0  4.160311  0
C  C48  1  0.44143462  0.07624805  0.36484623  1  0  -0.280287  0  3.62627  0  0  -0.320899  0  3.870943  0  0  -0.327303  0  3.879482  0  0  -0.16136  -0.316615  0  3.865752  0
C  C49  1  0.55857890  0.92374473  0.63515587  1  0  -0.280577  0  3.626522  0  0  -0.321167  0  3.871182  0  0  -0.327582  0  3.879716  0  0  -0.161438  -0.316895  0  3.866009  0
C  C50  1  0.30482769  0.18764771  0.34623191  1  0  0.034308  0  3.642189  0  0  0.026353  0  3.873924  0  0  0.026558  0  3.890423  0  0  -0.080167  0.026176  0  3.863626  0
C  C51  1  0.69517082  0.81234342  0.65376470  1  0  0.03452  0  3.642158  0  0  0.026492  0  3.874013  0  0  0.0267  0  3.890517  0  0  -0.080111  0.026319  0  3.863715  0
C  C52  1  0.19108122  0.17533312  0.23967412  1  0  0.063075  0  3.696903  0  0  0.079368  0  3.933734  0  0  0.078806  0  3.958509  0  0  -0.008619  0.079642  0  3.917107  0
C  C53  1  0.80894903  0.82466031  0.76032222  1  0  0.06316  0  3.696652  0  0  0.079512  0  3.933443  0  0  0.078951  0  3.958209  0  0  -0.008552  0.07979  0  3.916807  0
C  C54  1  0.32915706  0.22350981  0.17269984  1  0  -0.102897  0  3.735647  0  0  -0.121175  0  3.985255  0  0  -0.123526  0  4.00688  0  0  -0.093236  -0.119624  0  3.970636  0
C  C55  1  0.67086525  0.77649695  0.82730273  1  0  -0.103172  0  3.735193  0  0  -0.121481  0  3.984856  0  0  -0.123833  0  4.006481  0  0  -0.093377  -0.119929  0  3.970238  0
C  C56  1  0.22178773  0.21144475  0.07493012  1  0  -0.149468  0  3.793641  0  0  -0.172284  0  4.048558  0  0  -0.17469  0  4.069374  0  0  -0.110443  -0.170459  0  4.034248  0
C  C57  1  0.77827499  0.78857119  0.92507694  1  0  -0.14913  0  3.793629  0  0  -0.17193  0  4.048474  0  0  -0.17433  0  4.069278  0  0  -0.110121  -0.1701  0  4.034175  0
C  C58  1  0.97131673  0.15260077  0.04341924  1  0  0.116033  0  3.824006  0  0  0.127103  0  4.088137  0  0  0.129739  0  4.110002  0  0  0.001048  0.125196  0  4.073479  0
C  C59  1  0.02874242  0.84741029  0.95657020  1  0  0.115701  0  3.824511  0  0  0.126727  0  4.08868  0  0  0.129362  0  4.110542  0  0  0.000656  0.12482  0  4.074026  0
C  C60  1  0.83011008  0.10113293  0.10767617  1  0  -0.139934  0  3.791822  0  0  -0.161923  0  4.047168  0  0  -0.164421  0  4.067729  0  0  -0.104817  -0.160078  0  4.032952  0
C  C61  1  0.16993873  0.89888243  0.89231077  1  0  -0.139688  0  3.792257  0  0  -0.161719  0  4.047601  0  0  -0.164209  0  4.068147  0  0  -0.104703  -0.159875  0  4.033387  0
C  C62  1  0.94245799  0.11199804  0.20471879  1  0  -0.096875  0  3.729647  0  0  -0.119728  0  3.982015  0  0  -0.121859  0  4.002684  0  0  -0.0884  -0.118153  0  3.967718  0
C  C63  1  0.05755969  0.88800183  0.79526730  1  0  -0.096917  0  3.729826  0  0  -0.119798  0  3.982194  0  0  -0.121906  0  4.002878  0  0  -0.088363  -0.118224  0  3.967894  0
N  N64  1  0.91871100  0.59313188  0.22665146  1  0  -0.338905  0  3.307459  0  0  -0.258473  0  3.591808  0  0  -0.277642  0  3.603512  0  0  -0.32566  -0.245448  0  3.58378  0
N  N65  1  0.08127827  0.40687670  0.77334531  1  0  -0.338534  0  3.307419  0  0  -0.258057  0  3.591686  0  0  -0.277228  0  3.603399  0  0  -0.325539  -0.245031  0  3.583658  0
Cl  Cl66  1  0.83500691  0.14395906  0.92213398  1  0  -0.085203  0  1.38679  0  0  -0.054705  0  1.618878  0  0  -0.059823  0  1.617352  0  0  0.024994  -0.050738  0  1.619595  0
Cl  Cl67  1  0.16506586  0.85606486  0.07785618  1  0  -0.085228  0  1.386816  0  0  -0.054679  0  1.618881  0  0  -0.059797  0  1.61735  0  0  0.025054  -0.050714  0  1.6196  0
O  O68  1  0.41155699  0.53621756  0.34181165  1  0  -0.65774  0  2.001001  0  0  -0.584087  0  2.270893  0  0  -0.613727  0  2.257492  0  0  -0.330126  -0.562304  0  2.280496  0
O  O69  1  0.58841247  0.46377416  0.65819981  1  0  -0.657632  0  2.000858  0  0  -0.584055  0  2.270758  0  0  -0.613695  0  2.257362  0  0  -0.330138  -0.562277  0  2.280376  0
O  O70  1  0.15248035  0.43187271  0.42510766  1  0  -0.629674  0  1.962126  0  0  -0.565694  0  2.184589  0  0  -0.591987  0  2.174948  0  0  -0.307521  -0.546444  0  2.189961  0
O  O71  1  0.84747780  0.56811327  0.57488905  1  0  -0.62947  0  1.962414  0  0  -0.565494  0  2.184804  0  0  -0.591789  0  2.175166  0  0  -0.30741  -0.546245  0  2.190177  0
O  O72  1  0.05868200  0.92714962  0.37069406  1  0  -0.633761  0  1.910615  0  0  -0.583814  0  2.128904  0  0  -0.607253  0  2.118822  0  0  -0.323191  -0.566817  0  2.135006  0
O  O73  1  0.94130208  0.07284088  0.62929508  1  0  -0.633833  0  1.910326  0  0  -0.583935  0  2.128626  0  0  -0.607379  0  2.118547  0  0  -0.323298  -0.566939  0  2.13472  0
O  O74  1  0.37504994  0.83829201  0.33620360  1  0  -0.677538  0  1.972662  0  0  -0.605927  0  2.24025  0  0  -0.635103  0  2.22437  0  0  -0.349022  -0.584311  0  2.251521  0
O  O75  1  0.62497867  0.16170739  0.66381995  1  0  -0.677811  0  1.972973  0  0  -0.60616  0  2.240481  0  0  -0.635335  0  2.224599  0  0  -0.349177  -0.584542  0  2.25175  0
O  O76  1  0.03951110  0.71722240  0.46116380  1  0  -0.861405  0  1.964292  0  0  -0.788413  0  2.197713  0  0  -0.812014  0  2.157004  0  0  -0.57331  -0.771539  0  2.226734  0
O  O77  1  0.96043515  0.28275376  0.53882693  1  0  -0.861623  0  1.964213  0  0  -0.788529  0  2.197711  0  0  -0.812123  0  2.156982  0  0  -0.573235  -0.771655  0  2.226726  0
