# generated using pymatgen
data_AlH5C15O5F2
_symmetry_space_group_name_H-M   'P 1'
_cell_length_a   6.67880698
_cell_length_b   20.34166320
_cell_length_c   22.99066907
_cell_angle_alpha   93.34050457
_cell_angle_beta   89.51654516
_cell_angle_gamma   88.85728638
_symmetry_Int_Tables_number   1
_chemical_formula_structural   AlH5C15O5F2
_chemical_formula_sum   'Al4 H20 C60 O20 F8'
_cell_volume   3117.39578412
_cell_formula_units_Z   4
loop_
 _symmetry_equiv_pos_site_id
 _symmetry_equiv_pos_as_xyz
  1  'x, y, z'
loop_
 _atom_site_type_symbol
 _atom_site_label
 _atom_site_symmetry_multiplicity
 _atom_site_fract_x
 _atom_site_fract_y
 _atom_site_fract_z
 _atom_site_occupancy
 _atom_site_pbe_bader_charge
 _atom_site_pbe_bader_spin_density
 _atom_site_pbe_cm5_charge
 _atom_site_pbe_ddec_charge
 _atom_site_pbe_ddec_spin_density
 _atom_site_pbe_ddec_sum_bond_order
 _atom_site_pbe_magmom
Al  Al0  1  0.21137541  0.24957612  0.24960562  1  2.500647  0  0.403531  1.648582  0  2.579865  0
Al  Al1  1  0.78861575  0.75042411  0.75039258  1  2.500695  0  0.403474  1.648548  0  2.579734  0
Al  Al2  1  0.71134794  0.25113774  0.25098947  1  2.502824  0  0.402607  1.651306  0  2.57358  0
Al  Al3  1  0.28864326  0.74886145  0.74900786  1  2.502942  0  0.402587  1.651207  0  2.573809  0
H  H4  1  0.30578271  0.45382795  0.04503453  1  0.072962  0  0.110586  0.112265  0  0.995285  0
H  H5  1  0.69423389  0.54617232  0.95496579  1  0.07266  0  0.110555  0.112147  0  0.995439  0
H  H6  1  0.80954299  0.04449554  0.45731868  1  0.047688  0  0.110614  0.111743  0  0.997471  0
H  H7  1  0.19045253  0.95551057  0.54267950  1  0.047785  0  0.110622  0.111773  0  0.997542  0
H  H8  1  0.33697472  0.53377801  0.96705796  1  0.07466  0  0.108916  0.110099  0  1.003372  0
H  H9  1  0.66305384  0.46622279  0.03294364  1  0.074929  0  0.108911  0.110174  0  1.003166  0
H  H10  1  0.83384632  0.96418904  0.53535236  1  0.067116  0  0.109181  0.110588  0  1.002374  0
H  H11  1  0.16615964  0.03581810  0.46464710  1  0.067002  0  0.109174  0.110593  0  1.002429  0
H  H12  1  0.25088502  0.41229921  0.35545420  1  0.148787  0  0.114412  0.127091  0  0.99768  0
H  H13  1  0.74910620  0.58769853  0.64454357  1  0.148785  0  0.114407  0.127055  0  0.997786  0
H  H14  1  0.19672409  0.08146822  0.13868995  1  0.139195  0  0.113304  0.125138  0  0.996599  0
H  H15  1  0.80328367  0.91852491  0.86131344  1  0.139168  0  0.113297  0.12518  0  0.996663  0
H  H16  1  0.45860518  0.59090049  0.48475034  1  0.116376  0  0.114562  0.145274  0  0.984592  0
H  H17  1  0.54139201  0.40909737  0.51524958  1  0.116805  0  0.11457  0.14533  0  0.984648  0
H  H18  1  0.06365701  0.89667193  0.00659851  1  0.11238  0  0.115192  0.146091  0  0.983924  0
H  H19  1  0.93634171  0.10332448  0.99340185  1  0.112017  0  0.115156  0.145997  0  0.983925  0
H  H20  1  0.45523808  0.33480349  0.23912417  1  0.635827  0  0.359705  0.439179  0  0.839742  0
H  H21  1  0.54475010  0.66519542  0.76087622  1  0.63576  0  0.359711  0.439145  0  0.839612  0
H  H22  1  0.96297265  0.16397720  0.25337825  1  0.617417  0  0.361098  0.441367  0  0.835574  0
H  H23  1  0.03701550  0.83602279  0.74662344  1  0.617692  0  0.361097  0.441371  0  0.835586  0
C  C24  1  0.47172333  0.16987429  0.16842983  1  1.602468  0  0.270599  0.665118  0  4.093837  0
C  C25  1  0.52827832  0.83012546  0.83156921  1  1.602527  0  0.270552  0.665016  0  4.093803  0
C  C26  1  0.95538564  0.33099416  0.33171660  1  1.601558  0  0.271879  0.66504  0  4.088581  0
C  C27  1  0.04460252  0.66900648  0.66828029  1  1.601632  0  0.27161  0.664557  0  4.089102  0
C  C28  1  0.46323662  0.17370827  0.32676945  1  1.67893  0  0.275677  0.717919  0  4.160854  0
C  C29  1  0.53675753  0.82629154  0.67323005  1  1.679824  0  0.275802  0.717994  0  4.161123  0
C  C30  1  0.95947234  0.32718214  0.17357662  1  1.674915  0  0.275675  0.719187  0  4.159789  0
C  C31  1  0.04052326  0.67282012  0.82642287  1  1.674754  0  0.275692  0.719128  0  4.159713  0
C  C32  1  0.19027683  0.51870338  0.98173878  1  -0.058121  0  -0.073822  -0.113318  0  3.947201  0
C  C33  1  0.80974717  0.48130033  0.01826196  1  -0.058762  0  -0.073767  -0.113237  0  3.947116  0
C  C34  1  0.68849531  0.98017604  0.51960730  1  0.005782  0  -0.074257  -0.113881  0  3.947592  0
C  C35  1  0.31150913  0.01983171  0.48039391  1  0.005398  0  -0.07415  -0.113884  0  3.947932  0
C  C36  1  0.01735486  0.54500423  0.95600270  1  0.126544  0  0.008542  0.134593  0  4.098239  0
C  C37  1  0.98266459  0.45500118  0.04400110  1  0.126677  0  0.008542  0.134374  0  4.098585  0
C  C38  1  0.51361428  0.95477965  0.54401598  1  0.110243  0  0.00843  0.133884  0  4.09982  0
C  C39  1  0.48639165  0.04522769  0.45598654  1  0.11092  0  0.008417  0.133942  0  4.100111  0
C  C40  1  0.82696613  0.52558876  0.97498904  1  -0.01761  0  -0.073155  -0.113063  0  3.945543  0
C  C41  1  0.17305793  0.47441206  0.02501258  1  -0.018055  0  -0.073069  -0.112947  0  3.945463  0
C  C42  1  0.32485085  0.97531300  0.52367615  1  -0.032444  0  -0.073058  -0.112198  0  3.944513  0
C  C43  1  0.67514763  0.02469284  0.47632552  1  -0.032881  0  -0.073006  -0.112145  0  3.944353  0
C  C44  1  0.03254731  0.58992253  0.91154192  1  -0.426942  0  -0.022372  -0.037306  0  4.088056  0
C  C45  1  0.96747216  0.41008187  0.08846145  1  -0.42661  0  -0.02243  -0.037177  0  4.087894  0
C  C46  1  0.52608354  0.90967865  0.58847297  1  -0.391039  0  -0.021589  -0.036271  0  4.088993  0
C  C47  1  0.47392701  0.09032411  0.41152736  1  -0.391174  0  -0.021659  -0.036368  0  4.088847  0
C  C48  1  0.95997724  0.37162249  0.12706852  1  0.177755  0  -0.03465  -0.186788  0  3.949049  0
C  C49  1  0.04003178  0.62838094  0.87293443  1  0.178097  0  -0.034684  -0.186628  0  3.94898  0
C  C50  1  0.46650905  0.12899285  0.37305671  1  0.135145  0  -0.033847  -0.186357  0  3.949689  0
C  C51  1  0.53348351  0.87101136  0.62694235  1  0.135353  0  -0.033968  -0.186495  0  3.949842  0
C  C52  1  0.81238310  0.38799269  0.42540837  1  0.467602  0  0.11481  0.232448  0  3.984027  0
C  C53  1  0.18760353  0.61200903  0.57458983  1  0.467548  0  0.114802  0.2324  0  3.984016  0
C  C54  1  0.64032252  0.11794873  0.07683476  1  0.485349  0  0.115749  0.233004  0  3.978902  0
C  C55  1  0.35968069  0.88204896  0.92316298  1  0.485556  0  0.115735  0.232943  0  3.978899  0
C  C56  1  0.96344578  0.37985733  0.38283828  1  0.074851  0  -0.018152  -0.144113  0  3.984325  0
C  C57  1  0.03654390  0.62014239  0.61715949  1  0.074322  0  -0.018176  -0.144026  0  3.984448  0
C  C58  1  0.47952177  0.12191187  0.11654498  1  -0.000483  0  -0.019114  -0.143602  0  3.988258  0
C  C59  1  0.52048145  0.87808447  0.88345450  1  -0.000335  0  -0.019127  -0.143551  0  3.988398  0
C  C60  1  0.13174721  0.41984888  0.38784336  1  -0.0473  0  -0.075107  -0.10275  0  3.944727  0
C  C61  1  0.86824250  0.58014942  0.61215528  1  -0.047482  0  -0.075044  -0.102678  0  3.944935  0
C  C62  1  0.32328974  0.07742463  0.10848740  1  0.033737  0  -0.076475  -0.106871  0  3.946597  0
C  C63  1  0.67672103  0.92256795  0.89151512  1  0.033265  0  -0.076496  -0.106985  0  3.946704  0
C  C64  1  0.14681676  0.46840943  0.43304370  1  0.051623  0  -0.018683  -0.043875  0  4.076454  0
C  C65  1  0.85317744  0.53158885  0.56695493  1  0.052194  0  -0.018655  -0.043908  0  4.076647  0
C  C66  1  0.33043882  0.02828644  0.06334024  1  -0.003155  0  -0.01813  -0.039926  0  4.069066  0
C  C67  1  0.66957640  0.97170768  0.93666358  1  -0.002768  0  -0.018238  -0.04012  0  4.069171  0
C  C68  1  0.99275701  0.47580962  0.47657312  1  0.022148  0  0.005515  0.029677  0  3.934619  0
C  C69  1  0.00723567  0.52418919  0.52342595  1  -0.037896  0  0.005444  0.029622  0  3.934691  0
C  C70  1  0.49546529  0.02465027  0.02320518  1  -0.02121  0  0.005683  0.027442  0  3.937546  0
C  C71  1  0.50454547  0.97534369  0.97679604  1  0.040738  0  0.005808  0.027729  0  3.937421  0
C  C72  1  0.82326353  0.43413041  0.47313538  1  0.046482  0  -0.013795  -0.012394  0  4.062891  0
C  C73  1  0.17673209  0.56587044  0.52686499  1  0.046571  0  -0.013822  -0.012437  0  4.06291  0
C  C74  1  0.65246049  0.07101514  0.02961309  1  0.045214  0  -0.012896  -0.009667  0  4.062186  0
C  C75  1  0.34754124  0.92898114  0.97038552  1  0.045133  0  -0.012842  -0.00966  0  4.062106  0
C  C76  1  0.31100016  0.51236364  0.43852940  1  0.336607  0  0.101146  0.252908  0  4.06473  0
C  C77  1  0.68899401  0.48763518  0.56147010  1  0.337215  0  0.101254  0.253016  0  4.064604  0
C  C78  1  0.17953409  0.97980899  0.05488658  1  0.43568  0  0.100991  0.251468  0  4.069299  0
C  C79  1  0.82048111  0.02018695  0.94511506  1  0.435078  0  0.100956  0.251442  0  4.0693  0
C  C80  1  0.32905599  0.55931558  0.48267193  1  0.093854  0  -0.105525  -0.263103  0  4.021559  0
C  C81  1  0.67093673  0.44068175  0.51732714  1  0.092706  0  -0.105609  -0.263274  0  4.021665  0
C  C82  1  0.18386622  0.93186600  0.01108698  1  0.04609  0  -0.105653  -0.263262  0  4.016578  0
C  C83  1  0.81613551  0.06812994  0.98891381  1  0.046581  0  -0.105554  -0.263082  0  4.016676  0
O  O84  1  0.63312334  0.19124264  0.30824942  1  -1.237668  0  -0.226706  -0.581508  0  2.28704  0
O  O85  1  0.36686645  0.80875343  0.69174529  1  -1.237773  0  -0.22673  -0.581513  0  2.287269  0
O  O86  1  0.13095744  0.30815882  0.19064721  1  -1.234928  0  -0.228392  -0.58489  0  2.283078  0
O  O87  1  0.86903522  0.69184094  0.80935142  1  -1.234809  0  -0.228414  -0.584928  0  2.28306  0
O  O88  1  0.29835418  0.18588936  0.18869767  1  -1.255536  0  -0.234356  -0.589519  0  2.32672  0
O  O89  1  0.70164901  0.81410802  0.81130268  1  -1.255528  0  -0.23433  -0.589467  0  2.326656  0
O  O90  1  0.78512417  0.31300014  0.31329876  1  -1.236299  0  -0.232703  -0.588011  0  2.341646  0
O  O91  1  0.21486402  0.68699911  0.68669944  1  -1.236146  0  -0.232639  -0.587817  0  2.34187  0
O  O92  1  0.29202509  0.19078087  0.30811973  1  -1.232619  0  -0.228104  -0.583338  0  2.280388  0
O  O93  1  0.70796150  0.80922198  0.69188065  1  -1.233259  0  -0.228162  -0.583332  0  2.280563  0
O  O94  1  0.78958625  0.31187648  0.19379677  1  -1.23989  0  -0.228778  -0.586297  0  2.280184  0
O  O95  1  0.21040336  0.68812665  0.80620056  1  -1.239863  0  -0.228754  -0.586285  0  2.280271  0
O  O96  1  0.12465919  0.31314653  0.30966477  1  -1.250151  0  -0.232753  -0.588851  0  2.350824  0
O  O97  1  0.87532744  0.68685606  0.69033169  1  -1.250196  0  -0.23257  -0.588604  0  2.350935  0
O  O98  1  0.63813696  0.18860850  0.18909265  1  -1.249498  0  -0.234281  -0.595391  0  2.367074  0
O  O99  1  0.36186168  0.81139253  0.81090335  1  -1.249586  0  -0.234233  -0.595333  0  2.36694  0
O  O100  1  0.45824238  0.28990600  0.25101165  1  -1.436192  0  -0.447045  -0.995307  0  2.200315  0
O  O101  1  0.54175330  0.71009366  0.74898566  1  -1.436254  0  -0.447057  -0.995257  0  2.200204  0
O  O102  1  0.96295248  0.21096900  0.24883812  1  -1.416986  0  -0.446746  -0.997858  0  2.208891  0
O  O103  1  0.03703718  0.78903166  0.75115921  1  -1.417359  0  -0.446721  -0.997841  0  2.208883  0
F  F104  1  0.64929101  0.34937744  0.42274224  1  -0.619203  0  -0.084312  -0.116056  0  1.361412  0
F  F105  1  0.35069413  0.65062513  0.57725378  1  -0.619163  0  -0.084295  -0.116025  0  1.361312  0
F  F106  1  0.79109822  0.16146019  0.08193284  1  -0.622715  0  -0.083626  -0.114597  0  1.364508  0
F  F107  1  0.20890049  0.83853749  0.91806447  1  -0.622697  0  -0.083603  -0.114537  0  1.364439  0
F  F108  1  0.45691784  0.50548583  0.39668273  1  -0.622831  0  -0.099537  -0.140041  0  1.328826  0
F  F109  1  0.54306587  0.49451290  0.60331461  1  -0.622882  0  -0.099566  -0.14003  0  1.328846  0
F  F110  1  0.02336380  0.98308420  0.09359072  1  -0.636284  0  -0.100801  -0.141079  0  1.327127  0
F  F111  1  0.97664705  0.01690583  0.90641049  1  -0.636203  0  -0.10079  -0.141037  0  1.327098  0
