# generated using pymatgen
data_AlH9C24N3(ClO2)3
_symmetry_space_group_name_H-M   'P 1'
_cell_length_a   3.96184507
_cell_length_b   15.85289528
_cell_length_c   15.68974949
_cell_angle_alpha   60.48829608
_cell_angle_beta   82.46660410
_cell_angle_gamma   83.00878902
_symmetry_Int_Tables_number   1
_chemical_formula_structural   AlH9C24N3(ClO2)3
_chemical_formula_sum   'Al1 H9 C24 N3 Cl3 O6'
_cell_volume   848.29983464
_cell_formula_units_Z   1
loop_
 _symmetry_equiv_pos_site_id
 _symmetry_equiv_pos_as_xyz
  1  'x, y, z'
loop_
 _atom_site_type_symbol
 _atom_site_label
 _atom_site_symmetry_multiplicity
 _atom_site_fract_x
 _atom_site_fract_y
 _atom_site_fract_z
 _atom_site_occupancy
 _atom_site_pbe_bader_charge
 _atom_site_pbe_bader_spin_density
 _atom_site_pbe_cm5_charge
 _atom_site_pbe_ddec_charge
 _atom_site_pbe_ddec_spin_density
 _atom_site_pbe_ddec_sum_bond_order
 _atom_site_pbe_magmom
Al  Al0  1  0.98992667  0.49745660  0.50125862  1  2.504859  0  0.423272  1.598742  0  2.572447  0
H  H1  1  0.34267171  0.76448448  0.50458978  1  0.098171  0  0.112368  0.117681  0  0.978039  0
H  H2  1  0.35641004  0.86091401  0.59152649  1  0.068155  0  0.108459  0.111774  0  1.003309  0
H  H3  1  0.41337579  0.59518040  0.86593383  1  0.12856  0  0.109166  0.123159  0  1.009529  0
H  H4  1  0.47420622  0.04670513  0.58842153  1  0.108128  0  0.109432  0.123194  0  1.007243  0
H  H5  1  0.51919154  0.23106511  0.76655629  1  0.067533  0  0.112646  0.11936  0  0.973632  0
H  H6  1  0.50159138  0.04993296  0.85992727  1  0.074809  0  0.107829  0.110678  0  1.005692  0
H  H7  1  0.58143472  0.86205496  0.04427652  1  0.1179  0  0.10882  0.123512  0  1.007549  0
H  H8  1  0.38604619  0.51079581  0.23537039  1  0.079826  0  0.113105  0.121379  0  0.97915  0
H  H9  1  0.36927099  0.59850595  0.05227233  1  0.106296  0  0.108601  0.112254  0  1.004155  0
C  C10  1  0.52113643  0.57583305  0.35071559  1  1.577786  0  0.277687  0.666173  0  4.05069  0
C  C11  1  0.41663318  0.57227604  0.57914296  1  1.633228  0  0.277923  0.666596  0  4.062317  0
C  C12  1  0.51997260  0.34826961  0.57343958  1  1.625118  0  0.278973  0.667877  0  4.060198  0
C  C13  1  0.46715741  0.93077297  0.78445873  1  1.125031  0  0.258767  0.384364  0  4.010392  0
C  C14  1  0.41316515  0.78850855  0.78644835  1  1.087083  0  0.256897  0.381646  0  4.01442  0
C  C15  1  0.46043561  0.78904898  0.92915244  1  1.042308  0  0.258165  0.383471  0  4.016476  0
C  C16  1  0.35879145  0.72827892  0.58387632  1  -0.103716  0  -0.075306  -0.077148  0  3.961358  0
C  C17  1  0.36647129  0.78189891  0.63185349  1  0.107042  0  -0.079331  -0.104216  0  3.967787  0
C  C18  1  0.39069020  0.73384371  0.73378377  1  -0.077205  0  -0.003434  0.021125  0  3.97362  0
C  C19  1  0.40090701  0.63212157  0.78669108  1  0.032037  0  -0.083695  -0.165528  0  3.94328  0
C  C20  1  0.39970046  0.57886357  0.73805021  1  0.055113  0  0.021785  0.137259  0  4.018067  0
C  C21  1  0.38328838  0.62639883  0.63555543  1  0.046277  0  -0.003371  -0.077718  0  3.913831  0
C  C22  1  0.48987105  0.08701695  0.62715798  1  0.108664  0  -0.083026  -0.163944  0  3.940268  0
C  C23  1  0.50905044  0.18741393  0.57538365  1  0.090012  0  0.021472  0.133359  0  4.024178  0
C  C24  1  0.51991835  0.23987834  0.62539175  1  0.005552  0  -0.002901  -0.072807  0  3.915958  0
C  C25  1  0.51467872  0.18961542  0.72819774  1  0.071271  0  -0.076724  -0.081829  0  3.968623  0
C  C26  1  0.50334575  0.08927007  0.78019505  1  -0.079665  0  -0.080283  -0.104195  0  3.972737  0
C  C27  1  0.48823332  0.03731440  0.72984446  1  -0.097549  0  -0.00552  0.017821  0  3.975989  0
C  C28  1  0.54572046  0.78454897  0.08598518  1  0.006928  0  -0.084763  -0.171859  0  3.942769  0
C  C29  1  0.56722955  0.73476445  0.18738347  1  0.128269  0  0.024232  0.140734  0  4.014424  0
C  C30  1  0.51115912  0.63505999  0.24208938  1  -0.023136  0  -0.006447  -0.086833  0  3.91274  0
C  C31  1  0.43485241  0.58754622  0.19199702  1  0.064177  0  -0.075389  -0.074011  0  3.961782  0
C  C32  1  0.42358573  0.63602649  0.09079175  1  -0.076468  0  -0.080704  -0.106468  0  3.96812  0
C  C33  1  0.47744666  0.73558874  0.03696992  1  -0.013623  0  -0.000905  0.026847  0  3.966582  0
N  N34  1  0.43053780  0.88535861  0.73319400  1  -1.224735  0  -0.306487  -0.407557  0  3.205839  0
N  N35  1  0.42133144  0.73731669  0.88474427  1  -1.174887  0  -0.307864  -0.408328  0  3.214851  0
N  N36  1  0.48783594  0.88560893  0.88228017  1  -1.199863  0  -0.308863  -0.409131  0  3.208951  0
Cl  Cl37  1  0.40618558  0.45373016  0.80717244  1  -0.20053  0  -0.010646  -0.077429  0  1.501416  0
Cl  Cl38  1  0.50249168  0.24679645  0.44896885  1  -0.202203  0  -0.009347  -0.075865  0  1.49859  0
Cl  Cl39  1  0.64582515  0.80102173  0.24233274  1  -0.195629  0  -0.007716  -0.073367  0  1.515364  0
O  O40  1  0.25959607  0.39229344  0.59461200  1  -1.249309  0  -0.234219  -0.589748  0  2.362036  0
O  O41  1  0.30750964  0.51002067  0.39499904  1  -1.247685  0  -0.23919  -0.607044  0  2.389947  0
O  O42  1  0.19982209  0.59269361  0.51756485  1  -1.245654  0  -0.232105  -0.580298  0  2.335597  0
O  O43  1  0.77512283  0.38832520  0.51463568  1  -1.240769  0  -0.228233  -0.58382  0  2.384384  0
O  O44  1  0.67137255  0.51061640  0.59529033  1  -1.259077  0  -0.233436  -0.601013  0  2.42841  0
O  O45  1  0.74011000  0.59166360  0.39262552  1  -1.248431  0  -0.229692  -0.588847  0  2.41512  0
