# generated using pymatgen
data_Zn6H53C60NO24
_symmetry_space_group_name_H-M   'P 1'
_cell_length_a   18.50603625
_cell_length_b   18.55188870
_cell_length_c   18.59766453
_cell_angle_alpha   109.12027331
_cell_angle_beta   109.45843204
_cell_angle_gamma   109.19999609
_symmetry_Int_Tables_number   1
_chemical_formula_structural   Zn6H53C60NO24
_chemical_formula_sum   'Zn6 H53 C60 N1 O24'
_cell_volume   4953.27112062
_cell_formula_units_Z   1
loop_
 _symmetry_equiv_pos_site_id
 _symmetry_equiv_pos_as_xyz
  1  'x, y, z'
loop_
 _atom_site_type_symbol
 _atom_site_label
 _atom_site_symmetry_multiplicity
 _atom_site_fract_x
 _atom_site_fract_y
 _atom_site_fract_z
 _atom_site_occupancy
 _atom_site_pbe_bader_charge
 _atom_site_pbe_bader_spin_density
 _atom_site_pbe_cm5_charge
 _atom_site_pbe_ddec_charge
 _atom_site_pbe_ddec_spin_density
 _atom_site_pbe_ddec_sum_bond_order
 _atom_site_pbe_magmom
Zn  Zn0  1  0.00261382  0.07413741  0.57092122  1  1.307591  0  0.720043  0.946885  0  2.169826  0
Zn  Zn1  1  0.00250577  0.94776412  0.44708590  1  1.305409  0  0.71987  0.950218  0  2.143318  0
Zn  Zn2  1  0.44210189  0.93539287  0.00246068  1  1.304828  0  0.718306  0.947179  0  2.169848  0
Zn  Zn3  1  0.56527424  0.05928714  0.99853852  1  1.306181  0  0.717698  0.949834  0  2.147779  0
Zn  Zn4  1  0.56170932  0.49926553  0.55725778  1  1.308062  0  0.72073  0.95282  0  2.161816  0
Zn  Zn5  1  0.43952413  0.50570902  0.43390501  1  1.302636  0  0.718438  0.951701  0  2.125685  0
H  H6  1  0.69941901  0.92757301  0.32731477  1  0.002313  0  0.09276  0.061621  0  0.999903  0
H  H7  1  0.76949642  0.02659635  0.15050212  1  0.053213  0  0.091453  0.092637  0  0.993488  0
H  H8  1  0.72410830  0.10189179  0.25430702  1  0.039776  0  0.094532  0.100795  0  0.99479  0
H  H9  1  0.87993974  0.78908988  0.54949876  1  0.073828  0  0.109741  0.115251  0  0.982456  0
H  H10  1  0.75560757  0.66022848  0.52704240  1  0.080182  0  0.109226  0.117886  0  0.989131  0
H  H11  1  0.58682383  0.76891152  0.46354123  1  0.089756  0  0.108166  0.114477  0  0.993239  0
H  H12  1  0.17312517  0.86583496  0.58533846  1  0.093684  0  0.107099  0.114204  0  0.998183  0
H  H13  1  0.29049877  0.07437576  0.89691676  1  0.071919  0  0.10762  0.110762  0  0.982463  0
H  H14  1  0.18425685  0.08150325  0.77774222  1  0.093844  0  0.106763  0.11389  0  0.995107  0
H  H15  1  0.10138127  0.13734864  0.36735671  1  0.087296  0  0.108711  0.112448  0  0.988187  0
H  H16  1  0.20494189  0.24755115  0.34911531  1  0.062652  0  0.110588  0.114492  0  0.983235  0
H  H17  1  0.36070071  0.41081100  0.62922835  1  0.088406  0  0.107795  0.110376  0  0.990233  0
H  H18  1  0.24815476  0.30840143  0.64624650  1  0.078292  0  0.110462  0.114379  0  0.984323  0
H  H19  1  0.55123604  0.29727792  0.14702477  1  0.079519  0  0.109765  0.113757  0  0.985727  0
H  H20  1  0.53959486  0.40211935  0.26255503  1  0.065362  0  0.109079  0.113879  0  0.984948  0
H  H21  1  0.52823586  0.24073707  0.38466721  1  0.093267  0  0.109698  0.113212  0  0.985047  0
H  H22  1  0.52356737  0.12843472  0.26031034  1  0.099148  0  0.108372  0.113042  0  0.988201  0
H  H23  1  0.65750497  0.92457466  0.83349780  1  0.098707  0  0.105819  0.112849  0  1.016925  0
H  H24  1  0.43144548  0.61591158  0.70659658  1  0.0715  0  0.105185  0.107219  0  0.990808  0
H  H25  1  0.42952946  0.73850604  0.81361763  1  0.082077  0  0.108342  0.11616  0  0.995122  0
H  H26  1  0.57864155  0.87291166  0.19648697  1  0.050691  0  0.106819  0.06075  0  0.961622  0
H  H27  1  0.80063648  0.07113933  0.39302325  1  0.026311  0  0.092542  0.065372  0  0.986954  0
H  H28  1  0.66597114  0.04013415  0.29087941  1  0.006879  0  0.089202  0.087455  0  0.985072  0
H  H29  1  0.87381661  0.99457883  0.22671396  1  0.04932  0  0.092281  0.09177  0  0.983645  0
H  H30  1  0.79647271  0.88442077  0.18007833  1  0.017752  0  0.091104  0.087717  0  0.992186  0
H  H31  1  0.70667427  0.91243874  0.08036753  1  0.042999  0  0.093563  0.097163  0  0.982919  0
H  H32  1  0.83503760  0.23248385  0.38421371  1  0.023563  0  0.083227  0.10866  0  1.010257  0
H  H33  1  0.90255412  0.22868794  0.47519666  1  0.015287  0  0.083558  0.110051  0  1.002837  0
H  H34  1  0.95039272  0.28106401  0.42545306  1  0.032135  0  0.085437  0.11215  0  1.00181  0
H  H35  1  0.94044462  0.13395226  0.38188050  1  -0.004626  0  0.084111  0.078226  0  1.00305  0
H  H36  1  0.87542937  0.13674387  0.28964907  1  -0.00432  0  0.086636  0.076291  0  0.993649  0
H  H37  1  0.68208738  0.96152738  0.60687656  1  0.025639  0  0.084186  0.110232  0  1.008789  0
H  H38  1  0.79410330  0.02201712  0.63605578  1  0.080488  0  0.086656  0.122106  0  1.013718  0
H  H39  1  0.71423978  0.04509111  0.57865945  1  0.027798  0  0.087129  0.114812  0  0.998541  0
H  H40  1  0.75110439  0.95855743  0.47683634  1  0.049132  0  0.093018  0.094643  0  0.997566  0
H  H41  1  0.63990217  0.89731087  0.44721807  1  0.018127  0  0.091333  0.082758  0  0.983834  0
H  H42  1  0.33865213  0.87923494  0.61782107  1  0.025612  0  0.084625  0.109708  0  1.006264  0
H  H43  1  0.41875691  0.92882200  0.72944263  1  0.035549  0  0.085473  0.120505  0  1.005535  0
H  H44  1  0.38056791  0.81762391  0.65637793  1  0.028408  0  0.086472  0.116177  0  1.005128  0
H  H45  1  0.30909220  0.82343660  0.74928740  1  0.047327  0  0.092733  0.094168  0  0.99234  0
H  H46  1  0.22981020  0.77594831  0.63869743  1  0.025691  0  0.09473  0.090359  0  0.968982  0
H  H47  1  0.61363570  0.78449461  0.31495199  1  0.032459  0  0.080874  0.105137  0  1.034148  0
H  H48  1  0.56870995  0.72220148  0.20045758  1  -0.004202  0  0.080242  0.096741  0  1.035272  0
H  H49  1  0.63344893  0.69722230  0.27227863  1  0.02548  0  0.086746  0.117781  0  0.993809  0
H  H50  1  0.72244224  0.78080305  0.22016519  1  -0.012071  0  0.08573  0.07323  0  0.998436  0
H  H51  1  0.76700261  0.83355616  0.33377728  1  0.032623  0  0.08704  0.08837  0  1.00777  0
H  H52  1  0.55541878  0.74828109  0.09697519  1  0.387459  0  0.282511  0.268  0  0.982928  0
H  H53  1  0.65214499  0.78825120  0.10382703  1  0.390855  0  0.279949  0.261314  0  0.992789  0
H  H54  1  0.73049943  0.94452202  0.75684399  1  0.000872  0  0.085832  0.109536  0  1.011135  0
H  H55  1  0.79266018  0.92627636  0.83817265  1  0.05269  0  0.087481  0.11378  0  0.998804  0
H  H56  1  0.80261793  0.90518699  0.74261902  1  0.031617  0  0.089702  0.119822  0  0.999732  0
H  H57  1  0.71128361  0.76376786  0.72712686  1  0.050635  0  0.097044  0.100927  0  0.968146  0
H  H58  1  0.64890664  0.78285050  0.64901127  1  0.060416  0  0.091429  0.090172  0  0.990524  0
C  C59  1  0.88151486  0.92499672  0.53615292  1  1.542441  0  0.221737  0.605918  0  4.139081  0
C  C60  1  0.66854498  0.96177643  0.17659366  1  0.038256  0  -0.013901  -0.018403  0  3.784896  0
C  C61  1  0.71220231  0.04541354  0.26536538  1  -0.021226  0  -0.158006  -0.219769  0  3.861529  0
C  C62  1  0.73865109  0.96385501  0.14855136  1  -0.0491  0  -0.162314  -0.175283  0  3.866425  0
C  C63  1  0.81611314  0.78526915  0.53370384  1  -0.028852  0  -0.083439  -0.094977  0  4.005221  0
C  C64  1  0.74716296  0.71323522  0.51973461  1  -0.029702  0  -0.084594  -0.100151  0  3.993315  0
C  C65  1  0.66408335  0.70722296  0.49326588  1  0.001913  0  -0.016405  -0.02482  0  4.002384  0
C  C66  1  0.65224405  0.77529438  0.48490279  1  -0.057753  0  -0.078524  -0.155343  0  3.933157  0
C  C67  1  0.72265191  0.85129323  0.50389112  1  -0.023248  0  0.004804  0.109828  0  3.910145  0
C  C68  1  0.80470846  0.85433225  0.52681850  1  0.035038  0  -0.006746  -0.069378  0  3.912605  0
C  C69  1  0.19928046  0.91101956  0.65411609  1  -0.047256  0  -0.079434  -0.144076  0  3.933341  0
C  C70  1  0.87734122  0.97601496  0.36490149  1  1.508142  0  0.224998  0.597327  0  4.077797  0
C  C71  1  0.25754309  0.90477188  0.71964527  1  0.019067  0  -3.9e-05  0.097961  0  3.924524  0
C  C72  1  0.29059207  0.96555279  0.80731614  1  -0.022441  0  -0.003988  -0.05097  0  3.907506  0
C  C73  1  0.26398111  0.02842864  0.82835808  1  -0.033197  0  -0.088456  -0.111869  0  4.013162  0
C  C74  1  0.20545071  0.03294330  0.76245534  1  0.000456  0  -0.0843  -0.090786  0  3.991932  0
C  C75  1  0.17390365  0.97488741  0.67457104  1  -0.033633  0  -0.023277  -0.044167  0  4.008761  0
C  C76  1  0.15655977  0.19903723  0.42408692  1  -0.064056  0  -0.078996  -0.092397  0  3.969705  0
C  C77  1  0.21476771  0.25975119  0.41400108  1  0.008167  0  -0.080512  -0.100412  0  3.974319  0
C  C78  1  0.28923298  0.33524034  0.48822825  1  0.02161  0  -0.00947  -0.015222  0  3.962659  0
C  C79  1  0.30188601  0.35241461  0.57202083  1  -0.040911  0  -0.080906  -0.095954  0  3.976047  0
C  C80  1  0.24010946  0.29496604  0.58164828  1  -0.027105  0  -0.079575  -0.095885  0  3.976412  0
C  C81  1  0.10876890  0.14920547  0.51827558  1  1.54273  0  0.223275  0.605436  0  4.141889  0
C  C82  1  0.16881262  0.21663760  0.50786034  1  -0.002134  0  -0.010074  -0.019139  0  3.963352  0
C  C83  1  0.53174792  0.13774629  0.12205202  1  1.555201  0  0.222373  0.605627  0  4.137923  0
C  C84  1  0.59529866  0.96427409  0.11105359  1  1.520892  0  0.227738  0.614129  0  4.049616  0
C  C85  1  0.53647584  0.90891349  0.88808324  1  1.496811  0  0.218939  0.59989  0  4.132373  0
C  C86  1  0.36066030  0.96972500  0.88105951  1  1.5476  0  0.227916  0.620053  0  4.133792  0
C  C87  1  0.54017315  0.62632101  0.64315416  1  1.559258  0  0.22372  0.614665  0  4.136879  0
C  C88  1  0.59152870  0.62833677  0.47798960  1  1.524356  0  0.216241  0.593907  0  4.147968  0
C  C89  1  0.52542583  0.38938044  0.39817512  1  1.545654  0  0.224226  0.611286  0  4.13319  0
C  C90  1  0.35916618  0.39535266  0.48029129  1  1.545506  0  0.224188  0.609541  0  4.134341  0
C  C91  1  0.54437369  0.28466354  0.19830265  1  -0.002173  0  -0.079926  -0.09702  0  3.975635  0
C  C92  1  0.11459568  0.98322887  0.60466274  1  1.514794  0  0.221104  0.608679  0  4.125269  0
C  C93  1  0.53902886  0.34336965  0.26310618  1  0.01032  0  -0.081143  -0.098805  0  3.975757  0
C  C94  1  0.53319163  0.32733252  0.33013903  1  -0.086295  0  -0.010151  -0.017611  0  3.966277  0
C  C95  1  0.53148701  0.25171585  0.33146013  1  -0.002135  0  -0.081066  -0.098453  0  3.978122  0
C  C96  1  0.53013999  0.19000076  0.26311514  1  -0.042575  0  -0.080363  -0.094314  0  3.972946  0
C  C97  1  0.53720304  0.20651293  0.19665708  1  -0.022512  0  -0.011309  -0.016372  0  3.959537  0
C  C98  1  0.60918041  0.85633188  0.80553876  1  -0.054879  0  -0.08153  -0.147459  0  3.929363  0
C  C99  1  0.61332033  0.78891872  0.74791733  1  0.028428  0  -0.001037  0.09397  0  3.915275  0
C  C100  1  0.54749780  0.70216060  0.71270534  1  -0.027842  0  -0.007206  -0.056861  0  3.924408  0
C  C101  1  0.48170005  0.68371220  0.73577483  1  -0.070165  0  -0.089349  -0.111892  0  4.023703  0
C  C102  1  0.47977553  0.75136063  0.79429094  1  -0.037086  0  -0.083618  -0.091366  0  3.994804  0
C  C103  1  0.71124899  0.89779367  0.27348816  1  0.004473  0  -0.081894  -0.071674  0  3.747196  0
C  C104  1  0.54290773  0.83816192  0.82832335  1  0.046219  0  -0.019382  -0.034098  0  4.000827  0
C  C105  1  0.63578399  0.88006472  0.18739046  1  0.325309  0  0.003049  0.128368  0  3.799016  0
C  C106  1  0.79977705  0.05858392  0.33062956  1  0.026753  0  -0.08778  -0.005817  0  3.791898  0
C  C107  1  0.80697032  0.95135484  0.21061183  1  -0.038001  0  -0.160863  -0.1723  0  3.88588  0
C  C108  1  0.80095649  0.97092900  0.29496503  1  0.025696  0  -0.013453  -0.037927  0  3.7589  0
C  C109  1  0.88085741  0.13792674  0.35088066  1  0.02542  0  -0.168375  -0.126405  0  3.93751  0
C  C110  1  0.89280891  0.22481586  0.41207298  1  -0.072328  0  -0.24442  -0.349174  0  3.97834  0
C  C111  1  0.70827819  0.92512509  0.49789240  1  -0.01025  0  -0.160727  -0.151106  0  3.981714  0
C  C112  1  0.72569919  0.99249676  0.58517623  1  -0.102504  0  -0.243005  -0.349104  0  3.957244  0
C  C113  1  0.28684201  0.83773298  0.69557401  1  -0.007271  0  -0.159458  -0.147053  0  3.975731  0
C  C114  1  0.36057877  0.86757958  0.67351057  1  -0.055613  0  -0.243539  -0.349296  0  3.952153  0
C  C115  1  0.71096608  0.81474556  0.27253289  1  0.016357  0  -0.172543  -0.133165  0  3.965785  0
C  C116  1  0.62701642  0.75127237  0.26418511  1  -0.064325  0  -0.246617  -0.345831  0  3.974643  0
C  C117  1  0.68246821  0.80604083  0.71995486  1  -0.033777  0  -0.160365  -0.143848  0  3.974377  0
C  C118  1  0.75585004  0.90078040  0.76721380  1  -0.059803  0  -0.241957  -0.350166  0  3.982042  0
N  N119  1  0.60363103  0.80206780  0.10546204  1  -1.098747  0  -0.642312  -0.639663  0  3.20799  0
O  O120  1  0.90976639  0.00602482  0.58813743  1  -1.132075  0  -0.309802  -0.52112  0  2.236376  0
O  O121  1  0.57984546  0.16250271  0.08895994  1  -1.130524  0  -0.319881  -0.532599  0  2.230144  0
O  O122  1  0.51457723  0.91413595  0.08676471  1  -1.133107  0  -0.316653  -0.528268  0  2.256166  0
O  O123  1  0.61918924  0.01976400  0.08625113  1  -1.184432  0  -0.316333  -0.580263  0  2.346466  0
O  O124  1  0.47823260  0.88541196  0.90996905  1  -1.184159  0  -0.313821  -0.57996  0  2.364079  0
O  O125  1  0.58881468  0.98967220  0.91420176  1  -1.12519  0  -0.321281  -0.532655  0  2.218949  0
O  O126  1  0.33706063  0.91831939  0.91125654  1  -1.128153  0  -0.315652  -0.529141  0  2.228653  0
O  O127  1  0.43897486  0.02586807  0.90900783  1  -1.165286  0  -0.306884  -0.562201  0  2.294131  0
O  O128  1  0.59221395  0.59592319  0.66555719  1  -1.130008  0  -0.316265  -0.528943  0  2.216739  0
O  O129  1  0.48062127  0.59595264  0.56583852  1  -1.172163  0  -0.308543  -0.567654  0  2.287958  0
O  O130  1  0.61396184  0.58807167  0.51703880  1  -1.180298  0  -0.313545  -0.579712  0  2.353688  0
O  O131  1  0.91456491  0.89817593  0.49052140  1  -1.177175  0  -0.308771  -0.572283  0  2.330368  0
O  O132  1  0.51099870  0.60504061  0.42734778  1  -1.128845  0  -0.32009  -0.527129  0  2.214443  0
O  O133  1  0.57078795  0.40853909  0.47806581  1  -1.127435  0  -0.318995  -0.53281  0  2.24125  0
O  O134  1  0.47443274  0.41839565  0.37237983  1  -1.167807  0  -0.311269  -0.56511  0  2.303822  0
O  O135  1  0.43785782  0.41904495  0.53231758  1  -1.173828  0  -0.311326  -0.567131  0  2.319284  0
O  O136  1  0.33575860  0.41876609  0.42222419  1  -1.130003  0  -0.316934  -0.529393  0  2.229055  0
O  O137  1  0.90542538  0.02862607  0.44426770  1  -1.189191  0  -0.311239  -0.578252  0  2.3913  0
O  O138  1  0.90923741  0.92614961  0.34081638  1  -1.126991  0  -0.316164  -0.52744  0  2.253127  0
O  O139  1  0.08617460  0.17566802  0.57619449  1  -1.12765  0  -0.318789  -0.532312  0  2.232298  0
O  O140  1  0.08460308  0.06998800  0.46913298  1  -1.174096  0  -0.311506  -0.56694  0  2.318936  0
O  O141  1  0.09326727  0.04191335  0.62855418  1  -1.180017  0  -0.31685  -0.57532  0  2.345054  0
O  O142  1  0.08849229  0.93126340  0.52411257  1  -1.131905  0  -0.320545  -0.53281  0  2.241284  0
O  O143  1  0.47878705  0.05894053  0.09613088  1  -1.175683  0  -0.312502  -0.569219  0  2.32248  0
