# generated using pymatgen
data_FeH24C15S2(N2Cl)2
_symmetry_space_group_name_H-M   'P 1'
_cell_length_a   9.69815191
_cell_length_b   13.95317708
_cell_length_c   18.04366865
_cell_angle_alpha   90.00014818
_cell_angle_beta   90.00055995
_cell_angle_gamma   90.00012979
_symmetry_Int_Tables_number   1
_chemical_formula_structural   FeH24C15S2(N2Cl)2
_chemical_formula_sum   'Fe4 H96 C60 S8 N16 Cl8'
_cell_volume   2441.66980018
_cell_formula_units_Z   4
loop_
 _symmetry_equiv_pos_site_id
 _symmetry_equiv_pos_as_xyz
  1  'x, y, z'
loop_
 _atom_site_type_symbol
 _atom_site_label
 _atom_site_symmetry_multiplicity
 _atom_site_fract_x
 _atom_site_fract_y
 _atom_site_fract_z
 _atom_site_occupancy
 _atom_site_pbe_bader_charge
 _atom_site_pbe_bader_spin_density
 _atom_site_pbe_cm5_charge
 _atom_site_pbe_ddec_charge
 _atom_site_pbe_ddec_spin_density
 _atom_site_pbe_ddec_sum_bond_order
 _atom_site_pbe_magmom
Fe  Fe0  1  0.33792005  0.80068940  0.31124106  1  1.000279  3.34698  0.370977  0.490415  3.728972  3.295816  3.27
Fe  Fe1  1  0.66207609  0.19931133  0.81124273  1  1.000334  3.347003  0.370997  0.490386  3.728974  3.295786  3.27
Fe  Fe2  1  0.66208306  0.30068740  0.31123365  1  1.000242  -3.346971  0.370942  0.490358  -3.72894  3.295981  -3.27
Fe  Fe3  1  0.33790380  0.69931906  0.81122575  1  1.000303  -3.346976  0.370949  0.490295  -3.728982  3.29603  -3.27
H  H4  1  0.79263974  0.52414405  0.25444754  1  0.17227  -3.6e-05  0.11544  0.121968  0.000166  1.065796  0.0
H  H5  1  0.20736259  0.47585506  0.75444904  1  0.172299  -3.6e-05  0.115456  0.122001  0.000166  1.065787  0.0
H  H6  1  0.20734288  0.02414061  0.25445049  1  0.172294  3.6e-05  0.115517  0.122105  -0.000166  1.065655  0.0
H  H7  1  0.79265120  0.97586136  0.75444498  1  0.172242  3.6e-05  0.115487  0.122064  -0.000166  1.065678  0.0
H  H8  1  0.95630297  0.68564571  0.23487118  1  0.139513  0.000916  0.124467  0.132055  0.000353  1.027018  0.0
H  H9  1  0.04369385  0.31435691  0.73487316  1  0.139568  0.000916  0.124448  0.131999  0.000353  1.027128  0.0
H  H10  1  0.04369014  0.18564489  0.23487493  1  0.139461  -0.000916  0.124442  0.131953  -0.000353  1.027157  0.0
H  H11  1  0.95630668  0.81435774  0.73487273  1  0.139487  -0.000916  0.124448  0.131975  -0.000353  1.027154  0.0
H  H12  1  0.45076499  0.59739100  0.31810450  1  0.15556  0.000183  0.117617  0.0934  0.000122  1.04058  0.0
H  H13  1  0.54923437  0.40260903  0.81810543  1  0.155553  0.000183  0.117615  0.093436  0.000122  1.040582  0.0
H  H14  1  0.54922521  0.09738596  0.31810481  1  0.155773  -0.000183  0.117655  0.093523  -0.000122  1.040641  0.0
H  H15  1  0.45077003  0.90261480  0.81810290  1  0.155735  -0.000182  0.117632  0.093489  -0.000121  1.040631  0.0
H  H16  1  0.56116607  0.49824732  0.29474414  1  0.162769  -0.000222  0.117741  0.08827  -0.000199  1.046452  0.0
H  H17  1  0.43883390  0.50174834  0.79474525  1  0.162449  -0.000221  0.117754  0.088271  -0.000198  1.046543  0.0
H  H18  1  0.43882192  0.99824231  0.29474654  1  0.162487  0.000222  0.117743  0.088214  0.000199  1.046529  0.0
H  H19  1  0.56117599  0.00176123  0.79474285  1  0.16261  0.000222  0.117758  0.088261  0.000199  1.046452  0.0
H  H20  1  0.37707894  0.61989570  0.44397673  1  0.187495  -0.000158  0.124528  0.133231  -0.000169  1.03094  0.0
H  H21  1  0.62293199  0.38010619  0.94397801  1  0.187369  -0.000158  0.124528  0.13326  -0.000169  1.030834  0.0
H  H22  1  0.62292703  0.11988504  0.44397688  1  0.187459  0.000158  0.124586  0.133274  0.000169  1.030703  0.0
H  H23  1  0.37709214  0.88010394  0.94397509  1  0.18779  0.000158  0.124563  0.133243  0.000169  1.030784  0.0
H  H24  1  0.43040148  0.52641260  0.57617662  1  0.165814  -0.001579  0.119799  0.130745  -0.000832  1.04331  0.0
H  H25  1  0.56960895  0.47359164  0.07617883  1  0.165776  -0.001579  0.11978  0.130724  -0.000832  1.043239  0.0
H  H26  1  0.56961380  0.02640042  0.57617426  1  0.165792  0.001578  0.119824  0.130848  0.000831  1.043197  0.0
H  H27  1  0.43041314  0.97357874  0.07617619  1  0.165996  0.001579  0.119915  0.130924  0.000832  1.043178  0.0
H  H28  1  0.71734704  0.88692362  0.18916663  1  0.033835  9.9e-05  0.086374  0.124077  1.1e-05  1.004183  0.0
H  H29  1  0.28264379  0.11307813  0.68916725  1  0.033803  9.9e-05  0.086366  0.124102  1.1e-05  1.004113  0.0
H  H30  1  0.28265413  0.38691816  0.18916665  1  0.033791  -9.9e-05  0.086348  0.124041  -1.1e-05  1.004135  0.0
H  H31  1  0.71734701  0.61308216  0.68916279  1  0.033674  -9.9e-05  0.086407  0.124129  -1.1e-05  1.004112  0.0
H  H32  1  0.76044148  0.99014898  0.24328556  1  0.033079  -0.000889  0.085248  0.137246  -0.000368  1.028888  0.0
H  H33  1  0.23954931  0.00985439  0.74328740  1  0.033028  -0.00089  0.085256  0.137283  -0.000368  1.028874  0.0
H  H34  1  0.23955689  0.49014846  0.24328757  1  0.03297  0.000889  0.085241  0.137233  0.000368  1.028835  0.0
H  H35  1  0.76044627  0.50985490  0.74328484  1  0.032675  0.00089  0.085255  0.137249  0.000368  1.028915  0.0
H  H36  1  0.62632018  0.91142635  0.27223157  1  0.051146  0.00036  0.075784  0.115373  1.7e-05  1.087384  0.0
H  H37  1  0.37367010  0.08857281  0.77223538  1  0.051335  0.000359  0.075788  0.11543  1.7e-05  1.087307  0.0
H  H38  1  0.37368361  0.41142533  0.27223484  1  0.051138  -0.000359  0.075756  0.115299  -1.7e-05  1.087393  0.0
H  H39  1  0.62631801  0.58857383  0.77223156  1  0.051145  -0.000359  0.075777  0.115335  -1.7e-05  1.087415  0.0
H  H40  1  0.75991377  0.89411305  0.39962174  1  0.046527  0.001117  0.076815  0.124755  0.00046  1.051377  0.0
H  H41  1  0.24006644  0.10588797  0.89962211  1  0.046753  0.001117  0.076892  0.124866  0.00046  1.051337  0.0
H  H42  1  0.24008712  0.39411468  0.39962319  1  0.046487  -0.001117  0.076827  0.12478  -0.00046  1.051368  0.0
H  H43  1  0.75991991  0.60588849  0.89961955  1  0.046614  -0.001117  0.076845  0.124826  -0.00046  1.051326  0.0
H  H44  1  0.89261103  0.96958910  0.36497233  1  0.055434  -0.000524  0.086885  0.138677  -0.000281  1.009682  0.0
H  H45  1  0.10737475  0.03041253  0.86497131  1  0.055413  -0.000524  0.0869  0.138731  -0.000281  1.009731  0.0
H  H46  1  0.10739154  0.46959052  0.36497032  1  0.055464  0.000524  0.086883  0.138695  0.000281  1.009628  0.0
H  H47  1  0.89261382  0.53041325  0.86496778  1  0.055531  0.000524  0.086886  0.138705  0.000281  1.009723  0.0
H  H48  1  0.93429227  0.85257856  0.39705449  1  0.040593  0.000187  0.0863  0.135063  -3.9e-05  1.001462  0.0
H  H49  1  0.06569615  0.14742317  0.89705126  1  0.04053  0.000187  0.086454  0.135212  -3.9e-05  1.001331  0.0
H  H50  1  0.06571154  0.35258278  0.39705503  1  0.04064  -0.000187  0.08628  0.135074  3.9e-05  1.001443  0.0
H  H51  1  0.93429544  0.64742182  0.89705239  1  0.040649  -0.000187  0.086342  0.135113  3.9e-05  1.001464  0.0
H  H52  1  0.05344699  0.82006391  0.27410930  1  0.049851  0.001052  0.079076  0.121812  0.000588  1.064002  0.0
H  H53  1  0.94654126  0.17994314  0.77410467  1  0.049753  0.001052  0.079123  0.121845  0.000588  1.06389  0.0
H  H54  1  0.94655139  0.32006237  0.27410727  1  0.049771  -0.001051  0.07912  0.121861  -0.000587  1.063982  0.0
H  H55  1  0.05345336  0.67994397  0.77410338  1  0.049696  -0.001051  0.079118  0.121837  -0.000587  1.063909  0.0
H  H56  1  0.00485622  0.93679495  0.24560012  1  0.04448  -0.000161  0.095845  0.144462  -0.000118  0.991603  0.0
H  H57  1  0.99513461  0.06320915  0.74559440  1  0.04456  -0.000161  0.095815  0.144471  -0.000118  0.991647  0.0
H  H58  1  0.99514614  0.43679061  0.24559834  1  0.044567  0.000161  0.095852  0.144526  0.000118  0.99161  0.0
H  H59  1  0.00485396  0.56321205  0.74559285  1  0.044507  0.000161  0.095816  0.144452  0.000118  0.991586  0.0
H  H60  1  0.96186777  0.83738169  0.18920824  1  0.044277  9.5e-05  0.090727  0.127566  8e-06  0.994625  0.0
H  H61  1  0.03813028  0.16262436  0.68920434  1  0.044141  9.6e-05  0.09071  0.127587  8e-06  0.994637  0.0
H  H62  1  0.03813633  0.33737871  0.18920974  1  0.044266  -9.5e-05  0.090726  0.12757  -8e-06  0.994729  0.0
H  H63  1  0.96186275  0.66262663  0.68920561  1  0.044116  -9.5e-05  0.090724  0.127539  -8e-06  0.994714  0.0
H  H64  1  0.70550839  0.27638790  0.49046780  1  0.058875  -0.000414  0.077752  0.121229  -0.0001  1.057998  0.0
H  H65  1  0.29449410  0.72361272  0.99046804  1  0.058984  -0.000414  0.077746  0.12127  -0.0001  1.05794  0.0
H  H66  1  0.29449481  0.77638194  0.49046944  1  0.058955  0.000415  0.077704  0.121237  0.0001  1.057898  0.0
H  H67  1  0.70550768  0.22361580  0.99046806  1  0.058879  0.000415  0.077724  0.121234  0.0001  1.057956  0.0
H  H68  1  0.53537113  0.26733469  0.52703917  1  0.044534  -0.000126  0.079932  0.122762  7.2e-05  1.028607  0.0
H  H69  1  0.46462604  0.73266653  0.02704025  1  0.044543  -0.000126  0.079942  0.122789  7.2e-05  1.028609  0.0
H  H70  1  0.46463475  0.76732900  0.52704226  1  0.044451  0.000126  0.079912  0.122758  -7.2e-05  1.028561  0.0
H  H71  1  0.53536860  0.23266361  0.02704049  1  0.044511  0.000126  0.079926  0.12274  -7.2e-05  1.028614  0.0
H  H72  1  0.67894639  0.23958996  0.58426458  1  0.061241  0.001012  0.081053  0.139389  0.000346  1.033009  0.0
H  H73  1  0.32105492  0.76040929  0.08426385  1  0.061175  0.001012  0.08105  0.139376  0.000346  1.03304  0.0
H  H74  1  0.32105839  0.73958333  0.58426636  1  0.061213  -0.001012  0.081055  0.139366  -0.000347  1.03303  0.0
H  H75  1  0.67894188  0.26041377  0.08426484  1  0.061123  -0.001012  0.081034  0.139354  -0.000346  1.033032  0.0
H  H76  1  0.86353807  0.41140465  0.53351337  1  0.091916  -0.001485  0.084341  0.130881  -0.000732  1.028965  0.0
H  H77  1  0.13646437  0.58859515  0.03350799  1  0.091803  -0.001485  0.084291  0.130825  -0.000732  1.028997  0.0
H  H78  1  0.13646840  0.91139845  0.53351362  1  0.091972  0.001486  0.084333  0.130847  0.000732  1.02896  0.0
H  H79  1  0.86354126  0.08859920  0.03351661  1  0.091963  0.001486  0.08433  0.130843  0.000732  1.028946  0.0
H  H80  1  0.84055099  0.37598204  0.62777958  1  0.044161  4.4e-05  0.092468  0.138039  5e-06  0.994114  0.0
H  H81  1  0.15945111  0.62401664  0.12777661  1  0.044264  4.4e-05  0.09244  0.138012  5e-06  0.994129  0.0
H  H82  1  0.15945399  0.87597515  0.62777995  1  0.04406  -4.4e-05  0.092425  0.137959  -5e-06  0.994116  0.0
H  H83  1  0.84054913  0.12402281  0.12778455  1  0.044008  -4.4e-05  0.0924  0.137922  -5e-06  0.994093  0.0
H  H84  1  0.80448633  0.49595607  0.60068312  1  0.039851  -4.2e-05  0.088938  0.128214  4e-06  1.009369  0.0
H  H85  1  0.19551630  0.50404252  0.10067955  1  0.039842  -4.2e-05  0.088966  0.128252  4e-06  1.009289  0.0
H  H86  1  0.19551854  0.99595139  0.60068257  1  0.039924  4.2e-05  0.088974  0.128265  -4e-06  1.009322  0.0
H  H87  1  0.80448512  0.00404648  0.10068674  1  0.039896  4.2e-05  0.088964  0.128242  -4e-06  1.009289  0.0
H  H88  1  0.60910114  0.35074396  0.67993630  1  0.072404  0.000433  0.088288  0.133359  0.000309  1.033799  0.0
H  H89  1  0.39090087  0.64925346  0.17993682  1  0.07243  0.000433  0.088269  0.133315  0.000309  1.033796  0.0
H  H90  1  0.39090574  0.85074318  0.67993899  1  0.072377  -0.000434  0.088274  0.133325  -0.000309  1.033795  0.0
H  H91  1  0.60908905  0.14925640  0.17993578  1  0.07242  -0.000433  0.088297  0.133352  -0.000309  1.033744  0.0
H  H92  1  0.45653454  0.37594303  0.62923836  1  0.024072  -5.1e-05  0.090011  0.130306  -1.2e-05  0.992006  0.0
H  H93  1  0.54346758  0.62405709  0.12924074  1  0.024258  -5.1e-05  0.090017  0.130338  -1.2e-05  0.992042  0.0
H  H94  1  0.54346943  0.87594034  0.62924408  1  0.024226  5.1e-05  0.089995  0.130285  1.2e-05  0.992054  0.0
H  H95  1  0.45653165  0.12405691  0.12923502  1  0.024057  5.1e-05  0.089991  0.13023  1.2e-05  0.992145  0.0
H  H96  1  0.56321820  0.47158662  0.66151654  1  0.011586  -0.000384  0.086959  0.128204  -0.000124  1.036978  0.0
H  H97  1  0.43678451  0.52841217  0.16151595  1  0.011564  -0.000383  0.08697  0.12821  -0.000124  1.036981  0.0
H  H98  1  0.43678770  0.97158233  0.66151782  1  0.01141  0.000383  0.086895  0.128167  0.000124  1.036895  0.0
H  H99  1  0.56321088  0.02841718  0.16151578  1  0.011387  0.000383  0.086888  0.128089  0.000124  1.036991  0.0
C  C100  1  0.66587014  0.72324997  0.32271068  1  0.785108  0.005591  0.222896  0.250621  0.000891  3.922389  -0.006
C  C101  1  0.33412415  0.27675008  0.82271301  1  0.785137  0.00559  0.222979  0.250694  0.00089  3.922324  -0.006
C  C102  1  0.33412777  0.22324387  0.32271375  1  0.785048  -0.005591  0.222978  0.250847  -0.00089  3.922438  0.006
C  C103  1  0.66587476  0.77675547  0.82271216  1  0.785067  -0.005593  0.22301  0.250783  -0.000891  3.922324  0.006
C  C104  1  0.77802691  0.59820963  0.27052801  1  0.350069  0.007666  0.004155  -0.09068  0.00368  3.973939  0.003
C  C105  1  0.22197365  0.40179096  0.77053054  1  0.350338  0.007665  0.004089  -0.090733  0.003679  3.974082  0.003
C  C106  1  0.22196140  0.09820622  0.27053436  1  0.350177  -0.007663  0.003937  -0.091013  -0.003679  3.974316  -0.003
C  C107  1  0.77803504  0.90179509  0.77053084  1  0.350038  -0.007659  0.004039  -0.090939  -0.003677  3.974344  -0.003
C  C108  1  0.85583868  0.67809471  0.26008585  1  0.339386  0.007907  0.005391  -0.075826  0.003872  3.943063  0.003
C  C109  1  0.14415860  0.32190800  0.76008781  1  0.339183  0.007908  0.005443  -0.075784  0.003872  3.943158  0.003
C  C110  1  0.14415795  0.17809046  0.26009068  1  0.339281  -0.007906  0.005548  -0.075492  -0.003871  3.943238  -0.003
C  C111  1  0.85583726  0.82191440  0.76008464  1  0.339203  -0.007901  0.005468  -0.075628  -0.003869  3.943256  -0.003
C  C112  1  0.54977256  0.56233242  0.32941894  1  0.583448  1.2e-05  0.055697  0.027553  0.000134  3.827778  0.0
C  C113  1  0.45022907  0.43766766  0.82942109  1  0.583779  1.2e-05  0.055686  0.027458  0.000134  3.827885  0.0
C  C114  1  0.45021773  0.06232793  0.32941873  1  0.583419  -1.1e-05  0.055667  0.027557  -0.000134  3.828045  0.0
C  C115  1  0.54977977  0.93767214  0.82941464  1  0.583413  -1.1e-05  0.055685  0.027396  -0.000133  3.827989  0.0
C  C116  1  0.63252215  0.46603703  0.43827054  1  0.785361  -0.003125  0.219714  0.247083  0.000557  3.947027  0.006
C  C117  1  0.36748249  0.53396412  0.93826967  1  0.785472  -0.003127  0.219716  0.246992  0.000556  3.947131  0.006
C  C118  1  0.36748174  0.96603263  0.43827090  1  0.785189  0.003125  0.21976  0.247111  -0.000558  3.947284  -0.006
C  C119  1  0.63251774  0.03396566  0.93826932  1  0.785312  0.003125  0.219759  0.247029  -0.000558  3.947255  -0.006
C  C120  1  0.45367296  0.56665200  0.45839690  1  0.348642  -0.006348  0.011393  -0.074211  -0.003055  3.945204  -0.003
C  C121  1  0.54633308  0.43335209  0.95839788  1  0.348751  -0.006347  0.011387  -0.07431  -0.003055  3.945245  -0.003
C  C122  1  0.54632794  0.06663979  0.45840108  1  0.349307  0.006348  0.011331  -0.074202  0.003055  3.945305  0.003
C  C123  1  0.45368943  0.93334638  0.95840091  1  0.348472  0.006348  0.011345  -0.074216  0.003055  3.945544  0.003
C  C124  1  0.47976297  0.51916115  0.52270646  1  0.31674  -0.006695  0.006713  -0.075646  -0.003254  3.921427  -0.003
C  C125  1  0.52024134  0.48083861  0.02270344  1  0.316766  -0.006693  0.006707  -0.075597  -0.003253  3.921479  -0.003
C  C126  1  0.52023482  0.01915606  0.52270385  1  0.316708  0.006694  0.006705  -0.075732  0.003253  3.921801  0.003
C  C127  1  0.47977671  0.98083438  0.02270051  1  0.317115  0.006693  0.006638  -0.075834  0.003253  3.922091  0.003
C  C128  1  0.83522190  0.85737649  0.28884066  1  0.310029  -5.6e-05  0.087364  0.367982  7.9e-05  3.741581  0.0
C  C129  1  0.16476765  0.14262416  0.78883960  1  0.309928  -5.6e-05  0.087471  0.368199  7.8e-05  3.741589  0.0
C  C130  1  0.16477995  0.35737657  0.28884006  1  0.309998  5.5e-05  0.0874  0.367957  -7.9e-05  3.741696  0.0
C  C131  1  0.83521887  0.64262623  0.78883577  1  0.310046  5.5e-05  0.087492  0.367947  -7.9e-05  3.741741  0.0
C  C132  1  0.72767122  0.91501482  0.24579209  1  -0.070237  0.000103  -0.253091  -0.460697  -1e-06  3.888614  0.0
C  C133  1  0.27231961  0.08498784  0.74579370  1  -0.070134  0.000103  -0.253107  -0.460853  -1e-06  3.88859  0.0
C  C134  1  0.27233108  0.41501292  0.24579316  1  -0.070059  -0.000101  -0.25302  -0.460491  2e-06  3.888368  0.0
C  C135  1  0.72766800  0.58498831  0.74578930  1  -0.069718  -0.000101  -0.253156  -0.460688  2e-06  3.888605  0.0
C  C136  1  0.85619162  0.89522107  0.36785184  1  -0.077175  0.002069  -0.249046  -0.447738  0.001069  3.860646  0.001
C  C137  1  0.14379214  0.10478057  0.86784949  1  -0.077327  0.002069  -0.249388  -0.448191  0.001069  3.860854  0.001
C  C138  1  0.14381179  0.39522183  0.36785058  1  -0.077186  -0.002068  -0.249077  -0.447823  -0.001069  3.860597  -0.001
C  C139  1  0.85619363  0.60478196  0.86784633  1  -0.077333  -0.002068  -0.2492  -0.447947  -0.001069  3.860778  -0.001
C  C140  1  0.97196614  0.86168021  0.24686785  1  -0.086897  0.001185  -0.243564  -0.450583  0.000498  3.886408  0.001
C  C141  1  0.02802471  0.13832389  0.74686385  1  -0.086876  0.001186  -0.243557  -0.45065  0.000498  3.886367  0.001
C  C142  1  0.02803394  0.36167792  0.24686708  1  -0.086941  -0.001185  -0.243629  -0.450716  -0.000498  3.886628  -0.001
C  C143  1  0.97196619  0.63832618  0.74686351  1  -0.086646  -0.001185  -0.243579  -0.450495  -0.000498  3.886319  -0.001
C  C144  1  0.64958625  0.39063293  0.56778741  1  0.327219  0.000106  0.089384  0.371296  -7.2e-05  3.733012  0.0
C  C145  1  0.35041579  0.60937129  0.06778708  1  0.32732  0.000106  0.08939  0.371477  -7.2e-05  3.732792  0.0
C  C146  1  0.35041666  0.89062635  0.56778934  1  0.327165  -0.000106  0.089407  0.371416  7.2e-05  3.733081  0.0
C  C147  1  0.64958332  0.10937070  0.06778848  1  0.32717  -0.000106  0.089398  0.371356  7.2e-05  3.732989  0.0
C  C148  1  0.64216483  0.28709087  0.54004681  1  -0.095937  0.000314  -0.256211  -0.459113  0.000274  3.875111  0.0
C  C149  1  0.35783567  0.71291039  0.04004728  1  -0.096052  0.000314  -0.256227  -0.459223  0.000274  3.87512  0.0
C  C150  1  0.35784033  0.78708430  0.54004933  1  -0.095792  -0.000314  -0.256157  -0.459136  -0.000274  3.874952  0.0
C  C151  1  0.64216326  0.21291123  0.04004753  1  -0.095794  -0.000314  -0.25616  -0.459098  -0.000274  3.875105  0.0
C  C152  1  0.79913967  0.42081043  0.58295881  1  -0.128275  -0.002473  -0.24263  -0.442751  -0.001346  3.864392  -0.002
C  C153  1  0.20086470  0.57918954  0.08295375  1  -0.128313  -0.002472  -0.242575  -0.44274  -0.001346  3.864273  -0.002
C  C154  1  0.20086773  0.92080289  0.58295995  1  -0.128339  0.002473  -0.242579  -0.44265  0.001346  3.864379  0.002
C  C155  1  0.79913973  0.07919492  0.08296203  1  -0.128164  0.002472  -0.242553  -0.442591  0.001346  3.864154  0.002
C  C156  1  0.56353752  0.39882395  0.63856770  1  -0.06883  -0.000292  -0.245187  -0.450607  -0.000158  3.864057  0.0
C  C157  1  0.43646374  0.60117549  0.13856725  1  -0.068992  -0.000292  -0.245187  -0.450673  -0.000158  3.864123  0.0
C  C158  1  0.43646566  0.89881965  0.63856897  1  -0.068865  0.000292  -0.245111  -0.450583  0.000158  3.864042  0.0
C  C159  1  0.56353044  0.10117764  0.13856598  1  -0.068696  0.000292  -0.245126  -0.45045  0.000157  3.864169  0.0
S  S160  1  0.54474349  0.78619046  0.37198090  1  -0.224764  0.100016  -0.1868  -0.396416  0.053102  2.765739  0.058
S  S161  1  0.45525273  0.21380761  0.87198207  1  -0.224859  0.100022  -0.186829  -0.396457  0.053105  2.765702  0.058
S  S162  1  0.45525037  0.28618742  0.37198515  1  -0.224721  -0.099987  -0.186798  -0.396477  -0.053089  2.765567  -0.058
S  S163  1  0.54475513  0.71380921  0.87198668  1  -0.224718  -0.099943  -0.186818  -0.396502  -0.053075  2.765152  -0.058
S  S164  1  0.76300217  0.40897693  0.39217377  1  -0.198774  -0.104764  -0.177697  -0.37067  -0.054729  2.669695  -0.061
S  S165  1  0.23699751  0.59102263  0.89217399  1  -0.198759  -0.104728  -0.177695  -0.370631  -0.054713  2.669532  -0.061
S  S166  1  0.23699967  0.90897304  0.39217566  1  -0.198808  0.104794  -0.177751  -0.370738  0.054745  2.669908  0.061
S  S167  1  0.76299897  0.09102796  0.89217543  1  -0.198869  0.104808  -0.17775  -0.370679  0.054749  2.669909  0.061
N  N168  1  0.66195056  0.62642612  0.30938790  1  -1.192011  0.015386  -0.23598  -0.012649  0.007373  3.719646  0.014
N  N169  1  0.33804968  0.37357317  0.80939043  1  -1.191925  0.015385  -0.236021  -0.012643  0.007372  3.719572  0.014
N  N170  1  0.33804061  0.12642002  0.30939098  1  -1.191845  -0.015381  -0.23599  -0.012711  -0.00737  3.719965  -0.014
N  N171  1  0.66195446  0.87357998  0.80938569  1  -1.191788  -0.015375  -0.236116  -0.012649  -0.007367  3.719985  -0.014
N  N172  1  0.78684863  0.75489800  0.29217789  1  -1.148624  0.018005  -0.213709  -0.03803  0.008623  3.565406  0.016
N  N173  1  0.21314613  0.24510338  0.79217951  1  -1.148779  0.018004  -0.213719  -0.038045  0.008622  3.565406  0.016
N  N174  1  0.21315089  0.25489529  0.29217865  1  -1.148774  -0.018003  -0.213771  -0.03822  -0.008621  3.565363  -0.016
N  N175  1  0.78684697  0.74510895  0.79217265  1  -1.148753  -0.017995  -0.213762  -0.038142  -0.008618  3.565281  -0.016
N  N176  1  0.54844823  0.53415330  0.40695857  1  -1.201951  -0.012139  -0.237317  -0.020967  -0.005756  3.734104  -0.011
N  N177  1  0.45155687  0.46584847  0.90695857  1  -1.202024  -0.012139  -0.237298  -0.020814  -0.005756  3.733945  -0.011
N  N178  1  0.45155370  0.03415025  0.40695893  1  -1.202264  0.012139  -0.237325  -0.021027  0.005757  3.734115  0.011
N  N179  1  0.54845243  0.96584506  0.90695600  1  -1.202405  0.01214  -0.237288  -0.020843  0.005757  3.734083  0.011
N  N180  1  0.58979506  0.45712087  0.51019482  1  -1.159428  -0.013802  -0.21498  -0.047465  -0.006616  3.573211  -0.012
N  N181  1  0.41020696  0.54287885  0.01019412  1  -1.159529  -0.013802  -0.21497  -0.047486  -0.006616  3.573148  -0.012
N  N182  1  0.41020701  0.95711581  0.51019540  1  -1.15935  0.013802  -0.214996  -0.047514  0.006616  3.573358  0.012
N  N183  1  0.58979604  0.04288032  0.01019464  1  -1.159574  0.013801  -0.215019  -0.047469  0.006615  3.573441  0.012
Cl  Cl184  1  0.21221654  0.66496538  0.31543874  1  -0.663591  0.157659  -0.286444  -0.44366  0.077977  1.290437  0.091
Cl  Cl185  1  0.78777556  0.33503823  0.81543913  1  -0.663551  0.157652  -0.286439  -0.443682  0.077976  1.290459  0.091
Cl  Cl186  1  0.78777074  0.16497003  0.31544142  1  -0.663505  -0.157691  -0.286395  -0.443604  -0.077991  1.290607  -0.091
Cl  Cl187  1  0.21223785  0.83502354  0.81543756  1  -0.663422  -0.157746  -0.286391  -0.443546  -0.078021  1.290908  -0.091
Cl  Cl188  1  0.35366855  0.87338307  0.19986803  1  -0.661066  0.16063  -0.28343  -0.438332  0.079667  1.299067  0.093
Cl  Cl189  1  0.64633279  0.12661801  0.69986449  1  -0.661044  0.160602  -0.283429  -0.438328  0.079655  1.298994  0.093
Cl  Cl190  1  0.64633175  0.37338248  0.19987495  1  -0.661019  -0.160681  -0.28342  -0.438288  -0.079692  1.299386  -0.093
Cl  Cl191  1  0.35366959  0.62661931  0.69987918  1  -0.661027  -0.160725  -0.283398  -0.438235  -0.079712  1.299595  -0.094
