# generated using pymatgen
data_MnNiH21C19N7O2
_symmetry_space_group_name_H-M   'P 1'
_cell_length_a   9.63265945
_cell_length_b   10.39644917
_cell_length_c   10.39657497
_cell_angle_alpha   70.46599693
_cell_angle_beta   90.59810758
_cell_angle_gamma   90.59446572
_symmetry_Int_Tables_number   1
_chemical_formula_structural   MnNiH21C19N7O2
_chemical_formula_sum   'Mn2 Ni2 H42 C38 N14 O4'
_cell_volume   981.16370180
_cell_formula_units_Z   2
loop_
 _symmetry_equiv_pos_site_id
 _symmetry_equiv_pos_as_xyz
  1  'x, y, z'
loop_
 _atom_site_type_symbol
 _atom_site_label
 _atom_site_symmetry_multiplicity
 _atom_site_fract_x
 _atom_site_fract_y
 _atom_site_fract_z
 _atom_site_occupancy
 _atom_site_pbe_bader_charge
 _atom_site_pbe_bader_spin_density
 _atom_site_pbe_cm5_charge
 _atom_site_pbe_ddec_charge
 _atom_site_pbe_ddec_spin_density
 _atom_site_pbe_ddec_sum_bond_order
 _atom_site_pbe_magmom
Mn  Mn0  1  0.25000050  0.25392730  0.74608759  1  1.485951  1.274102  0.864623  0.688564  1.308019  3.622931  1.271
Mn  Mn1  1  0.75000392  0.74610479  0.25389538  1  1.485726  1.274142  0.864634  0.688617  1.308038  3.622653  1.271
Ni  Ni2  1  0.00000057  0.99999586  0.49999975  1  0.639343  -0.000911  0.391893  0.132384  -0.000231  3.868434  0.0
Ni  Ni3  1  0.50000589  0.50001406  0.99999682  1  0.639551  -0.00091  0.391972  0.132478  -0.00023  3.868459  0.0
H  H4  1  0.25003968  0.73449858  0.26551155  1  0.063758  -0.000499  0.107264  0.100157  -0.000426  1.01713  0.0
H  H5  1  0.74999819  0.26550876  0.73450906  1  0.064145  -0.000497  0.107278  0.100069  -0.000426  1.017107  0.0
H  H6  1  0.40774434  0.53999474  0.28237887  1  0.126736  -0.000322  0.108724  0.115447  -0.00036  1.052213  0.0
H  H7  1  0.09229316  0.71766363  0.45997325  1  0.126021  -0.000325  0.108835  0.115524  -0.000361  1.052675  0.0
H  H8  1  0.59227168  0.46000629  0.71764008  1  0.1263  -0.000324  0.108788  0.115506  -0.000361  1.052338  0.0
H  H9  1  0.90770392  0.28233267  0.54002039  1  0.125992  -0.000326  0.108793  0.115477  -0.000362  1.052762  0.0
H  H10  1  0.56600209  0.38493921  0.34706890  1  0.039858  -0.001293  0.099013  0.146233  -0.000992  1.019111  -0.001
H  H11  1  0.93399938  0.65297830  0.61499230  1  0.039141  -0.001294  0.099001  0.146215  -0.000994  1.018941  -0.001
H  H12  1  0.43395961  0.61502419  0.65293337  1  0.039765  -0.001294  0.099002  0.146293  -0.000993  1.018889  -0.001
H  H13  1  0.06602076  0.34702065  0.38502450  1  0.039813  -0.001294  0.099031  0.146333  -0.000994  1.018735  -0.001
H  H14  1  0.46311839  0.24690011  0.33428972  1  0.113884  -0.003382  0.104068  0.158847  -0.002655  1.01614  -0.002
H  H15  1  0.03686055  0.66576646  0.75304824  1  0.114172  -0.003386  0.104016  0.158716  -0.002658  1.016276  -0.002
H  H16  1  0.53688321  0.75306756  0.66576019  1  0.113994  -0.003382  0.104039  0.158783  -0.002654  1.016178  -0.002
H  H17  1  0.96311073  0.33420056  0.24697779  1  0.113914  -0.003385  0.103957  0.158683  -0.002657  1.016157  -0.002
H  H18  1  0.60556051  0.21591710  0.45114419  1  0.066073  -0.000737  0.101583  0.149555  -0.000484  1.002512  0.0
H  H19  1  0.89443457  0.54890266  0.78400509  1  0.065388  -0.000738  0.101451  0.149439  -0.000484  1.002394  0.0
H  H20  1  0.39443054  0.78410401  0.54885802  1  0.065841  -0.000736  0.101558  0.149555  -0.000483  1.002491  0.0
H  H21  1  0.10555290  0.45109198  0.21596025  1  0.065598  -0.000737  0.101463  0.149487  -0.000483  1.002385  0.0
H  H22  1  0.57669248  0.09851798  0.70966456  1  0.083211  -0.000947  0.111378  0.091161  -0.000875  0.993594  -0.001
H  H23  1  0.92329937  0.29041106  0.90144411  1  0.083895  -0.000947  0.111482  0.09124  -0.000875  0.993541  -0.001
H  H24  1  0.42330390  0.90148722  0.29036251  1  0.083658  -0.000946  0.11137  0.091129  -0.000874  0.993362  -0.001
H  H25  1  0.07670510  0.70960793  0.09855117  1  0.083629  -0.000946  0.111486  0.091273  -0.000875  0.993465  -0.001
H  H26  1  0.49382122  0.04890225  0.58142929  1  0.091055  0.00051  0.114687  0.101157  0.000394  0.994338  0.0
H  H27  1  0.00619258  0.41864220  0.95105672  1  0.091371  0.000509  0.114631  0.101059  0.000394  0.994466  0.0
H  H28  1  0.50620324  0.95111640  0.41859501  1  0.0909  0.000512  0.114628  0.101016  0.000394  0.994216  0.0
H  H29  1  0.99380655  0.58135405  0.04893405  1  0.091211  0.000511  0.114618  0.101108  0.000394  0.994373  0.0
H  H30  1  0.30443630  0.93592148  0.73325722  1  0.057384  0.000149  0.104229  0.074459  -9e-06  0.993596  0.0
H  H31  1  0.19557614  0.26678740  0.06403979  1  0.056591  0.000149  0.104176  0.074505  -1e-05  0.993634  0.0
H  H32  1  0.69558160  0.06406695  0.26674789  1  0.056732  0.000149  0.104288  0.074604  -1e-05  0.993519  0.0
H  H33  1  0.80441768  0.73321772  0.93593342  1  0.056851  0.000149  0.104267  0.074631  -1e-05  0.993484  0.0
H  H34  1  0.46489020  0.88109876  0.82133926  1  0.063435  0.000993  0.106692  0.080367  0.000575  0.987721  0.001
H  H35  1  0.03512120  0.17872527  0.11886186  1  0.063589  0.000991  0.106657  0.080442  0.000574  0.98749  0.001
H  H36  1  0.53513799  0.11887730  0.17866157  1  0.063407  0.000991  0.106662  0.080368  0.000574  0.987669  0.001
H  H37  1  0.96487493  0.82126715  0.88114373  1  0.063606  0.000992  0.106628  0.080447  0.000575  0.987606  0.001
H  H38  1  0.34647256  0.85110788  0.04706903  1  0.067864  0.001594  0.105249  0.081914  0.000999  0.981045  0.001
H  H39  1  0.15347089  0.95297302  0.14887856  1  0.067875  0.001594  0.10531  0.081906  0.000999  0.981053  0.001
H  H40  1  0.65349645  0.14885364  0.95293970  1  0.068073  0.001592  0.10533  0.081947  0.000998  0.981212  0.001
H  H41  1  0.84648038  0.04700243  0.85111271  1  0.067954  0.001593  0.105299  0.081931  0.000999  0.981309  0.001
H  H42  1  0.19507799  0.88782699  0.94049404  1  0.082993  7.4e-05  0.104806  0.077411  -4.4e-05  1.012476  0.0
H  H43  1  0.30488997  0.05950768  0.11219603  1  0.082902  7.4e-05  0.104788  0.077197  -4.5e-05  1.012498  0.0
H  H44  1  0.80491171  0.11219243  0.05947605  1  0.082991  7.4e-05  0.10476  0.077285  -4.5e-05  1.012415  0.0
H  H45  1  0.69508331  0.94046124  0.88782164  1  0.082765  7.4e-05  0.10487  0.077447  -4.5e-05  1.012427  0.0
C  C46  1  0.25002508  0.64376814  0.35622374  1  -0.026916  -0.035403  -0.080137  -0.045834  -0.035717  3.97993  -0.019
C  C47  1  0.74997931  0.35623034  0.64377395  1  -0.027849  -0.035366  -0.0801  -0.04565  -0.035678  3.979548  -0.019
C  C48  1  0.33812647  0.53563855  0.36528981  1  -0.033252  -0.019747  -0.07797  -0.141344  -0.020517  3.934398  -0.01
C  C49  1  0.16189686  0.63475385  0.46434113  1  -0.031934  -0.019767  -0.078004  -0.141347  -0.020539  3.933976  -0.01
C  C50  1  0.66190528  0.46437512  0.63474011  1  -0.032086  -0.019788  -0.078075  -0.141441  -0.020559  3.934219  -0.01
C  C51  1  0.83809711  0.36523533  0.53565694  1  -0.032183  -0.019806  -0.077923  -0.141225  -0.020574  3.933637  -0.01
C  C52  1  0.33728596  0.42031741  0.48276268  1  0.406173  -0.029348  0.113053  0.132901  -0.02921  3.974245  -0.013
C  C53  1  0.16272653  0.51726113  0.57966538  1  0.406967  -0.029331  0.112896  0.132685  -0.029197  3.974207  -0.013
C  C54  1  0.66271122  0.57968421  0.51723967  1  0.406113  -0.029338  0.113023  0.132735  -0.029201  3.974262  -0.013
C  C55  1  0.83728524  0.48274678  0.42033959  1  0.40711  -0.029317  0.11285  0.132512  -0.029189  3.974309  -0.013
C  C56  1  0.42169231  0.30019760  0.50971982  1  0.628591  -0.040187  0.14478  0.24531  -0.043015  3.922133  -0.024
C  C57  1  0.07829881  0.49032445  0.69975373  1  0.627939  -0.040222  0.144817  0.245275  -0.04305  3.922053  -0.024
C  C58  1  0.57832254  0.69981025  0.49028133  1  0.628486  -0.040219  0.144664  0.245091  -0.04305  3.921938  -0.024
C  C59  1  0.92167327  0.50967866  0.30022784  1  0.6277  -0.040243  0.144778  0.245456  -0.043066  3.921885  -0.024
C  C60  1  0.52053651  0.28597197  0.40593903  1  -0.067317  -0.001393  -0.236894  -0.460832  -0.00243  3.920761  0.0
C  C61  1  0.97946364  0.59410615  0.71396871  1  -0.06622  -0.001392  -0.23676  -0.460627  -0.00243  3.920692  0.0
C  C62  1  0.47944319  0.71401873  0.59408734  1  -0.066892  -0.001391  -0.236912  -0.460839  -0.002429  3.920009  0.0
C  C63  1  0.02054276  0.40587696  0.28603056  1  -0.066841  -0.001391  -0.236775  -0.460867  -0.002429  3.920043  0.0
C  C64  1  0.47452446  0.08151632  0.66951690  1  0.256973  0.005481  -0.060185  -0.06368  0.005043  3.943145  0.005
C  C65  1  0.02547687  0.33054181  0.91844854  1  0.256817  0.005481  -0.060257  -0.063677  0.005044  3.942911  0.005
C  C66  1  0.52548422  0.91848858  0.33049201  1  0.256197  0.005489  -0.060101  -0.063188  0.005049  3.942371  0.005
C  C67  1  0.97452441  0.66946380  0.08154664  1  0.25679  0.00549  -0.06019  -0.063652  0.00505  3.942889  0.005
C  C68  1  0.39738403  0.96995962  0.77594304  1  0.429442  -0.000783  -0.064009  0.000596  -0.000654  3.892907  -0.001
C  C69  1  0.10262394  0.22410645  0.03000884  1  0.429159  -0.000784  -0.063916  0.000509  -0.000655  3.892969  -0.001
C  C70  1  0.60263905  0.03002677  0.22406184  1  0.430143  -0.000783  -0.064075  0.000304  -0.000654  3.893435  -0.001
C  C71  1  0.89737102  0.77588670  0.96998206  1  0.429937  -0.000783  -0.064062  0.000131  -0.000654  3.89328  -0.001
C  C72  1  0.27850839  0.93371457  0.98453563  1  0.377715  0.000631  -0.07107  -0.020174  0.00052  3.924936  0.0
C  C73  1  0.22146529  0.01547729  0.06628888  1  0.414966  0.000645  -0.071136  -0.019789  0.000522  3.924745  0.0
C  C74  1  0.72148854  0.06628546  0.01543938  1  0.37777  0.000631  -0.071072  -0.019916  0.000521  3.924796  0.0
C  C75  1  0.77850987  0.98450746  0.93369821  1  0.418384  0.000641  -0.071204  -0.02019  0.000519  3.924993  0.0
C  C76  1  0.06726679  0.08923692  0.61267069  1  0.779427  -0.00824  0.024286  0.039392  -0.008158  3.795118  -0.005
C  C77  1  0.43273318  0.38734800  0.91075862  1  0.779217  -0.008247  0.024414  0.039576  -0.008167  3.794723  -0.005
C  C78  1  0.93273557  0.91076977  0.38732700  1  0.779322  -0.008247  0.024313  0.039446  -0.008165  3.794788  -0.005
C  C79  1  0.56727245  0.61268955  0.08923974  1  0.779881  -0.008243  0.024177  0.039266  -0.008161  3.795473  -0.005
C  C80  1  0.83733366  0.94538410  0.59683123  1  0.754624  -0.000353  -0.014057  -0.01989  -0.00018  3.897839  0.0
C  C81  1  0.66266997  0.40317896  0.05461494  1  0.754251  -0.000353  -0.014078  -0.019898  -0.00018  3.898246  0.0
C  C82  1  0.16266647  0.05461310  0.40315537  1  0.754666  -0.000353  -0.014096  -0.019957  -0.00018  3.898135  0.0
C  C83  1  0.33734294  0.59685868  0.94538533  1  0.753657  -0.000352  -0.014158  -0.019982  -0.00018  3.898079  0.0
N  N84  1  0.24999403  0.41114418  0.58886348  1  -1.179204  -0.045085  -0.346558  -0.221599  -0.049865  3.608436  -0.046
N  N85  1  0.75000210  0.58885333  0.41113935  1  -1.179168  -0.045117  -0.346295  -0.221164  -0.049886  3.60785  -0.046
N  N86  1  0.39729665  0.20910312  0.62980471  1  -1.106774  -0.012095  -0.331535  -0.221391  -0.014889  3.432454  -0.016
N  N87  1  0.10270835  0.37023625  0.79087753  1  -1.106931  -0.012088  -0.331501  -0.221237  -0.01489  3.431682  -0.016
N  N88  1  0.60272755  0.79090784  0.37019536  1  -1.106544  -0.01209  -0.331346  -0.221263  -0.014879  3.432098  -0.016
N  N89  1  0.89726590  0.62977520  0.20910880  1  -1.106032  -0.012075  -0.33145  -0.221419  -0.01487  3.431971  -0.016
N  N90  1  0.12202739  0.15216603  0.67432574  1  -1.355388  -0.010377  -0.400023  -0.337321  -0.012208  3.571433  -0.01
N  N91  1  0.37797043  0.32567580  0.84784201  1  -1.355776  -0.010375  -0.400184  -0.337537  -0.012208  3.571162  -0.01
N  N92  1  0.87798833  0.84783129  0.32566277  1  -1.355444  -0.010374  -0.400189  -0.337551  -0.012208  3.5712  -0.01
N  N93  1  0.62202279  0.67432724  0.15218100  1  -1.355805  -0.010381  -0.400036  -0.337303  -0.012214  3.572191  -0.01
N  N94  1  0.73272437  0.90711449  0.65493033  1  -1.323804  -0.001477  -0.358774  -0.374417  -0.00145  3.025623  -0.001
N  N95  1  0.76727887  0.34508002  0.09287997  1  -1.323419  -0.001476  -0.358822  -0.374409  -0.001449  3.025873  -0.001
N  N96  1  0.26727069  0.09288192  0.34506904  1  -1.323864  -0.001476  -0.358732  -0.374322  -0.001449  3.025986  -0.001
N  N97  1  0.23272341  0.65494685  0.90709906  1  -1.322875  -0.001477  -0.358736  -0.374352  -0.00145  3.025677  -0.001
O  O98  1  0.35738022  0.02744949  0.87717549  1  -1.051054  0.025167  -0.196532  -0.182567  0.019746  2.532561  0.02
O  O99  1  0.14262045  0.12286023  0.97252248  1  -1.046925  0.025157  -0.196452  -0.182632  0.019742  2.532896  0.02
O  O100  1  0.64262514  0.97255800  0.12281037  1  -1.051192  0.025169  -0.196613  -0.182806  0.019746  2.53295  0.02
O  O101  1  0.85741278  0.87716331  0.02743662  1  -1.051637  0.025185  -0.19633  -0.182265  0.019758  2.532496  0.02
