# generated using pymatgen
data_CdH8C12(NO2)2
_symmetry_space_group_name_H-M   'P 1'
_cell_length_a   9.84401853
_cell_length_b   9.79059349
_cell_length_c   15.59800000
_cell_angle_alpha   104.26952243
_cell_angle_beta   107.87998669
_cell_angle_gamma   97.32755840
_symmetry_Int_Tables_number   1
_chemical_formula_structural   CdH8C12(NO2)2
_chemical_formula_sum   'Cd4 H32 C48 N8 O16'
_cell_volume   1352.49291292
_cell_formula_units_Z   4
loop_
 _symmetry_equiv_pos_site_id
 _symmetry_equiv_pos_as_xyz
  1  'x, y, z'
loop_
 _atom_site_type_symbol
 _atom_site_label
 _atom_site_symmetry_multiplicity
 _atom_site_fract_x
 _atom_site_fract_y
 _atom_site_fract_z
 _atom_site_occupancy
 _atom_site_hle17_bader_spin_density
 _atom_site_hle17_ddec_charge
 _atom_site_hle17_ddec_spin_density
 _atom_site_hle17_ddec_sum_bond_order
 _atom_site_hle17_magmom
 _atom_site_hse06_10hf_bader_spin_density
 _atom_site_hse06_10hf_ddec_charge
 _atom_site_hse06_10hf_ddec_spin_density
 _atom_site_hse06_10hf_ddec_sum_bond_order
 _atom_site_hse06_10hf_magmom
 _atom_site_hse06_bader_spin_density
 _atom_site_hse06_ddec_charge
 _atom_site_hse06_ddec_spin_density
 _atom_site_hse06_ddec_sum_bond_order
 _atom_site_hse06_magmom
 _atom_site_pbe_bader_charge
 _atom_site_pbe_bader_spin_density
 _atom_site_pbe_cm5_charge
 _atom_site_pbe_ddec_charge
 _atom_site_pbe_ddec_spin_density
 _atom_site_pbe_ddec_sum_bond_order
 _atom_site_pbe_magmom
Cd  Cd0  1  0.18153642  0.27979387  0.02734653  1  0  1.09415  0  1.79094  0  0  0.905827  0  2.251312  0  0  0.958707  0  2.200472  0  1.279964  0  0.768962  0.86663  0  2.286762  0
Cd  Cd1  1  0.24792994  0.84726894  0.52771111  1  0  1.093361  0  1.79199  0  0  0.904499  0  2.25266  0  0  0.957441  0  2.201804  0  1.277497  0  0.768503  0.865206  0  2.288144  0
Cd  Cd2  1  0.81845837  0.72020729  0.97265085  1  0  1.094111  0  1.790916  0  0  0.90578  0  2.251281  0  0  0.95866  0  2.200443  0  1.280052  0  0.768937  0.866582  0  2.286729  0
Cd  Cd3  1  0.75208280  0.15274086  0.47229813  1  0  1.093335  0  1.792023  0  0  0.904493  0  2.252699  0  0  0.957438  0  2.201841  0  1.277456  0  0.768464  0.865199  0  2.288181  0
H  H4  1  0.25640300  0.03306196  0.87987729  1  0  0.079061  0  0.95465  0  0  0.085644  0  1.022902  0  0  0.087611  0  1.021715  0  0.092393  0  0.115783  0.084003  0  1.02404  0
H  H5  1  0.34518424  0.62366960  0.38048662  1  0  0.078918  0  0.952817  0  0  0.085473  0  1.020679  0  0  0.087413  0  1.019556  0  0.117096  0  0.115493  0.083805  0  1.021853  0
H  H6  1  0.74359234  0.96692731  0.12012477  1  0  0.079109  0  0.954615  0  0  0.085723  0  1.022828  0  0  0.087691  0  1.021638  0  0.092518  0  0.115811  0.084081  0  1.023966  0
H  H7  1  0.65481934  0.37633264  0.61951391  1  0  0.078936  0  0.95275  0  0  0.085464  0  1.02064  0  0  0.087404  0  1.019517  0  0.117011  0  0.115494  0.083796  0  1.021814  0
H  H8  1  0.47098494  0.96452546  0.83621646  1  0  0.113782  0  0.924511  0  0  0.127471  0  0.973881  0  0  0.130672  0  0.973259  0  0.086642  0  0.115446  0.124933  0  0.974888  0
H  H9  1  0.36977818  0.36389226  0.33668752  1  0  0.112355  0  0.923898  0  0  0.126096  0  0.973378  0  0  0.129246  0  0.972815  0  0.102968  0  0.115193  0.123588  0  0.974347  0
H  H10  1  0.52901113  0.03546706  0.16378431  1  0  0.113781  0  0.924502  0  0  0.127513  0  0.973839  0  0  0.130696  0  0.973239  0  0.086685  0  0.115437  0.124973  0  0.974848  0
H  H11  1  0.63021235  0.63610890  0.66330839  1  0  0.112301  0  0.923942  0  0  0.126043  0  0.97343  0  0  0.129191  0  0.97287  0  0.103107  0  0.115167  0.123534  0  0.974398  0
H  H12  1  0.72042678  0.12482943  0.93087923  1  0  0.108417  0  0.92268  0  0  0.122691  0  0.972382  0  0  0.124441  0  0.971886  0  0.112832  0  0.11695  0.120984  0  0.97331  0
H  H13  1  0.30505595  0.20818339  0.43095197  1  0  0.106865  0  0.924692  0  0  0.121675  0  0.974076  0  0  0.123449  0  0.973562  0  0.106012  0  0.11639  0.119908  0  0.975083  0
H  H14  1  0.27956777  0.87517065  0.06911409  1  0  0.108392  0  0.92274  0  0  0.122668  0  0.972444  0  0  0.124419  0  0.971948  0  0.113018  0  0.116927  0.120963  0  0.97337  0
H  H15  1  0.69492982  0.79181561  0.56904204  1  0  0.106941  0  0.924697  0  0  0.121745  0  0.974059  0  0  0.123517  0  0.973545  0  0.106151  0  0.116405  0.119976  0  0.975071  0
H  H16  1  0.74600260  0.34443109  0.06088219  1  0  0.118368  0  0.974426  0  0  0.124697  0  1.039925  0  0  0.127759  0  1.039144  0  0.143355  0  0.109831  0.122521  0  1.040607  0
H  H17  1  0.21708685  0.31327073  0.56089909  1  0  0.117214  0  0.976897  0  0  0.123705  0  1.042322  0  0  0.126714  0  1.041687  0  0.129444  0  0.10945  0.121565  0  1.042901  0
H  H18  1  0.25399730  0.65556899  0.93911216  1  0  0.118312  0  0.974563  0  0  0.124685  0  1.040005  0  0  0.127747  0  1.039225  0  0.143328  0  0.109795  0.122509  0  1.040688  0
H  H19  1  0.78291032  0.68673151  0.43909891  1  0  0.117302  0  0.976874  0  0  0.123744  0  1.042356  0  0  0.126754  0  1.04172  0  0.129303  0  0.10948  0.121605  0  1.042935  0
H  H20  1  0.74298315  0.54430793  0.13970518  1  0  0.122903  0  0.982361  0  0  0.130179  0  1.045725  0  0  0.134247  0  1.043147  0  0.143465  0  0.107837  0.127004  0  1.048091  0
H  H21  1  0.09609455  0.39544591  0.63912165  1  0  0.123682  0  0.98606  0  0  0.131191  0  1.048923  0  0  0.135286  0  1.046356  0  0.143706  0  0.1086  0.127994  0  1.051288  0
H  H22  1  0.25701884  0.45568243  0.86029833  1  0  0.122923  0  0.982304  0  0  0.130181  0  1.045698  0  0  0.134247  0  1.04312  0  0.143649  0  0.107868  0.127006  0  1.048061  0
H  H23  1  0.90391485  0.60455849  0.36088098  1  0  0.123677  0  0.986057  0  0  0.131179  0  1.04892  0  0  0.13527  0  1.046361  0  0.143661  0  0.108622  0.127982  0  1.051293  0
H  H24  1  0.73843269  0.75993458  0.26306788  1  0  0.110289  0  0.940547  0  0  0.120457  0  0.997112  0  0  0.123973  0  0.993974  0  0.122873  0  0.111366  0.117716  0  0.999724  0
H  H25  1  0.00444750  0.52375765  0.76196527  1  0  0.110237  0  0.939025  0  0  0.120545  0  0.995253  0  0  0.12412  0  0.992072  0  0.126873  0  0.112004  0.117781  0  0.997883  0
H  H26  1  0.26156693  0.24005469  0.73693500  1  0  0.110246  0  0.940654  0  0  0.120429  0  0.99721  0  0  0.123943  0  0.994076  0  0.122934  0  0.11134  0.117689  0  0.999819  0
H  H27  1  0.99555797  0.47624351  0.23803545  1  0  0.110192  0  0.939118  0  0  0.120621  0  0.995175  0  0  0.12418  0  0.992015  0  0.126855  0  0.112042  0.117856  0  0.997804  0
H  H28  1  0.50594679  0.77909648  0.29416146  1  0  0.125251  0  0.953573  0  0  0.131872  0  1.015316  0  0  0.135384  0  1.013876  0  0.151373  0  0.111121  0.1293  0  1.016474  0
H  H29  1  0.01648541  0.78915444  0.79335030  1  0  0.124885  0  0.951245  0  0  0.131903  0  1.012752  0  0  0.135301  0  1.011393  0  0.136388  0  0.111841  0.129421  0  1.013823  0
H  H30  1  0.49405199  0.22089388  0.70583630  1  0  0.125263  0  0.953547  0  0  0.131878  0  1.015307  0  0  0.135386  0  1.013871  0  0.151428  0  0.11114  0.129307  0  1.016464  0
H  H31  1  0.98351875  0.21084564  0.20665193  1  0  0.124908  0  0.951233  0  0  0.131931  0  1.012721  0  0  0.13533  0  1.011364  0  0.136364  0  0.111844  0.129449  0  1.013794  0
H  H32  1  0.28701296  0.57104274  0.20415989  1  0  0.0834  0  0.931765  0  0  0.09323  0  0.990938  0  0  0.095472  0  0.989264  0  0.105472  0  0.119261  0.091364  0  0.992405  0
H  H33  1  0.13371686  0.91898855  0.70406789  1  0  0.083335  0  0.931348  0  0  0.093924  0  0.989715  0  0  0.096156  0  0.988053  0  0.091263  0  0.119338  0.09205  0  0.991202  0
H  H34  1  0.71298655  0.42895086  0.79583659  1  0  0.083412  0  0.931783  0  0  0.093234  0  0.990965  0  0  0.095477  0  0.989293  0  0.105454  0  0.119251  0.091368  0  0.992432  0
H  H35  1  0.86629229  0.08101477  0.29593773  1  0  0.083219  0  0.931414  0  0  0.093821  0  0.989771  0  0  0.096054  0  0.98811  0  0.091297  0  0.119294  0.091947  0  0.991257  0
C  C36  1  0.36746310  0.09853329  0.91705381  1  0  0.126794  0  3.736141  0  0  0.095436  0  3.994035  0  0  0.101449  0  4.014497  0  0.515605  0  0.049129  0.091902  0  3.979922  0
C  C37  1  0.31736721  0.54935798  0.41751167  1  0  0.12717  0  3.73223  0  0  0.095942  0  3.989593  0  0  0.101976  0  4.010019  0  0.512449  0  0.049939  0.092416  0  3.975474  0
C  C38  1  0.63252952  0.90145815  0.08294164  1  0  0.12676  0  3.736074  0  0  0.095411  0  3.993965  0  0  0.101428  0  4.014416  0  0.516253  0  0.049074  0.091879  0  3.979851  0
C  C39  1  0.68263126  0.45064534  0.58248611  1  0  0.127154  0  3.732161  0  0  0.095965  0  3.989519  0  0  0.101999  0  4.009944  0  0.512578  0  0.049935  0.092438  0  3.975402  0
C  C40  1  0.48646750  0.06104686  0.89399510  1  0  -0.109192  0  3.723041  0  0  -0.124336  0  3.977348  0  0  -0.130821  0  3.99903  0  0.000731  0  -0.076298  -0.120595  0  3.962821  0
C  C41  1  0.33163698  0.40647413  0.39439705  1  0  -0.105624  0  3.720098  0  0  -0.120776  0  3.974356  0  0  -0.127191  0  3.996007  0  -0.032435  0  -0.075346  -0.11709  0  3.959769  0
C  C42  1  0.51352953  0.93894998  0.10600076  1  0  -0.109167  0  3.722867  0  0  -0.124373  0  3.977221  0  0  -0.130841  0  3.998904  0  -4.4e-05  0  -0.076248  -0.12063  0  3.962691  0
C  C43  1  0.66835461  0.59352703  0.60559906  1  0  -0.105575  0  3.720159  0  0  -0.120724  0  3.974401  0  0  -0.127139  0  3.996052  0  -0.032605  0  -0.075307  -0.117037  0  3.959813  0
C  C44  1  0.62449410  0.15086411  0.94659054  1  0  0.002769  0  3.703469  0  0  -0.014123  0  3.951533  0  0  -0.011317  0  3.971397  0  -0.038871  0  -0.058666  -0.015175  0  3.937874  0
C  C45  1  0.29496920  0.32054436  0.44676720  1  0  0.002768  0  3.701599  0  0  -0.014781  0  3.949787  0  0  -0.012014  0  3.969706  0  -0.027698  0  -0.058851  -0.015765  0  3.936038  0
C  C46  1  0.37549997  0.84913381  0.05340363  1  0  0.002792  0  3.703408  0  0  -0.014103  0  3.951512  0  0  -0.011296  0  3.971369  0  -0.038926  0  -0.058634  -0.015156  0  3.937854  0
C  C47  1  0.70502559  0.67945680  0.55322953  1  0  0.002627  0  3.701683  0  0  -0.014911  0  3.949856  0  0  -0.012144  0  3.969779  0  -0.027665  0  -0.058892  -0.015893  0  3.936105  0
C  C48  1  0.63871751  0.27422736  0.01917105  1  0  -0.139121  0  3.673351  0  0  -0.157629  0  3.921538  0  0  -0.164865  0  3.943867  0  -0.073653  0  -0.076761  -0.15361  0  3.907159  0
C  C49  1  0.24488512  0.37924231  0.51927710  1  0  -0.137603  0  3.67356  0  0  -0.156185  0  3.921624  0  0  -0.163445  0  3.943995  0  -0.045109  0  -0.075797  -0.152111  0  3.907124  0
C  C50  1  0.36127846  0.72576948  0.98082524  1  0  -0.139094  0  3.6737  0  0  -0.157633  0  3.921847  0  0  -0.164872  0  3.944177  0  -0.074432  0  -0.076756  -0.153615  0  3.90747  0
C  C51  1  0.75510647  0.62075885  0.48071774  1  0  -0.137606  0  3.673545  0  0  -0.15621  0  3.921643  0  0  -0.163472  0  3.944014  0  -0.045339  0  -0.075832  -0.152138  0  3.907142  0
C  C52  1  0.51329431  0.30680852  0.03691066  1  0  0.177783  0  3.754041  0  0  0.173372  0  3.996074  0  0  0.180177  0  4.016893  0  0.489966  0  0.120587  0.168636  0  3.982626  0
C  C53  1  0.23004610  0.52321526  0.53704666  1  0  0.178791  0  3.751959  0  0  0.174221  0  3.994109  0  0  0.181074  0  4.014893  0  0.481979  0  0.121054  0.169477  0  3.980637  0
C  C54  1  0.48670210  0.69318076  0.96308967  1  0  0.177845  0  3.754131  0  0  0.173483  0  3.996179  0  0  0.18029  0  4.016998  0  0.490562  0  0.120721  0.168748  0  3.98273  0
C  C55  1  0.76996188  0.47679238  0.46295491  1  0  0.178658  0  3.751873  0  0  0.174232  0  3.993872  0  0  0.181084  0  4.014659  0  0.481954  0  0.121051  0.169487  0  3.980398  0
C  C56  1  0.51852108  0.43939131  0.11080146  1  0  0.173896  0  3.756876  0  0  0.169569  0  3.99829  0  0  0.17602  0  4.019048  0  0.464966  0  0.116404  0.165253  0  3.983948  0
C  C57  1  0.17180609  0.59226938  0.61070745  1  0  0.173997  0  3.754605  0  0  0.169312  0  3.997103  0  0  0.175741  0  4.017829  0  0.44396  0  0.117058  0.165013  0  3.982774  0
C  C58  1  0.48147854  0.56059797  0.88919822  1  0  0.173965  0  3.756796  0  0  0.169547  0  3.998339  0  0  0.175998  0  4.019098  0  0.465036  0  0.116408  0.165231  0  3.983995  0
C  C59  1  0.82820748  0.40773934  0.38929537  1  0  0.173905  0  3.754673  0  0  0.169161  0  3.997186  0  0  0.17559  0  4.017915  0  0.444223  0  0.11693  0.164862  0  3.982856  0
C  C60  1  0.64458343  0.55040927  0.15739304  1  0  -0.140413  0  3.676844  0  0  -0.159299  0  3.925428  0  0  -0.166269  0  3.946618  0  0.005397  0  -0.078785  -0.154433  0  3.911314  0
C  C61  1  0.10785379  0.51227240  0.65697898  1  0  -0.142297  0  3.674545  0  0  -0.161249  0  3.923409  0  0  -0.168228  0  3.944558  0  -0.00876  0  -0.080406  -0.156386  0  3.909336  0
C  C62  1  0.35541477  0.44958325  0.84260558  1  0  -0.140366  0  3.676775  0  0  -0.159225  0  3.925451  0  0  -0.166189  0  3.946632  0  0.005471  0  -0.078827  -0.154363  0  3.911346  0
C  C63  1  0.89215585  0.48773308  0.34302194  1  0  -0.142126  0  3.674657  0  0  -0.161071  0  3.923564  0  0  -0.168047  0  3.944706  0  -0.00895  0  -0.080363  -0.156213  0  3.909492  0
C  C64  1  0.64153658  0.67253000  0.22478922  1  0  0.00728  0  3.692712  0  0  -0.011554  0  3.945003  0  0  -0.008541  0  3.963305  0  -0.075723  0  -0.062041  -0.013063  0  3.932308  0
C  C65  1  0.05341507  0.58298286  0.72411431  1  0  0.007229  0  3.692209  0  0  -0.011643  0  3.944802  0  0  -0.008698  0  3.963058  0  -0.066264  0  -0.062257  -0.01312  0  3.932158  0
C  C66  1  0.35846444  0.32745604  0.77521472  1  0  0.007202  0  3.69288  0  0  -0.011654  0  3.945209  0  0  -0.008642  0  3.963512  0  -0.076213  0  -0.062049  -0.013165  0  3.932515  0
C  C67  1  0.94659088  0.41702046  0.27588620  1  0  0.007169  0  3.692162  0  0  -0.011778  0  3.944724  0  0  -0.008822  0  3.96298  0  -0.066195  0  -0.06227  -0.013253  0  3.932082  0
C  C68  1  0.51307900  0.68308497  0.24383957  1  0  -0.115853  0  3.703533  0  0  -0.126959  0  3.953856  0  0  -0.133658  0  3.975672  0  -0.053697  0  -0.078378  -0.122659  0  3.938717  0
C  C69  1  0.06181977  0.73136624  0.74321315  1  0  -0.114453  0  3.700308  0  0  -0.126126  0  3.951432  0  0  -0.132665  0  3.973274  0  -0.006374  0  -0.078897  -0.121955  0  3.936312  0
C  C70  1  0.48692038  0.31690322  0.75616053  1  0  -0.11578  0  3.703559  0  0  -0.126878  0  3.953928  0  0  -0.13357  0  3.975739  0  -0.053659  0  -0.078368  -0.122579  0  3.938788  0
C  C71  1  0.93818725  0.26863708  0.25678949  1  0  -0.114477  0  3.700278  0  0  -0.126164  0  3.951432  0  0  -0.132704  0  3.973271  0  -0.005941  0  -0.078893  -0.121995  0  3.936312  0
C  C72  1  0.39177896  0.56876946  0.19407102  1  0  0.124164  0  3.730543  0  0  0.093915  0  3.983722  0  0  0.099749  0  4.003831  0  0.491067  0  0.046959  0.090352  0  3.969671  0
C  C73  1  0.12598208  0.80341214  0.69380257  1  0  0.120924  0  3.72688  0  0  0.09035  0  3.980479  0  0  0.096139  0  4.000602  0  0.473076  0  0.046422  0.086812  0  3.966446  0
C  C74  1  0.60821852  0.43121982  0.80592696  1  0  0.123991  0  3.730693  0  0  0.09374  0  3.983872  0  0  0.099573  0  4.003982  0  0.490853  0  0.04688  0.090178  0  3.96982  0
C  C75  1  0.87402518  0.19659226  0.30619965  1  0  0.121108  0  3.726971  0  0  0.09053  0  3.980561  0  0  0.096318  0  4.000686  0  0.472608  0  0.046496  0.086992  0  3.966525  0
C  C76  1  0.02140719  0.50476215  0.95606374  1  0  0.518724  0  3.95068  0  0  0.476967  0  4.242648  0  0  0.506306  0  4.237111  0  1.586463  0  0.194674  0.457159  0  4.244946  0
C  C77  1  0.95157287  0.93410413  0.45603199  1  0  0.519201  0  3.946459  0  0  0.47698  0  4.238901  0  0  0.506338  0  4.233274  0  1.578486  0  0.195808  0.457169  0  4.241233  0
C  C78  1  0.97859273  0.49524765  0.04393597  1  0  0.518877  0  3.950424  0  0  0.477064  0  4.242473  0  0  0.506403  0  4.236936  0  1.568958  0  0.194711  0.457257  0  4.244771  0
C  C79  1  0.04843877  0.06589595  0.54397105  1  0  0.519043  0  3.946841  0  0  0.476808  0  4.239301  0  0  0.506165  0  4.233678  0  1.592932  0  0.195679  0.456997  0  4.24163  0
C  C80  1  0.97174887  0.98577371  0.94449070  1  0  0.506813  0  3.960364  0  0  0.464159  0  4.25804  0  0  0.493171  0  4.253728  0  1.586986  0  0.185672  0.444304  0  4.26082  0
C  C81  1  0.45817672  0.97272180  0.44454821  1  0  0.509949  0  3.957026  0  0  0.467134  0  4.25479  0  0  0.496151  0  4.250412  0  1.569181  0  0.186878  0.447252  0  4.257662  0
C  C82  1  0.02823325  0.01423285  0.05550569  1  0  0.50721  0  3.959844  0  0  0.464543  0  4.257509  0  0  0.493556  0  4.25319  0  1.563029  0  0.185795  0.444688  0  4.260294  0
C  C83  1  0.54183481  0.02728260  0.55546252  1  0  0.509992  0  3.956632  0  0  0.46719  0  4.254392  0  0  0.496209  0  4.25001  0  1.590656  0  0.186948  0.447308  0  4.257265  0
N  N84  1  0.38091336  0.21795828  0.98603638  1  0  -0.363178  0  3.26051  0  0  -0.292709  0  3.521615  0  0  -0.312146  0  3.540578  0  -1.238681  0  -0.325728  -0.279241  0  3.508794  0
N  N85  1  0.26754567  0.60515707  0.48637417  1  0  -0.364122  0  3.258358  0  0  -0.293072  0  3.519102  0  0  -0.312551  0  3.538071  0  -1.242134  0  -0.326077  -0.279545  0  3.506199  0
N  N86  1  0.61908199  0.78203100  0.01396182  1  0  -0.363203  0  3.260518  0  0  -0.292776  0  3.521651  0  0  -0.312216  0  3.540618  0  -1.238616  0  -0.325786  -0.279309  0  3.508833  0
N  N87  1  0.73245707  0.39484626  0.51362444  1  0  -0.364046  0  3.258251  0  0  -0.293059  0  3.518971  0  0  -0.312537  0  3.537938  0  -1.24201  0  -0.326073  -0.279533  0  3.506071  0
N  N88  1  0.39482625  0.45024773  0.13006352  1  0  -0.368803  0  3.261559  0  0  -0.298146  0  3.523669  0  0  -0.317092  0  3.541714  0  -1.234747  0  -0.329687  -0.284934  0  3.51064  0
N  N89  1  0.18022695  0.73609972  0.63007628  1  0  -0.365949  0  3.257499  0  0  -0.295727  0  3.520136  0  0  -0.314639  0  3.53822  0  -1.224106  0  -0.32885  -0.282552  0  3.507063  0
N  N90  1  0.60517385  0.54974371  0.86993531  1  0  -0.368743  0  3.261514  0  0  -0.298033  0  3.523626  0  0  -0.31698  0  3.541674  0  -1.234582  0  -0.329638  -0.28482  0  3.510595  0
N  N91  1  0.81978104  0.26390792  0.36992593  1  0  -0.365989  0  3.25746  0  0  -0.295774  0  3.520118  0  0  -0.314685  0  3.538202  0  -1.224196  0  -0.328879  -0.282598  0  3.507044  0
O  O92  1  0.10637118  0.42710544  0.93391015  1  0  -0.589481  0  2.05121  0  0  -0.530675  0  2.29426  0  0  -0.556038  0  2.283769  0  -1.162083  0  -0.319385  -0.512269  0  2.301002  0
O  O93  1  0.00763180  0.82732264  0.43359389  1  0  -0.586926  0  2.052239  0  0  -0.527957  0  2.29495  0  0  -0.553272  0  2.284543  0  -1.163596  0  -0.318707  -0.509582  0  2.301636  0
O  O94  1  0.89362681  0.57289572  0.06608977  1  0  -0.589446  0  2.051176  0  0  -0.530612  0  2.294246  0  0  -0.555976  0  2.283757  0  -1.16215  0  -0.319343  -0.512208  0  2.300987  0
O  O95  1  0.99237594  0.17268392  0.56641003  1  0  -0.586904  0  2.052225  0  0  -0.527959  0  2.294979  0  0  -0.553281  0  2.284574  0  -1.163553  0  -0.318676  -0.509582  0  2.301662  0
O  O96  1  0.96981328  0.59053093  0.91239506  1  0  -0.593839  0  2.034389  0  0  -0.536889  0  2.277766  0  0  -0.562683  0  2.268449  0  -1.164697  0  -0.321068  -0.518027  0  2.283303  0
O  O97  1  0.82186687  0.94081052  0.41255121  1  0  -0.594336  0  2.037542  0  0  -0.536865  0  2.281689  0  0  -0.562695  0  2.272355  0  -1.16925  0  -0.320504  -0.517944  0  2.287242  0
O  O98  1  0.03018486  0.40947563  0.08760636  1  0  -0.593872  0  2.034127  0  0  -0.53693  0  2.277544  0  0  -0.562723  0  2.268221  0  -1.164703  0  -0.321109  -0.518066  0  2.283082  0
O  O99  1  0.17813757  0.05920036  0.58745210  1  0  -0.594176  0  2.037989  0  0  -0.536673  0  2.282116  0  0  -0.562502  0  2.272787  0  -1.169516  0  -0.320396  -0.517755  0  2.287666  0
O  O100  1  0.03072443  0.07455472  0.91245974  1  0  -0.587172  0  2.022398  0  0  -0.531463  0  2.261017  0  0  -0.55591  0  2.249795  0  -1.159681  0  -0.332679  -0.513992  0  2.26896  0
O  O101  1  0.33622008  0.88337455  0.41261524  1  0  -0.587713  0  2.021068  0  0  -0.532167  0  2.25936  0  0  -0.556527  0  2.24807  0  -1.163717  0  -0.33224  -0.514749  0  2.267438  0
O  O102  1  0.96925866  0.92545616  0.08753816  1  0  -0.587377  0  2.022312  0  0  -0.531668  0  2.260942  0  0  -0.556115  0  2.249715  0  -1.159713  0  -0.332753  -0.514197  0  2.268888  0
O  O103  1  0.66379424  0.11664714  0.58739743  1  0  -0.587841  0  2.020628  0  0  -0.532295  0  2.258914  0  0  -0.55666  0  2.247624  0  -1.164061  0  -0.332337  -0.514876  0  2.266992  0
O  O104  1  0.87081475  0.87541375  0.89316288  1  0  -0.588626  0  2.023648  0  0  -0.533601  0  2.264995  0  0  -0.557687  0  2.252661  0  -1.157699  0  -0.33338  -0.515955  0  2.272673  0
O  O105  1  0.51762696  0.02063239  0.39317357  1  0  -0.59013  0  2.023643  0  0  -0.534598  0  2.265269  0  0  -0.558818  0  2.25299  0  -1.157635  0  -0.333153  -0.516846  0  2.272966  0
O  O106  1  0.12917189  0.12459389  0.10683391  1  0  -0.588719  0  2.023329  0  0  -0.533697  0  2.264692  0  0  -0.557785  0  2.252355  0  -1.157739  0  -0.333433  -0.516054  0  2.27238  0
O  O107  1  0.48238253  0.97936769  0.60682969  1  0  -0.590049  0  2.02372  0  0  -0.534518  0  2.265349  0  0  -0.558734  0  2.253069  0  -1.157894  0  -0.333098  -0.516769  0  2.273046  0
