# generated using pymatgen
data_Zn3H12C35Br2(ClO3)4
_symmetry_space_group_name_H-M   'P 1'
_cell_length_a   18.56627103
_cell_length_b   18.55615692
_cell_length_c   18.75430759
_cell_angle_alpha   109.79826201
_cell_angle_beta   109.10568544
_cell_angle_gamma   108.98837221
_symmetry_Int_Tables_number   1
_chemical_formula_structural   Zn3H12C35Br2(ClO3)4
_chemical_formula_sum   'Zn6 H24 C70 Br4 Cl8 O24'
_cell_volume   5005.36690672
_cell_formula_units_Z   2
loop_
 _symmetry_equiv_pos_site_id
 _symmetry_equiv_pos_as_xyz
  1  'x, y, z'
loop_
 _atom_site_type_symbol
 _atom_site_label
 _atom_site_symmetry_multiplicity
 _atom_site_fract_x
 _atom_site_fract_y
 _atom_site_fract_z
 _atom_site_occupancy
 _atom_site_pbe_bader_charge
 _atom_site_pbe_bader_spin_density
 _atom_site_pbe_cm5_charge
 _atom_site_pbe_ddec_charge
 _atom_site_pbe_ddec_spin_density
 _atom_site_pbe_ddec_sum_bond_order
 _atom_site_pbe_magmom
Zn  Zn0  1  0.07044905  0.00105933  0.56611249  1  1.307839  0  0.726024  0.961837  0  2.113475  0
Zn  Zn1  1  0.94509913  0.00171276  0.44171799  1  1.310944  0  0.722303  0.963104  0  2.13146  0
Zn  Zn2  1  0.50274025  0.57059966  0.55886067  1  1.309388  0  0.727615  0.957615  0  2.136284  0
Zn  Zn3  1  0.50937633  0.44436540  0.43905604  1  1.315183  0  0.732955  0.983878  0  2.078314  0
Zn  Zn4  1  0.92829850  0.43235454  0.99789013  1  1.310204  0  0.726718  0.957695  0  2.124051  0
Zn  Zn5  1  0.05708904  0.54783865  0.99097018  1  1.316594  0  0.729645  0.974162  0  2.119895  0
H  H6  1  0.59336242  0.69133365  0.37131829  1  0.088897  0  0.098185  0.089784  0  1.01242  0
H  H7  1  0.31472114  0.79122085  0.34951079  1  0.073371  0  0.108226  0.106813  0  0.978957  0
H  H8  1  0.16651055  0.66901531  0.23551079  1  0.077273  0  0.100353  0.10931  0  1.024733  0
H  H9  1  0.87545976  0.61687779  0.16131276  1  0.069925  0  0.112102  0.118915  0  0.97969  0
H  H10  1  0.18846337  0.23166452  0.65523950  1  0.12929  0  0.105256  0.132101  0  1.016704  0
H  H11  1  0.43694181  0.46900766  0.80804179  1  0.070689  0  0.110528  0.123733  0  0.979686  0
H  H12  1  0.43478026  0.46474086  0.67454629  1  0.106754  0  0.106357  0.11817  0  1.00713  0
H  H13  1  0.99179296  0.22907575  0.64122745  1  0.08565  0  0.110348  0.1204  0  0.983008  0
H  H14  1  0.74745615  0.69286443  0.37233136  1  0.110173  0  0.111676  0.114118  0  0.965507  0
H  H15  1  0.04421075  0.05306693  0.76787475  1  0.119801  0  0.098714  0.113758  0  1.037795  0
H  H16  1  0.03294267  0.03597767  0.88974950  1  0.066767  0  0.102557  0.116457  0  0.995645  0
H  H17  1  0.96101946  0.23821608  0.95043604  1  0.126786  0  0.105099  0.134307  0  1.015321  0
H  H18  1  0.96645624  0.33270564  0.74213455  1  0.09131  0  0.111411  0.119416  0  0.980215  0
H  H19  1  0.28331900  0.46652362  0.41001476  1  0.083842  0  0.097511  0.106083  0  1.047822  0
H  H20  1  0.15659590  0.46631959  0.42397971  1  0.082633  0  0.110624  0.125007  0  0.974338  0
H  H21  1  0.06535479  0.49457412  0.19856628  1  0.092407  0  0.102007  0.127038  0  1.04617  0
H  H22  1  0.28515919  0.51241206  0.11087700  1  0.112298  0  0.112539  0.130853  0  0.985826  0
H  H23  1  0.73815220  0.65556914  0.66788434  1  0.094035  0  0.09959  0.108766  0  1.026884  0
H  H24  1  0.85760406  0.80456548  0.78345963  1  0.101057  0  0.102302  0.115115  0  1.008377  0
H  H25  1  0.75972126  0.38748624  0.76310245  1  0.130252  0  0.113155  0.134385  0  0.979869  0
H  H26  1  0.73111849  0.85280915  0.62994164  1  0.089628  0  0.112258  0.119555  0  0.966338  0
H  H27  1  0.69295486  0.87802636  0.48301842  1  0.101583  0  0.110123  0.104053  0  0.975008  0
H  H28  1  0.89386919  0.74868574  0.27805970  1  0.088627  0  0.109476  0.11561  0  0.981222  0
H  H29  1  0.33423143  0.93646166  0.44389429  1  0.050104  0  0.107935  0.119732  0  0.987143  0
C  C30  1  0.03373561  0.88838925  0.40835336  1  1.556915  0  0.218314  0.603977  0  4.159578  0
C  C31  1  0.73371283  0.81707323  0.57189695  1  -0.01564  0  -0.075234  -0.105233  0  3.639655  0
C  C32  1  0.71251883  0.83049416  0.49086580  1  -0.047503  0  -0.067385  -0.051307  0  3.616523  0
C  C33  1  0.79739027  0.83054230  0.49182176  1  0.005494  0  -0.001921  -0.048404  0  3.623159  0
C  C34  1  0.19734967  0.88972910  0.39460048  1  0.005258  0  0.016797  0.105262  0  4.013439  0
C  C35  1  0.26899305  0.87976408  0.39909993  1  0.026368  0  -0.095819  -0.154487  0  4.022839  0
C  C36  1  0.25750691  0.79834376  0.34429008  1  0.004203  0  -0.087175  -0.059009  0  4.043503  0
C  C37  1  0.17474542  0.72975477  0.28152920  1  -0.018757  0  -0.093148  -0.131886  0  3.978543  0
C  C38  1  0.09971951  0.73735575  0.27600470  1  -0.007208  0  0.006244  0.077002  0  3.932156  0
C  C39  1  0.11014801  0.81676942  0.33891920  1  0.071473  0  0.000524  0.002032  0  3.904743  0
C  C40  1  0.03341860  0.81756760  0.33915532  1  -0.043691  0  -0.005423  -0.044351  0  3.910597  0
C  C41  1  0.86363437  0.88979160  0.48090534  1  1.550404  0  0.215632  0.607117  0  4.15238  0
C  C42  1  0.95117523  0.74608167  0.27648156  1  -0.007374  0  -0.080423  -0.089484  0  3.977408  0
C  C43  1  0.94069316  0.67126559  0.21159944  1  -0.004168  0  -0.080924  -0.094308  0  4.001625  0
C  C44  1  0.01314045  0.66697503  0.21006592  1  0.021933  0  -0.008481  -0.065075  0  3.923124  0
C  C45  1  0.24105913  0.28228944  0.65786150  1  0.031561  0  -0.098552  -0.199766  0  3.931012  0
C  C46  1  0.31054331  0.35083400  0.73761377  1  -0.013297  0  0.013211  0.161074  0  4.078541  0
C  C47  1  0.38188354  0.41651681  0.74426027  1  0.002167  0  -0.09246  -0.14627  0  4.009634  0
C  C48  1  0.38053551  0.41340190  0.66947698  1  0.012162  0  -0.085664  -0.104922  0  3.966651  0
C  C49  1  0.30923681  0.34523824  0.58569310  1  -0.007452  0  -0.001073  0.061047  0  3.962853  0
C  C50  1  0.23910994  0.27660292  0.57972520  1  0.032206  0  0.003659  0.086085  0  3.948824  0
C  C51  1  0.16937705  0.20463814  0.49556430  1  0.018873  0  -0.012086  -0.100808  0  3.88821  0
C  C52  1  0.02448354  0.10616133  0.64933867  1  1.532345  0  0.220811  0.601681  0  4.12751  0
C  C53  1  0.16880812  0.20334361  0.42086953  1  -0.010958  0  -0.014488  0.030845  0  3.937149  0
C  C54  1  0.23697887  0.27316712  0.42685254  1  0.080737  0  0.01361  0.079517  0  4.029335  0
C  C55  1  0.30661983  0.34217261  0.50775350  1  0.026968  0  -0.012339  -0.116813  0  3.906952  0
C  C56  1  0.02564122  0.09326659  0.80719469  1  -0.033766  0  -0.092823  -0.117967  0  3.992202  0
C  C57  1  0.01992873  0.08396242  0.87520438  1  0.026151  0  -0.095829  -0.144419  0  4.006498  0
C  C58  1  0.99654176  0.13701843  0.92657852  1  -0.006064  0  0.01235  0.162681  0  4.076595  0
C  C59  1  0.97918179  0.19825504  0.91023777  1  0.05207  0  -0.099964  -0.208365  0  3.942857  0
C  C60  1  0.98407812  0.20867532  0.84006220  1  -0.003393  0  0.003537  0.077003  0  3.947471  0
C  C61  1  0.00780395  0.15477249  0.78686827  1  -0.013762  0  6.1e-05  0.056805  0  3.944013  0
C  C62  1  0.00943162  0.16329512  0.71440743  1  -0.031732  0  -0.00753  -0.065094  0  3.924595  0
C  C63  1  0.10042910  0.12902821  0.49011863  1  1.59233  0  0.21996  0.618191  0  4.127994  0
C  C64  1  0.99163837  0.22473051  0.69764825  1  0.035497  0  -0.082797  -0.094446  0  4.002141  0
C  C65  1  0.97524349  0.28138401  0.75298423  1  -0.027301  0  -0.081377  -0.091499  0  4.004442  0
C  C66  1  0.96992479  0.27340806  0.82222952  1  -0.043474  0  -0.006946  -0.064651  0  3.919143  0
C  C67  1  0.39267337  0.48068149  0.35533296  1  1.555584  0  0.219223  0.614429  0  4.147551  0
C  C68  1  0.61641763  0.64901186  0.51790924  1  1.528415  0  0.215665  0.605611  0  4.150752  0
C  C69  1  0.62800209  0.49520946  0.59984842  1  1.567129  0  0.224218  0.625574  0  4.137554  0
C  C70  1  0.38174062  0.41200067  0.51378849  1  1.562067  0  0.223465  0.617556  0  4.137791  0
C  C71  1  0.90073184  0.52568800  0.89162832  1  1.561351  0  0.215899  0.602172  0  4.167553  0
C  C72  1  0.99770217  0.59235992  0.13200896  1  1.536069  0  0.222444  0.603557  0  4.137188  0
C  C73  1  0.13486658  0.50159328  0.09728594  1  1.540448  0  0.220698  0.604749  0  4.131824  0
C  C74  1  0.74217736  0.72740391  0.42886974  1  -0.02652  0  -0.06691  -0.080616  0  3.617251  0
C  C75  1  0.95785969  0.34140608  0.87970691  1  1.537862  0  0.223625  0.614051  0  4.122264  0
C  C76  1  0.23620525  0.47211327  0.36273206  1  0.053496  0  -0.091314  -0.109772  0  3.981487  0
C  C77  1  0.16559710  0.47258611  0.37140252  1  -0.016202  0  -0.090915  -0.138685  0  3.99467  0
C  C78  1  0.10487116  0.48199218  0.31172744  1  0.038733  0  0.014273  0.163781  0  4.075531  0
C  C79  1  0.11417348  0.48909123  0.24413566  1  0.058692  0  -0.100864  -0.205457  0  3.943809  0
C  C80  1  0.18616560  0.48812831  0.23342087  1  -0.056525  0  0.003944  0.078399  0  3.939687  0
C  C81  1  0.24971918  0.48076476  0.29494816  1  -0.008127  0  0.001926  0.065692  0  3.928221  0
C  C82  1  0.32444586  0.48239261  0.28685693  1  0.063305  0  -0.00995  -0.10525  0  3.894523  0
C  C83  1  0.33554521  0.49361806  0.22106293  1  -0.09314  0  -0.012516  0.090331  0  3.969079  0
C  C84  1  0.27462791  0.50269217  0.16146621  1  0.013739  0  -0.085181  -0.145268  0  3.983006  0
C  C85  1  0.65833985  0.72847019  0.42862065  1  -0.016409  0  -0.064891  -0.040394  0  3.59304  0
C  C86  1  0.20066037  0.49839764  0.16601967  1  0.023327  0  -0.006293  -0.053017  0  3.925153  0
C  C87  1  0.78307796  0.66522735  0.72900385  1  -0.046905  0  -0.092138  -0.11321  0  3.989325  0
C  C88  1  0.84869154  0.74856526  0.79354465  1  0.064423  0  -0.092486  -0.126709  0  4.009381  0
C  C89  1  0.90357883  0.76324405  0.87567852  1  0.048685  0  0.005937  0.103917  0  4.065998  0
C  C90  1  0.89579087  0.69299044  0.89000480  1  -0.009793  0  -0.021642  -0.006831  0  3.900093  0
C  C91  1  0.83601782  0.60444755  0.81995060  1  0.048003  0  -0.000692  0.025015  0  3.924932  0
C  C92  1  0.77323733  0.59149906  0.74042917  1  0.000706  0  0.004985  0.08163  0  3.936855  0
C  C93  1  0.70180176  0.50531795  0.67401525  1  0.033097  0  -0.010352  -0.122797  0  3.885632  0
C  C94  1  0.69691176  0.43371719  0.68431191  1  0.056679  0  0.017299  0.131571  0  4.05984  0
C  C95  1  0.76274437  0.44501845  0.75802440  1  0.067642  0  -0.083738  -0.153971  0  3.954429  0
C  C96  1  0.67952562  0.71539381  0.51072913  1  0.022164  0  -0.007439  -0.045811  0  3.650332  0
C  C97  1  0.83143231  0.52755001  0.82399299  1  -0.045624  0  -0.007455  -0.035502  0  3.912748  0
C  C98  1  0.76332530  0.71355375  0.50892982  1  0.012034  0  -0.008076  0.059138  0  3.630468  0
C  C99  1  0.81757738  0.81555838  0.57248691  1  0.138251  0  0.020308  0.104889  0  3.717099  0
Br  Br100  1  0.08197959  0.10596679  0.30890432  1  0.002268  0  0.039401  -0.025246  0  1.47414  0
Br  Br101  1  0.43655477  0.50406940  0.21031738  1  -0.055941  0  0.02633  -0.058953  0  1.372658  0
Br  Br102  1  0.80122264  0.63251814  0.52173325  1  -0.059939  0  0.005809  -0.077587  0  1.34483  0
Br  Br103  1  0.95619317  0.71783129  0.00613931  1  -0.008843  0  0.047187  -0.015142  0  1.570837  0
Cl  Cl104  1  0.31139318  0.35658907  0.83202155  1  -0.218284  0  -0.028042  -0.103963  0  1.386733  0
Cl  Cl105  1  0.23102673  0.27170753  0.33283936  1  -0.170114  0  0.013836  -0.033024  0  1.635388  0
Cl  Cl106  1  0.99005112  0.12407056  0.01190217  1  -0.216696  0  -0.03221  -0.105606  0  1.397857  0
Cl  Cl107  1  0.01724135  0.48465738  0.32410476  1  -0.215503  0  -0.025952  -0.099088  0  1.386394  0
Cl  Cl108  1  0.60968758  0.32875764  0.61024968  1  -0.185525  0  -0.009937  -0.069493  0  1.436013  0
Cl  Cl109  1  0.97689691  0.87064578  0.95682344  1  -0.190177  0  -0.012323  -0.077958  0  1.517712  0
Cl  Cl110  1  0.91695855  0.86688221  0.66630031  1  -0.201254  0  -0.010952  -0.083509  0  1.517197  0
Cl  Cl111  1  0.21763722  0.99569307  0.45291446  1  -0.194577  0  -0.004318  -0.065281  0  1.581479  0
O  O112  1  0.08032760  0.90998764  0.48775637  1  -1.12795  0  -0.314717  -0.524504  0  2.297458  0
O  O113  1  0.41729019  0.42356482  0.33292259  1  -1.114023  0  -0.310136  -0.525798  0  2.265476  0
O  O114  1  0.59108498  0.67550967  0.57327641  1  -1.121032  0  -0.317174  -0.523582  0  2.211534  0
O  O115  1  0.59290342  0.56968839  0.46853483  1  -1.170714  0  -0.312617  -0.576551  0  2.373051  0
O  O116  1  0.59158926  0.53958584  0.62165173  1  -1.170027  0  -0.309851  -0.568289  0  2.328087  0
O  O117  1  0.60614750  0.44334385  0.52164156  1  -1.122201  0  -0.307539  -0.523849  0  2.26538  0
O  O118  1  0.40300327  0.49278495  0.56029594  1  -1.122203  0  -0.308959  -0.524289  0  2.244389  0
O  O119  1  0.42017613  0.38715636  0.47441636  1  -1.156676  0  -0.304197  -0.56064  0  2.351086  0
O  O120  1  0.87388424  0.47773823  0.92228269  1  -1.173679  0  -0.315653  -0.568904  0  2.342387  0
O  O121  1  0.97997278  0.56621060  0.90799518  1  -1.128129  0  -0.315408  -0.52912  0  2.29075  0
O  O122  1  0.93781088  0.51425772  0.10381756  1  -1.135584  0  -0.313833  -0.527411  0  2.236725  0
O  O123  1  0.98295485  0.91738562  0.38273358  1  -1.168553  0  -0.314398  -0.57438  0  2.335903  0
O  O124  1  0.04260291  0.61178799  0.09611551  1  -1.167264  0  -0.30911  -0.576927  0  2.378706  0
O  O125  1  0.05493238  0.45262985  0.07061137  1  -1.178256  0  -0.305729  -0.567732  0  2.375358  0
O  O126  1  0.16216098  0.55284663  0.06845246  1  -1.130537  0  -0.316432  -0.526564  0  2.201268  0
O  O127  1  0.90629546  0.32079831  0.91039581  1  -1.131794  0  -0.312253  -0.523131  0  2.224895  0
O  O128  1  0.00142309  0.41877846  0.89481383  1  -1.176284  0  -0.313469  -0.576549  0  2.348211  0
O  O129  1  0.94167912  0.90734761  0.52334541  1  -1.16547  0  -0.309471  -0.56731  0  2.356454  0
O  O130  1  0.83800568  0.91826188  0.42884655  1  -1.127061  0  -0.322287  -0.531334  0  2.199122  0
O  O131  1  0.08019817  0.08003144  0.67314668  1  -1.130229  0  -0.311006  -0.523857  0  2.244764  0
O  O132  1  0.98059793  0.08708365  0.57133624  1  -1.177295  0  -0.311468  -0.577329  0  2.348963  0
O  O133  1  0.12742177  0.09587920  0.53490114  1  -1.168669  0  -0.303076  -0.563883  0  2.353276  0
O  O134  1  0.01992139  0.10363032  0.44134918  1  -1.123075  0  -0.312757  -0.521834  0  2.286115  0
O  O135  1  0.42150902  0.53793856  0.43297625  1  -1.174246  0  -0.306786  -0.56368  0  2.363685  0
