# generated using pymatgen
data_MnH26C40N6(OF2)2
_symmetry_space_group_name_H-M   'P 1'
_cell_length_a   7.59079742
_cell_length_b   10.61161267
_cell_length_c   11.07743059
_cell_angle_alpha   101.21414882
_cell_angle_beta   109.61550989
_cell_angle_gamma   90.17392249
_symmetry_Int_Tables_number   1
_chemical_formula_structural   MnH26C40N6(OF2)2
_chemical_formula_sum   'Mn1 H26 C40 N6 O2 F4'
_cell_volume   822.20610445
_cell_formula_units_Z   1
loop_
 _symmetry_equiv_pos_site_id
 _symmetry_equiv_pos_as_xyz
  1  'x, y, z'
loop_
 _atom_site_type_symbol
 _atom_site_label
 _atom_site_symmetry_multiplicity
 _atom_site_fract_x
 _atom_site_fract_y
 _atom_site_fract_z
 _atom_site_occupancy
 _atom_site_hle17_ddec_charge
 _atom_site_hle17_ddec_spin_density
 _atom_site_hle17_ddec_sum_bond_order
 _atom_site_hle17_magmom
 _atom_site_hse06_10hf_ddec_charge
 _atom_site_hse06_10hf_ddec_spin_density
 _atom_site_hse06_10hf_ddec_sum_bond_order
 _atom_site_hse06_10hf_magmom
 _atom_site_hse06_ddec_charge
 _atom_site_hse06_ddec_spin_density
 _atom_site_hse06_ddec_sum_bond_order
 _atom_site_hse06_magmom
 _atom_site_pbe_cm5_charge
 _atom_site_pbe_ddec_charge
 _atom_site_pbe_ddec_spin_density
 _atom_site_pbe_ddec_sum_bond_order
 _atom_site_pbe_magmom
Mn  Mn0  1  0.99999949  0.99999764  0.00000126  1  1.16421  -4.767793  1.953175  -4.654  1.020129  -4.67021  2.472775  -4.489  1.06891  -4.725675  2.402529  -4.563  0.659904  0.98202  -4.608659  2.524614  -4.409
H  H1  1  0.23893123  0.11371030  0.34799547  1  0.052891  2.1e-05  0.954672  0.0  0.071344  -0.000186  1.025714  0.0  0.071327  -4.3e-05  1.025888  0.0  0.083166  0.071425  -0.000359  1.02577  0.0
H  H2  1  0.76107252  0.88628979  0.65200580  1  0.052954  2.9e-05  0.954691  0.0  0.071392  -0.000186  1.025738  0.0  0.071375  -4.3e-05  1.025911  0.0  0.083183  0.071475  -0.000359  1.02579  0.0
H  H3  1  0.28379262  0.27386083  0.32959240  1  0.058259  -0.000469  0.961446  0.0  0.071456  -0.000726  1.039546  -0.001  0.071785  -0.000523  1.039161  0.0  0.08206  0.071129  -0.000914  1.039969  -0.001
H  H4  1  0.71620834  0.72613926  0.67040823  1  0.05829  -0.000464  0.961452  0.0  0.071487  -0.000726  1.039541  -0.001  0.071822  -0.000523  1.039152  0.0  0.082071  0.071157  -0.000914  1.039968  -0.001
H  H5  1  0.35917281  0.13948010  0.24044288  1  0.08111  0.000158  0.950622  0.0  0.098463  -9.7e-05  1.017158  0.0  0.097956  -8e-06  1.019194  0.0  0.096509  0.098845  -0.000199  1.015774  0.0
H  H6  1  0.64082814  0.86051999  0.75955504  1  0.081121  0.000157  0.950609  0.0  0.098475  -9.7e-05  1.01715  0.0  0.097969  -7e-06  1.019186  0.0  0.096516  0.09886  -0.000199  1.015765  0.0
H  H7  1  0.98016218  0.21165499  0.20354316  1  0.335195  -0.000118  0.960474  -0.001  0.300472  -0.000608  1.046794  -0.002  0.311659  -0.000375  1.035822  -0.002  0.285009  0.292677  -0.000811  1.054108  -0.002
H  H8  1  0.01984006  0.78834414  0.79645488  1  0.335229  -0.000118  0.960426  -0.001  0.300508  -0.000608  1.046739  -0.002  0.311694  -0.000375  1.035767  -0.002  0.285032  0.292716  -0.000811  1.054051  -0.002
H  H9  1  0.99908516  0.41909396  0.14207609  1  0.116292  9.1e-05  0.937766  0.0  0.125174  0.000111  0.99847  0.0  0.129491  0.000123  0.995578  0.0  0.106971  0.122035  9.5e-05  1.000641  0.0
H  H10  1  0.00091569  0.58090517  0.85792344  1  0.116297  9.7e-05  0.937764  0.0  0.125164  0.00011  0.998492  0.0  0.12948  0.000123  0.995601  0.0  0.106968  0.122027  9.5e-05  1.000666  0.0
H  H11  1  0.66790209  0.52557609  0.52569093  1  0.096952  -5e-06  0.946316  0.0  0.109583  -5.1e-05  1.010139  0.0  0.112312  -3.2e-05  1.007928  0.0  0.106559  0.107474  -7e-05  1.012002  0.0
H  H12  1  0.33210026  0.47442401  0.47430912  1  0.096966  -1.2e-05  0.946243  0.0  0.109605  -5.1e-05  1.01006  0.0  0.112328  -3.2e-05  1.007857  0.0  0.10657  0.107497  -7e-05  1.011921  0.0
H  H13  1  0.60171996  0.33260113  0.60544899  1  0.094589  -3e-06  0.977038  0.0  0.101988  -9e-06  1.044564  0.0  0.105109  -6e-06  1.042644  0.0  0.097417  0.099763  -9e-06  1.045901  0.0
H  H14  1  0.39828390  0.66739993  0.39455158  1  0.094574  -3e-06  0.977013  0.0  0.101989  -9e-06  1.04453  0.0  0.105114  -6e-06  1.042607  0.0  0.097416  0.099765  -9e-06  1.045867  0.0
H  H15  1  0.88846532  0.80254134  0.30227779  1  0.091185  5.2e-05  0.953744  0.0  0.104899  4.6e-05  1.010045  0.0  0.106921  6.4e-05  1.010591  0.0  0.101873  0.103053  2.6e-05  1.010682  0.0
H  H16  1  0.11153724  0.19746067  0.69772176  1  0.091191  5.6e-05  0.953777  0.0  0.10491  4.6e-05  1.010065  0.0  0.106929  6.4e-05  1.010614  0.0  0.101877  0.103065  2.6e-05  1.010693  0.0
H  H17  1  0.01079399  0.65577225  0.15174299  1  0.099377  0.000149  0.937512  0.0  0.111135  0.000165  0.993287  0.0  0.11407  0.000169  0.991678  0.0  0.104108  0.109037  0.000158  0.994494  0.0
H  H18  1  0.98920837  0.34422785  0.84825797  1  0.099363  0.000145  0.937537  0.0  0.111134  0.000165  0.993297  0.0  0.11407  0.000169  0.991687  0.0  0.104098  0.109028  0.000158  0.994513  0.0
H  H19  1  0.74940216  0.71575239  0.44650567  1  0.087301  -3e-06  0.962365  0.0  0.098064  -3.7e-05  1.029436  0.0  0.100456  -2.4e-05  1.028606  0.0  0.099264  0.096255  -3.7e-05  1.030413  0.0
H  H20  1  0.25059760  0.28424963  0.55349324  1  0.087288  5e-06  0.962371  0.0  0.098049  -3.7e-05  1.029437  0.0  0.100443  -2.4e-05  1.028608  0.0  0.099254  0.096236  -3.7e-05  1.030413  0.0
H  H21  1  0.85077969  0.05750197  0.28722504  1  0.111126  0.000413  0.969604  0.0  0.121052  0.000431  1.031059  0.0  0.124112  0.00046  1.030184  0.0  0.107997  0.118834  0.00039  1.0319  0.0
H  H22  1  0.14922277  0.94249909  0.71277611  1  0.111139  0.000422  0.969617  0.0  0.121075  0.000431  1.03106  0.0  0.124135  0.00046  1.03018  0.0  0.108012  0.118859  0.00039  1.0319  0.0
H  H23  1  0.61993444  0.09858509  0.59967996  1  0.093687  8.5e-05  0.955552  0.0  0.105088  6.9e-05  1.015461  0.0  0.107589  8.7e-05  1.015351  0.0  0.103015  0.103131  4.3e-05  1.016051  0.0
H  H24  1  0.38006932  0.90141500  0.40032222  1  0.09365  8.2e-05  0.955561  0.0  0.105043  6.9e-05  1.015489  0.0  0.107544  8.7e-05  1.015378  0.0  0.102999  0.103086  4.3e-05  1.016079  0.0
H  H25  1  0.74120011  0.96112529  0.43894788  1  0.08235  -1e-06  0.956601  0.0  0.095303  -1.1e-05  1.015948  0.0  0.097826  -7e-06  1.014806  0.0  0.100087  0.092608  -2.1e-05  1.018555  0.0
H  H26  1  0.25880354  0.03887384  0.56105410  1  0.082356  3e-06  0.956611  0.0  0.095268  -1.1e-05  1.015999  0.0  0.097791  -7e-06  1.014857  0.0  0.100079  0.092574  -2.1e-05  1.018599  0.0
C  C27  1  0.49815724  0.36072847  0.97581222  1  -0.068856  -0.00279  3.898259  -0.002  -0.084137  -0.004208  4.169268  -0.003  -0.083044  -0.003085  4.19123  -0.002  -0.023618  -0.082781  -0.004414  4.151968  -0.003
C  C28  1  0.50183704  0.63927451  0.02418651  1  -0.068935  -0.002801  3.898222  -0.002  -0.084231  -0.004209  4.169278  -0.003  -0.08314  -0.00308  4.19124  -0.002  -0.023619  -0.082907  -0.004415  4.152014  -0.003
C  C29  1  0.57580996  0.43546549  0.91222695  1  0.148006  -0.000926  3.79959  -0.001  0.118612  -0.001599  4.102816  -0.001  0.12599  -0.001118  4.112757  -0.001  0.077417  0.113528  -0.001947  4.094735  -0.001
C  C30  1  0.42418690  0.56453556  0.08777112  1  0.148102  -0.000943  3.79959  -0.001  0.118697  -0.001597  4.102823  -0.001  0.126076  -0.001124  4.112763  -0.001  0.077444  0.113633  -0.001947  4.094728  -0.001
C  C31  1  0.42282800  0.43137362  0.06535187  1  0.157689  -0.000955  3.79903  -0.001  0.122383  -0.001594  4.106091  -0.001  0.130046  -0.001106  4.115444  -0.001  0.081492  0.117451  -0.001888  4.09881  -0.001
C  C32  1  0.57717057  0.56863033  0.93464712  1  0.15771  -0.000965  3.79897  -0.001  0.122389  -0.001591  4.106049  -0.001  0.130053  -0.001113  4.115401  -0.001  0.081465  0.117466  -0.001888  4.098783  -0.001
C  C33  1  0.33437968  0.14787185  0.94129086  1  0.334275  -0.017225  3.839069  -0.017  0.310024  -0.02277  4.113859  -0.022  0.327875  -0.019982  4.131292  -0.02  0.190223  0.297151  -0.025944  4.102547  -0.024
C  C34  1  0.66560548  0.85212439  0.05870726  1  0.334043  -0.017308  3.83912  -0.017  0.309777  -0.022785  4.113915  -0.022  0.327629  -0.020006  4.131353  -0.02  0.190082  0.296909  -0.025964  4.102601  -0.024
C  C35  1  0.63870080  0.15592437  0.92199376  1  0.332918  -0.024986  3.839545  -0.024  0.308838  -0.030765  4.111489  -0.029  0.327301  -0.027276  4.12848  -0.026  0.187259  0.295636  -0.034313  4.100017  -0.032
C  C36  1  0.36129865  0.84407475  0.07800274  1  0.332844  -0.025003  3.839327  -0.024  0.308766  -0.030778  4.111255  -0.029  0.32723  -0.027293  4.128243  -0.026  0.187248  0.295564  -0.03433  4.099788  -0.032
C  C37  1  0.49183896  0.21980642  0.94777738  1  -0.21213  -0.005571  3.988603  -0.003  -0.19875  -0.007831  4.252157  -0.004  -0.214215  -0.005806  4.272554  -0.003  -0.058899  -0.188797  -0.011252  4.238495  -0.006
C  C38  1  0.50815800  0.78019559  0.05221998  1  -0.211913  -0.005547  3.988803  -0.003  -0.198508  -0.007837  4.252305  -0.004  -0.213972  -0.005802  4.272703  -0.003  -0.058896  -0.188551  -0.011253  4.238665  -0.006
C  C39  1  0.24745828  0.17265466  0.27811131  1  -0.016109  -0.001583  3.700073  -0.002  -0.115604  -0.003053  3.980374  -0.002  -0.108446  -0.002313  3.985883  -0.002  -0.15634  -0.12059  -0.003716  3.976198  -0.003
C  C40  1  0.75254268  0.82734543  0.72188842  1  -0.016188  -0.001597  3.700134  -0.002  -0.115677  -0.003054  3.980436  -0.002  -0.108522  -0.002311  3.98594  -0.002  -0.156364  -0.120655  -0.003716  3.976259  -0.003
C  C41  1  0.79197386  0.51699062  0.37536814  1  0.011573  0.000106  3.79985  0.0  0.0288  2.8e-05  4.033784  0.0  0.024576  8.3e-05  4.058364  0.0  -0.009318  0.031088  7.3e-05  4.017776  0.0
C  C42  1  0.20802570  0.48300948  0.62463217  1  0.011594  5.2e-05  3.799987  0.0  0.028858  2.8e-05  4.033877  0.0  0.024635  8.3e-05  4.058459  0.0  -0.009266  0.031148  7.3e-05  4.017865  0.0
C  C43  1  0.79227747  0.25179311  0.36060017  1  0.220719  -0.000121  3.772441  0.0  0.215764  -0.000194  4.011935  0.0  0.224065  -0.000145  4.031986  0.0  0.119328  0.210139  -0.00043  3.998378  0.0
C  C44  1  0.20772199  0.74820602  0.63939904  1  0.220693  -9.3e-05  3.77255  0.0  0.215762  -0.000192  4.012021  0.0  0.224063  -0.000144  4.032071  0.0  0.119325  0.210136  -0.000431  3.998473  0.0
C  C45  1  0.86406111  0.43110377  0.28754718  1  0.21625  -8.9e-05  3.775264  0.0  0.210747  -0.000118  4.01883  0.0  0.218629  -9.6e-05  4.040222  0.0  0.116452  0.205607  -0.000247  4.004299  0.0
C  C46  1  0.13593695  0.56889535  0.71245171  1  0.216283  -4.6e-05  3.775269  0.0  0.210749  -0.000118  4.018863  0.0  0.218631  -9.8e-05  4.040255  0.0  0.116415  0.20561  -0.000248  4.004334  0.0
C  C47  1  0.71771557  0.33051388  0.45117079  1  0.010939  5.7e-05  3.806732  0.0  0.029133  -5.1e-05  4.036553  0.0  0.02475  1.9e-05  4.061583  0.0  -0.00559  0.031727  -9.8e-05  4.01994  0.0
C  C48  1  0.28228538  0.66948622  0.54882894  1  0.010925  1.7e-05  3.80675  0.0  0.02911  -5.2e-05  4.036579  0.0  0.024728  1.8e-05  4.061609  0.0  -0.005607  0.031705  -9.8e-05  4.019971  0.0
C  C49  1  0.94328110  0.48443339  0.20703916  1  -0.159726  0.000281  3.707114  0.0  -0.181366  8.7e-05  3.967463  0.0  -0.18775  0.000146  3.988017  0.0  -0.090973  -0.177038  7.5e-05  3.953646  0.0
C  C50  1  0.05671975  0.51556574  0.79296128  1  -0.159722  0.000188  3.707192  0.0  -0.18134  8.9e-05  3.967543  0.0  -0.187724  0.000145  3.988098  0.0  -0.090955  -0.17702  7.5e-05  3.953731  0.0
C  C51  1  0.71936756  0.46320018  0.45593360  1  -0.085064  -0.000319  3.664184  0.0  -0.120579  -0.000501  3.917886  0.0  -0.116486  -0.000379  3.933414  0.0  -0.063729  -0.123335  -0.001036  3.907966  -0.001
C  C52  1  0.28063050  0.53679896  0.54406619  1  -0.085084  -0.000244  3.664138  0.0  -0.120615  -0.000501  3.917845  0.0  -0.11652  -0.000379  3.933379  0.0  -0.063756  -0.123364  -0.001036  3.907913  -0.001
C  C53  1  0.65357345  0.27178899  0.53541592  1  -0.101872  -0.000128  3.744594  0.0  -0.120893  -0.000208  3.990933  0.0  -0.122285  -0.000178  4.013196  0.0  -0.086521  -0.119482  -0.000358  3.975487  0.0
C  C54  1  0.34643030  0.72821110  0.46458626  1  -0.101866  -9.6e-05  3.744543  0.0  -0.120909  -0.000208  3.990897  0.0  -0.122305  -0.000182  4.01316  0.0  -0.086514  -0.119496  -0.000358  3.975457  0.0
C  C55  1  0.87896444  0.69957886  0.29949347  1  -0.070714  0.000272  3.77665  0.0  -0.086147  7.7e-05  4.030199  0.0  -0.09042  0.000154  4.054602  0.0  -0.089161  -0.082709  0.000127  4.014145  0.0
C  C56  1  0.12103642  0.30042027  0.70050696  1  -0.070709  0.000209  3.776507  0.0  -0.086144  7.5e-05  4.030061  0.0  -0.090416  0.000153  4.054465  0.0  -0.089147  -0.082704  0.000127  4.014  0.0
C  C57  1  0.94957196  0.61504539  0.21300300  1  -0.036913  -0.000145  3.749989  0.0  -0.054212  -8.3e-05  4.00639  0.0  -0.053504  -7.2e-05  4.027461  0.0  -0.081808  -0.054981  -0.000298  3.992152  0.0
C  C58  1  0.05042910  0.38495566  0.78699603  1  -0.036942  -9.1e-05  3.750075  0.0  -0.054255  -8.3e-05  4.006487  0.0  -0.053548  -7.1e-05  4.027558  0.0  -0.081831  -0.05502  -0.000298  3.992237  0.0
C  C59  1  0.80245785  0.65187760  0.37887836  1  -0.103705  -0.000264  3.740841  0.0  -0.126572  -0.000256  3.993783  0.0  -0.127599  -0.000221  4.015368  0.0  -0.091055  -0.125975  -0.000448  3.97971  0.0
C  C60  1  0.19754440  0.34812153  0.62112058  1  -0.103672  -0.000231  3.740655  0.0  -0.126551  -0.000255  3.993609  0.0  -0.127571  -0.000221  4.015175  0.0  -0.091053  -0.125955  -0.000448  3.979528  0.0
C  C61  1  0.79713082  0.11686059  0.35734294  1  -0.157127  0.000159  3.705735  0.0  -0.17479  7.8e-05  3.951276  0.0  -0.180507  0.000164  3.972222  0.0  -0.090743  -0.171116  -2e-05  3.937413  0.0
C  C62  1  0.20287154  0.88313950  0.64265801  1  -0.157136  9.5e-05  3.705791  0.0  -0.174801  7.8e-05  3.9513  0.0  -0.180516  0.000163  3.972244  0.0  -0.090749  -0.171129  -2e-05  3.937442  0.0
C  C63  1  0.66361278  0.14197269  0.53176831  1  -0.075174  0.000103  3.761567  0.0  -0.087755  4.1e-05  4.009066  0.0  -0.091718  0.000104  4.031468  0.0  -0.089513  -0.085206  -5.9e-05  3.993757  0.0
C  C64  1  0.33639108  0.85802837  0.46823407  1  -0.075085  6.9e-05  3.761527  0.0  -0.087653  4.1e-05  4.009009  0.0  -0.091617  0.00011  4.031413  0.0  -0.089484  -0.085101  -5.9e-05  3.9937  0.0
C  C65  1  0.73516798  0.06426252  0.44134441  1  -0.048462  -0.00012  3.771837  0.0  -0.062256  -0.000166  4.019886  0.0  -0.061837  -0.000146  4.040988  0.0  -0.082875  -0.062236  -0.000329  4.006578  0.0
C  C66  1  0.26483137  0.93573564  0.55865460  1  -0.048491  -0.0001  3.771916  0.0  -0.062258  -0.000166  4.019966  0.0  -0.061839  -0.000145  4.041068  0.0  -0.082876  -0.062235  -0.000329  4.006652  0.0
N  N67  1  0.19569090  0.09028833  0.93142085  1  -0.501325  -0.019445  2.842821  -0.004  -0.462878  -0.027368  3.134041  -0.006  -0.481477  -0.022845  3.136069  -0.002  -0.343931  -0.449647  -0.033028  3.133127  -0.01
N  N68  1  0.80430897  0.90971465  0.06857736  1  -0.501209  -0.019366  2.842553  -0.003  -0.462738  -0.027361  3.133754  -0.006  -0.481341  -0.022827  3.135785  -0.002  -0.3438  -0.449508  -0.033023  3.132841  -0.01
N  N69  1  0.76566293  0.10351991  0.90141473  1  -0.50391  -0.011365  2.816017  0.004  -0.464842  -0.021894  3.100849  -0.001  -0.483505  -0.016401  3.103416  0.003  -0.351958  -0.451443  -0.028053  3.099608  -0.005
N  N70  1  0.23433064  0.89647634  0.09858892  1  -0.503902  -0.011366  2.815768  0.004  -0.464839  -0.021887  3.100601  -0.001  -0.483501  -0.016396  3.103165  0.003  -0.35194  -0.451437  -0.028049  3.099363  -0.005
N  N71  1  0.86150567  0.30272240  0.28166345  1  -0.385811  -0.000243  3.12119  -0.001  -0.329805  -0.000601  3.362729  -0.001  -0.346277  -0.0003  3.378909  -0.001  -0.301005  -0.318387  -0.001  3.351465  -0.001
N  N72  1  0.13849809  0.69727770  0.71833782  1  -0.385825  -0.000309  3.121239  -0.001  -0.329832  -0.000603  3.362799  -0.001  -0.346303  -0.000298  3.378978  -0.001  -0.300974  -0.318415  -0.001  3.351542  -0.001
O  O73  1  0.07559962  0.16085884  0.17049326  1  -0.553492  -0.031059  2.260406  -0.021  -0.476645  -0.04065  2.535196  -0.028  -0.499867  -0.036024  2.522655  -0.024  -0.401298  -0.458723  -0.044856  2.54303  -0.032
O  O74  1  0.92440113  0.83913933  0.82950697  1  -0.553553  -0.031061  2.2603  -0.021  -0.476724  -0.040649  2.535139  -0.028  -0.499946  -0.036025  2.522596  -0.024  -0.401327  -0.458799  -0.044854  2.542972  -0.032
F  F75  1  0.64846501  0.37567078  0.82115303  1  -0.16354  -0.000111  1.271807  0.0  -0.11374  -0.000318  1.449832  0.0  -0.123056  -0.000232  1.441828  0.0  -0.076702  -0.106538  -0.000395  1.454811  0.0
F  F76  1  0.35153177  0.62432932  0.17884936  1  -0.163589  -0.000107  1.271732  0.0  -0.113786  -0.000318  1.449762  0.0  -0.123102  -0.000233  1.441757  0.0  -0.076723  -0.106586  -0.000395  1.454733  0.0
F  F77  1  0.34829717  0.36880358  0.13505664  1  -0.170882  6.9e-05  1.257057  0.0  -0.107425  -6.3e-05  1.41853  0.0  -0.116322  2e-05  1.410522  0.0  -0.081135  -0.100646  -9.4e-05  1.423797  0.0
F  F78  1  0.65169959  0.63119651  0.86494213  1  -0.170871  7e-05  1.257126  0.0  -0.1074  -6.2e-05  1.418598  0.0  -0.116297  1.9e-05  1.410591  0.0  -0.081109  -0.100618  -9.4e-05  1.423864  0.0
