# generated using pymatgen
data_SrH6C6S2(N2O3)2
_symmetry_space_group_name_H-M   'P 1'
_cell_length_a   5.94150646
_cell_length_b   7.25471876
_cell_length_c   14.18836047
_cell_angle_alpha   92.73769113
_cell_angle_beta   101.36266672
_cell_angle_gamma   97.73598138
_symmetry_Int_Tables_number   1
_chemical_formula_structural   SrH6C6S2(N2O3)2
_chemical_formula_sum   'Sr2 H12 C12 S4 N8 O12'
_cell_volume   592.39110978
_cell_formula_units_Z   2
loop_
 _symmetry_equiv_pos_site_id
 _symmetry_equiv_pos_as_xyz
  1  'x, y, z'
loop_
 _atom_site_type_symbol
 _atom_site_label
 _atom_site_symmetry_multiplicity
 _atom_site_fract_x
 _atom_site_fract_y
 _atom_site_fract_z
 _atom_site_occupancy
 _atom_site_hle17_bader_spin_density
 _atom_site_hle17_ddec_charge
 _atom_site_hle17_ddec_spin_density
 _atom_site_hle17_ddec_sum_bond_order
 _atom_site_hle17_magmom
 _atom_site_hse06_10hf_bader_spin_density
 _atom_site_hse06_10hf_ddec_charge
 _atom_site_hse06_10hf_ddec_spin_density
 _atom_site_hse06_10hf_ddec_sum_bond_order
 _atom_site_hse06_10hf_magmom
 _atom_site_hse06_bader_spin_density
 _atom_site_hse06_ddec_charge
 _atom_site_hse06_ddec_spin_density
 _atom_site_hse06_ddec_sum_bond_order
 _atom_site_hse06_magmom
 _atom_site_pbe_bader_spin_density
 _atom_site_pbe_cm5_charge
 _atom_site_pbe_ddec_charge
 _atom_site_pbe_ddec_spin_density
 _atom_site_pbe_ddec_sum_bond_order
 _atom_site_pbe_magmom
Sr  Sr0  1  0.17780510  0.77097783  0.48164160  1  0  1.678332  0  1.088925  0  0  1.547773  0  1.458383  0  0  1.58145  0  1.414979  0  0  1.026358  1.523064  0  1.488913  0
Sr  Sr1  1  0.82218965  0.22902451  0.51836069  1  0  1.67831  0  1.088944  0  0  1.547776  0  1.458324  0  0  1.581483  0  1.41486  0  0  1.026357  1.523069  0  1.488857  0
H  H2  1  0.28707305  0.70016806  0.97993406  1  0  0.2662  0  0.960966  0  0  0.232126  0  1.04746  0  0  0.242082  0  1.039212  0  0  0.305322  0.225157  0  1.053223  0
H  H3  1  0.71292636  0.29983151  0.02006855  1  0  0.266205  0  0.960984  0  0  0.232227  0  1.047328  0  0  0.242182  0  1.03908  0  0  0.305353  0.225258  0  1.053094  0
H  H4  1  0.78516344  0.78214915  0.95055450  1  0  0.262815  0  0.971526  0  0  0.228367  0  1.057089  0  0  0.238281  0  1.04919  0  0  0.303201  0.221446  0  1.062605  0
H  H5  1  0.21482714  0.21784898  0.04944312  1  0  0.262811  0  0.971578  0  0  0.228393  0  1.057098  0  0  0.238309  0  1.049197  0  0  0.303201  0.221474  0  1.062607  0
H  H6  1  0.19693267  0.66686114  0.14687150  1  0  0.116206  0  0.949586  0  0  0.124811  0  1.01562  0  0  0.127535  0  1.013391  0  0  0.12823  0.122769  0  1.01729  0
H  H7  1  0.80306576  0.33314260  0.85313184  1  0  0.116241  0  0.949598  0  0  0.124834  0  1.015639  0  0  0.127557  0  1.013412  0  0  0.128257  0.12279  0  1.017312  0
H  H8  1  0.91181766  0.91249248  0.16063779  1  0  0.102649  0  0.951594  0  0  0.11014  0  1.01911  0  0  0.11201  0  1.018089  0  0  0.1206  0.108748  0  1.019873  0
H  H9  1  0.08818175  0.08750707  0.83936272  1  0  0.102671  0  0.951584  0  0  0.110152  0  1.019112  0  0  0.112023  0  1.018089  0  0  0.120598  0.108758  0  1.019871  0
H  H10  1  0.55896395  0.84682685  0.78735844  1  0  0.120115  0  0.959567  0  0  0.127528  0  1.026087  0  0  0.13015  0  1.024101  0  0  0.129311  0.125586  0  1.027502  0
H  H11  1  0.44103276  0.15316710  0.21263677  1  0  0.120146  0  0.959548  0  0  0.127556  0  1.026054  0  0  0.130181  0  1.024068  0  0  0.129314  0.125618  0  1.02747  0
H  H12  1  0.17043021  0.59740251  0.76059455  1  0  0.122416  0  0.92284  0  0  0.132702  0  0.98147  0  0  0.135657  0  0.97884  0  0  0.134129  0.130511  0  0.983428  0
H  H13  1  0.82957091  0.40259706  0.23940821  1  0  0.122407  0  0.922821  0  0  0.132695  0  0.98145  0  0  0.13565  0  0.978823  0  0  0.134124  0.130513  0  0.983405  0
C  C14  1  0.36477481  0.72527527  0.13370773  1  0  0.055603  0  3.665474  0  0  -0.005768  0  3.929839  0  0  0.005043  0  3.94356  0  0  0.027411  -0.012549  0  3.920411  0
C  C15  1  0.63522656  0.27472570  0.86629579  1  0  0.05554  0  3.665448  0  0  -0.005822  0  3.929829  0  0  0.00499  0  3.943549  0  0  0.027334  -0.012599  0  3.920406  0
C  C16  1  0.56901317  0.80163440  0.19740918  1  0  -0.254924  0  3.801445  0  0  -0.222974  0  4.06287  0  0  -0.23695  0  4.083725  0  0  -0.042512  -0.214061  0  4.049032  0
C  C17  1  0.43098820  0.19836656  0.80259222  1  0  -0.25482  0  3.801321  0  0  -0.222837  0  4.062671  0  0  -0.236809  0  4.083525  0  0  -0.042442  -0.213915  0  4.048818  0
C  C18  1  0.73116641  0.84972562  0.13884509  1  0  0.048824  0  3.713478  0  0  -0.00125  0  3.992115  0  0  0.007513  0  4.005691  0  0  0.021163  -0.006813  0  3.982859  0
C  C19  1  0.26883275  0.15027255  0.86115536  1  0  0.048749  0  3.713517  0  0  -0.001331  0  3.99216  0  0  0.007432  0  4.005735  0  0  0.021135  -0.006898  0  3.982899  0
C  C20  1  0.72013783  0.78858526  0.79797791  1  0  0.063998  0  3.642829  0  0  0.006064  0  3.903378  0  0  0.01713  0  3.916297  0  0  0.03625  -0.000856  0  3.89451  0
C  C21  1  0.27985717  0.21140869  0.20201786  1  0  0.064007  0  3.642758  0  0  0.006098  0  3.903325  0  0  0.01716  0  3.916251  0  0  0.036283  -0.000846  0  3.894447  0
C  C22  1  0.84174175  0.72643456  0.73128976  1  0  -0.241218  0  3.762001  0  0  -0.213194  0  4.029063  0  0  -0.226316  0  4.048073  0  0  -0.031506  -0.204939  0  4.01659  0
C  C23  1  0.15826085  0.27356360  0.26870886  1  0  -0.241155  0  3.761857  0  0  -0.213207  0  4.029022  0  0  -0.226335  0  4.048045  0  0  -0.031503  -0.204889  0  4.016472  0
C  C24  1  0.03623343  0.66137550  0.78621316  1  0  0.062366  0  3.686734  0  0  0.012047  0  3.966409  0  0  0.021484  0  3.9783  0  0  0.034341  0.006047  0  3.958293  0
C  C25  1  0.96376573  0.33862266  0.21378659  1  0  0.062452  0  3.686652  0  0  0.012147  0  3.966359  0  0  0.021586  0  3.978253  0  0  0.034375  0.006122  0  3.958235  0
S  S26  1  0.61493310  0.82667945  0.32336369  1  0  1.382054  0  5.700668  0  0  1.283562  0  6.215929  0  0  1.333806  0  6.188607  0  0  0.541821  1.248829  0  6.234005  0
S  S27  1  0.38507025  0.17332291  0.67663721  1  0  1.381925  0  5.700784  0  0  1.283417  0  6.216074  0  0  1.333658  0  6.188752  0  0  0.541807  1.248679  0  6.234156  0
S  S28  1  0.75522867  0.71155916  0.60596746  1  0  1.408111  0  5.633901  0  0  1.305932  0  6.141503  0  0  1.356179  0  6.115019  0  0  0.556883  1.271184  0  6.1591  0
S  S29  1  0.24478130  0.28844182  0.39403184  1  0  1.407883  0  5.633942  0  0  1.305712  0  6.141581  0  0  1.355956  0  6.115105  0  0  0.556825  1.270942  0  6.159167  0
N  N30  1  0.63276143  0.80653225  0.04564712  1  0  -0.223317  0  2.99805  0  0  -0.195989  0  3.269311  0  0  -0.203916  0  3.283328  0  0  -0.231097  -0.190547  0  3.259775  0
N  N31  1  0.36723602  0.19346591  0.95435389  1  0  -0.223226  0  2.998089  0  0  -0.195891  0  3.26936  0  0  -0.203819  0  3.283378  0  0  -0.231076  -0.190449  0  3.259828  0
N  N32  1  0.41066288  0.73026359  0.04431282  1  0  -0.139861  0  3.491987  0  0  -0.075667  0  3.741473  0  0  -0.088804  0  3.757312  0  0  -0.275189  -0.066969  0  3.730736  0
N  N33  1  0.58933309  0.26973596  0.95568951  1  0  -0.139932  0  3.492047  0  0  -0.075825  0  3.74156  0  0  -0.088962  0  3.757396  0  0  -0.275223  -0.067141  0  3.730848  0
N  N34  1  0.03480036  0.68307360  0.88057383  1  0  -0.246245  0  2.992663  0  0  -0.219811  0  3.267579  0  0  -0.229105  0  3.282296  0  0  -0.233923  -0.213428  0  3.257491  0
N  N35  1  0.96519022  0.31692454  0.11942590  1  0  -0.246288  0  2.992705  0  0  -0.219886  0  3.267626  0  0  -0.22918  0  3.282342  0  0  -0.233948  -0.213503  0  3.25754  0
N  N36  1  0.84198002  0.76188609  0.88572782  1  0  -0.153454  0  3.505415  0  0  -0.086667  0  3.754562  0  0  -0.100549  0  3.771803  0  0  -0.277767  -0.077436  0  3.742809  0
N  N37  1  0.15801056  0.23811203  0.11426980  1  0  -0.153536  0  3.505543  0  0  -0.086768  0  3.754687  0  0  -0.100652  0  3.771926  0  0  -0.277802  -0.077529  0  3.742923  0
O  O38  1  0.39360168  0.74663460  0.34623081  1  0  -0.726212  0  1.981768  0  0  -0.672177  0  2.247055  0  0  -0.693664  0  2.231194  0  0  -0.384711  -0.657021  0  2.25757  0
O  O39  1  0.60640069  0.25337194  0.65377081  1  0  -0.726188  0  1.981837  0  0  -0.672142  0  2.247112  0  0  -0.693633  0  2.231254  0  0  -0.384691  -0.656987  0  2.257629  0
O  O40  1  0.80696423  0.72247313  0.35691496  1  0  -0.718861  0  1.982175  0  0  -0.663491  0  2.24372  0  0  -0.685079  0  2.227283  0  0  -0.378198  -0.648214  0  2.254584  0
O  O41  1  0.19303665  0.27752503  0.64308563  1  0  -0.718813  0  1.982207  0  0  -0.663446  0  2.243754  0  0  -0.685033  0  2.227315  0  0  -0.378181  -0.648169  0  2.254624  0
O  O42  1  0.67446188  0.02777784  0.35193216  1  0  -0.74077  0  1.999109  0  0  -0.68969  0  2.265611  0  0  -0.711999  0  2.251175  0  0  -0.364316  -0.673886  0  2.275011  0
O  O43  1  0.32555005  0.97222454  0.64806804  1  0  -0.740746  0  1.999113  0  0  -0.689656  0  2.265626  0  0  -0.711995  0  2.251266  0  0  -0.364364  -0.673853  0  2.275023  0
O  O44  1  0.81184959  0.89598861  0.56940467  1  0  -0.796689  0  2.027494  0  0  -0.740136  0  2.30226  0  0  -0.762397  0  2.285157  0  0  -0.382529  -0.724224  0  2.313392  0
O  O45  1  0.18816431  0.10400540  0.43059268  1  0  -0.796655  0  2.027492  0  0  -0.740055  0  2.302149  0  0  -0.762344  0  2.285121  0  0  -0.382559  -0.724193  0  2.313412  0
O  O46  1  0.90000028  0.58143684  0.57290683  1  0  -0.761298  0  2.016824  0  0  -0.693197  0  2.282307  0  0  -0.716433  0  2.266992  0  0  -0.405239  -0.676824  0  2.292502  0
O  O47  1  0.09999470  0.41855712  0.42709177  1  0  -0.761169  0  2.016773  0  0  -0.693086  0  2.282275  0  0  -0.716313  0  2.266953  0  0  -0.405205  -0.676724  0  2.292488  0
O  O48  1  0.50785221  0.64317535  0.58409351  1  0  -0.68683  0  2.019905  0  0  -0.631078  0  2.282234  0  0  -0.653124  0  2.267487  0  0  -0.358025  -0.615583  0  2.291992  0
O  O49  1  0.49215239  0.35683397  0.41590413  1  0  -0.686828  0  2.020027  0  0  -0.631019  0  2.282291  0  0  -0.653078  0  2.26755  0  0  -0.357977  -0.615519  0  2.292055  0
