# generated using pymatgen
data_MnH12(C2N)8
_symmetry_space_group_name_H-M   'P 1'
_cell_length_a   9.56653418
_cell_length_b   9.56041431
_cell_length_c   11.79454090
_cell_angle_alpha   95.24686705
_cell_angle_beta   108.06721334
_cell_angle_gamma   120.11450538
_symmetry_Int_Tables_number   1
_chemical_formula_structural   MnH12(C2N)8
_chemical_formula_sum   'Mn2 H24 C32 N16'
_cell_volume   846.14155042
_cell_formula_units_Z   2
loop_
 _symmetry_equiv_pos_site_id
 _symmetry_equiv_pos_as_xyz
  1  'x, y, z'
loop_
 _atom_site_type_symbol
 _atom_site_label
 _atom_site_symmetry_multiplicity
 _atom_site_fract_x
 _atom_site_fract_y
 _atom_site_fract_z
 _atom_site_occupancy
 _atom_site_hle17_ddec_charge
 _atom_site_hle17_ddec_spin_density
 _atom_site_hle17_ddec_sum_bond_order
 _atom_site_hle17_magmom
 _atom_site_hse06_10hf_bader_charge
 _atom_site_hse06_10hf_bader_spin_density
 _atom_site_hse06_10hf_ddec_charge
 _atom_site_hse06_10hf_ddec_spin_density
 _atom_site_hse06_10hf_ddec_sum_bond_order
 _atom_site_hse06_10hf_magmom
 _atom_site_hse06_ddec_charge
 _atom_site_hse06_ddec_spin_density
 _atom_site_hse06_ddec_sum_bond_order
 _atom_site_hse06_magmom
 _atom_site_pbe_cm5_charge
 _atom_site_pbe_ddec_charge
 _atom_site_pbe_ddec_spin_density
 _atom_site_pbe_ddec_sum_bond_order
 _atom_site_pbe_magmom
Mn  Mn0  1  0.50000186  0.49999795  0.50000361  1  1.085358  -4.79763  2.05703  -4.644  1.532658  -4.535603  0.925102  -4.667072  2.595603  -4.475  0.975012  -4.734761  2.529218  -4.551  0.658703  0.884873  -4.603839  2.645705  -4.398
Mn  Mn1  1  0.50066821  0.00056003  0.99983084  1  0.81944  -1.119251  3.040282  -1.115  1.433932  -1.02041  0.735847  -1.053167  3.619921  -1.015  0.777276  -1.014489  3.552667  -0.985  0.757724  0.712341  -1.072073  3.657922  -1.029
H  H2  1  0.58789139  0.83708312  0.44193227  1  0.07381  -0.000205  0.944766  0.0  0.111528  -0.001363  0.082079  -0.000726  1.010219  0.0  0.084191  -0.000516  1.008311  0.0  0.115513  0.080574  -0.000948  1.011588  0.0
H  H3  1  0.89151964  0.14184880  0.06047267  1  0.075231  -0.000225  0.948954  0.0  0.108597  0.00021  0.085117  8.4e-05  1.012816  0.0  0.086277  8.6e-05  1.011287  0.0  0.117753  0.084217  0.000149  1.014157  0.0
H  H4  1  0.41211115  0.16292042  0.55806512  1  0.073766  -0.000205  0.944802  0.0  0.11152  -0.001361  0.082069  -0.000725  1.010227  0.0  0.084161  -0.000515  1.008332  0.0  0.11554  0.080585  -0.000945  1.011573  0.0
H  H5  1  0.10847440  0.85809753  0.93956547  1  0.074843  -0.000198  0.948887  0.0  0.107725  0.000211  0.084704  8.7e-05  1.012871  0.0  0.085823  8.9e-05  1.01143  0.0  0.117661  0.083863  0.00015  1.014111  0.0
H  H6  1  0.81982797  0.14726016  0.53153142  1  0.103538  -0.00015  0.991635  0.0  0.101325  -0.000481  0.110816  -0.000243  1.056438  0.0  0.113547  -0.000193  1.056399  0.0  0.101705  0.108764  -0.000308  1.056677  0.0
H  H7  1  0.11277251  0.28737772  0.97243717  1  0.10065  0.000277  0.99913  0.0  0.089178  5e-06  0.108306  -2.9e-05  1.064056  0.0  0.110657  -4.4e-05  1.064393  0.0  0.100971  0.106536  -1.8e-05  1.064097  0.0
H  H8  1  0.18017392  0.85274587  0.46847280  1  0.103548  -0.000151  0.99159  0.0  0.101029  -0.000481  0.110845  -0.000242  1.056358  0.0  0.113574  -0.000192  1.056313  0.0  0.101737  0.108796  -0.000308  1.056591  0.0
H  H9  1  0.88710376  0.71256917  0.02761565  1  0.10048  0.000264  0.999308  0.0  0.089729  1e-05  0.108082  -2.3e-05  1.064287  0.0  0.110388  -3.9e-05  1.064659  0.0  0.10087  0.106336  -1.1e-05  1.06429  0.0
H  H10  1  0.14594101  0.03139909  0.79401904  1  0.108  -0.000165  0.971225  0.0  0.077273  -0.00049  0.115847  -0.00015  1.03771  0.0  0.118464  -7.3e-05  1.037787  0.0  0.103378  0.113852  -0.0002  1.037975  0.0
H  H11  1  0.73730098  0.35573460  0.71160103  1  0.111003  0.000538  0.980079  0.0  0.085283  -5.5e-05  0.119058  0.000449  1.046959  0.0  0.121008  0.000551  1.047409  0.0  0.103437  0.117584  0.000346  1.046887  0.0
H  H12  1  0.85405682  0.96860187  0.20598378  1  0.107966  -0.000165  0.971235  0.0  0.077272  -0.000489  0.115765  -0.000149  1.037792  0.0  0.118375  -7.2e-05  1.037874  0.0  0.103357  0.113794  -0.0002  1.038039  0.0
H  H13  1  0.26262666  0.64421867  0.28849022  1  0.110992  0.000531  0.980073  0.0  0.085424  -5.1e-05  0.119063  0.000455  1.046987  0.0  0.120984  0.000554  1.047477  0.0  0.103368  0.117611  0.000354  1.046885  0.0
H  H14  1  0.90018844  0.72457854  0.69101230  1  0.076797  -0.000117  0.935934  0.0  0.079991  -0.001403  0.085444  -0.000688  1.000098  0.0  0.087714  -0.000464  0.998091  0.0  0.116354  0.083772  -0.000917  1.00159  -0.001
H  H15  1  0.53179566  0.20905067  0.81173454  1  0.079872  3.7e-05  0.936096  0.0  0.074497  0.000293  0.089759  0.000317  0.998606  0.0  0.091067  0.00031  0.99695  0.0  0.119049  0.088635  0.000326  1.000181  0.0
H  H16  1  0.09981005  0.27541992  0.30898454  1  0.076825  -0.000116  0.935937  0.0  0.079746  -0.001401  0.085425  -0.000686  1.000155  0.0  0.087692  -0.000463  0.99815  0.0  0.116345  0.083758  -0.000914  1.001643  -0.001
H  H17  1  0.46812393  0.79091197  0.18825802  1  0.07946  5.5e-05  0.935934  0.0  0.074488  0.000284  0.089417  0.000311  0.998408  0.0  0.090707  0.000305  0.996778  0.0  0.118857  0.088323  0.000318  0.99995  0.0
H  H18  1  0.20849084  0.35714154  0.67764619  1  0.093267  0.000149  0.930349  0.0  0.072279  -0.00035  0.112709  9.5e-05  0.987826  0.0  0.112685  0.000123  0.989405  0.0  0.101623  0.112583  5e-05  0.986874  0.0
H  H19  1  0.17846522  0.53457219  0.82812313  1  0.096076  0.000514  0.928971  0.0  0.094988  0.000312  0.114654  0.000341  0.98622  0.0  0.115252  0.000148  0.987163  0.0  0.102438  0.113845  0.000484  0.985984  0.0
H  H20  1  0.79149471  0.64287194  0.32236909  1  0.093271  0.000149  0.930353  0.0  0.072064  -0.000351  0.112719  9.4e-05  0.987848  0.0  0.112673  0.000122  0.989445  0.0  0.101576  0.112613  4.9e-05  0.986872  0.0
H  H21  1  0.82150671  0.46540831  0.17189377  1  0.096048  0.000479  0.929042  0.0  0.099346  0.000276  0.114704  0.000314  0.986089  0.0  0.115236  0.000135  0.987092  0.0  0.102541  0.113957  0.000448  0.985809  0.0
H  H22  1  0.24190603  0.32032453  0.82426354  1  0.078947  -1.4e-05  0.947518  0.0  0.056158  -0.000106  0.093022  -9.2e-05  1.014592  0.0  0.094263  -6.9e-05  1.014542  0.0  0.092663  0.091981  -9.9e-05  1.01478  0.0
H  H23  1  0.99649163  0.42267925  0.68150683  1  0.079994  -3.4e-05  0.949804  0.0  0.032625  -0.000123  0.09486  -9e-05  1.015378  0.0  0.095723  -5.6e-05  1.015755  0.0  0.09366  0.094056  -0.000137  1.015221  0.0
H  H24  1  0.75808854  0.67967260  0.17574326  1  0.078912  -1e-05  0.947484  0.0  0.056205  -0.000105  0.093058  -9.1e-05  1.014442  0.0  0.094292  -6.9e-05  1.014387  0.0  0.092671  0.092029  -9.7e-05  1.014629  0.0
H  H25  1  0.00348153  0.57730118  0.31852139  1  0.080111  -3.5e-05  0.949608  0.0  0.0327  -0.000125  0.094863  -9e-05  1.015205  0.0  0.095707  -5.6e-05  1.015615  0.0  0.093735  0.094094  -0.000136  1.015021  0.0
C  C26  1  0.71376818  0.88609560  0.52052868  1  0.13035  -0.002701  3.723967  -0.003  0.463594  -0.006202  0.103381  -0.004806  3.971515  -0.004  0.110338  -0.004264  3.9904  -0.004  0.048464  0.098616  -0.005543  3.958702  -0.005
C  C27  1  0.86278781  0.19097535  0.98288820  1  0.11814  0.00818  3.71143  0.005  0.417716  0.003442  0.088574  0.003524  3.961515  0.002  0.097743  0.001246  3.97945  0.0  0.045887  0.08194  0.004769  3.950103  0.002
C  C28  1  0.28623257  0.11390666  0.47947241  1  0.130342  -0.002702  3.723893  -0.003  0.463838  -0.0062  0.103376  -0.004805  3.971425  -0.004  0.11032  -0.004269  3.990344  -0.004  0.048488  0.098624  -0.005543  3.958575  -0.005
C  C29  1  0.13708178  0.80889823  0.01714344  1  0.118941  0.00737  3.714651  0.004  0.422567  0.003102  0.089479  0.00319  3.964742  0.001  0.09842  0.001089  3.983015  0.0  0.046278  0.083011  0.004363  3.952991  0.002
C  C30  1  0.84310500  0.05885261  0.57169075  1  -0.174536  0.001727  3.707437  0.001  -0.017008  0.000883  -0.189999  0.001271  3.950069  0.001  -0.198553  0.001963  3.972459  0.001  -0.090174  -0.184507  0.000823  3.935383  0.0
C  C31  1  0.98467219  0.27121218  0.93233085  1  -0.173766  -0.003412  3.720754  -0.003  0.005946  -0.001525  -0.189886  -0.000858  3.964789  -0.001  -0.198749  -0.000564  3.98653  -0.001  -0.092355  -0.184202  -0.000462  3.950989  -0.001
C  C32  1  0.15689651  0.94115090  0.42831318  1  -0.174525  0.001727  3.707362  0.001  -0.017353  0.000882  -0.189993  0.00127  3.950037  0.001  -0.198529  0.001969  3.972408  0.001  -0.090201  -0.184515  0.000823  3.935364  0.0
C  C33  1  0.01518291  0.72871193  0.06770225  1  -0.174034  -0.002978  3.720567  -0.003  0.004637  -0.001341  -0.18978  -0.000729  3.964461  -0.001  -0.198674  -0.000465  3.986505  -0.001  -0.091963  -0.184019  -0.000358  3.950374  -0.001
C  C34  1  0.00156160  0.11719754  0.67430704  1  0.163219  -0.002567  3.707003  -0.002  -0.055581  -0.005283  0.179427  -0.004004  3.942255  -0.003  0.184862  -0.003759  3.964054  -0.003  0.013484  0.175936  -0.004537  3.927328  -0.004
C  C35  1  0.94188556  0.32923494  0.83045728  1  0.157694  0.010389  3.710587  0.007  -0.024021  0.006397  0.172707  0.006646  3.94666  0.004  0.179519  0.003276  3.967793  0.002  0.008323  0.167537  0.009246  3.932707  0.006
C  C36  1  0.99843442  0.88280213  0.32569777  1  0.16328  -0.002573  3.706759  -0.002  -0.05502  -0.005286  0.179413  -0.004008  3.942135  -0.003  0.184879  -0.003765  3.963893  -0.003  0.013451  0.175892  -0.004544  3.927249  -0.004
C  C37  1  0.05804936  0.67071368  0.16956669  1  0.158117  0.009317  3.710249  0.006  -0.023086  0.005795  0.172798  0.006021  3.946692  0.004  0.179336  0.002935  3.968121  0.002  0.008387  0.167876  0.008428  3.932479  0.005
C  C38  1  0.02376368  0.99435431  0.71646994  1  -0.187952  0.001422  3.715474  0.001  0.076298  0.000764  -0.205956  0.001087  3.963132  0.001  -0.214633  0.001838  3.985521  0.001  -0.090795  -0.20035  0.000629  3.948305  0.0
C  C39  1  0.77738269  0.30961233  0.78846557  1  -0.187193  -0.003645  3.721975  -0.004  0.011491  -0.001287  -0.20419  -0.000616  3.968271  -0.001  -0.213551  -0.000111  3.990662  0.0  -0.090773  -0.198053  -0.000407  3.954077  -0.001
C  C40  1  0.97623525  0.00564665  0.28353314  1  -0.187859  0.001426  3.715368  0.001  0.07627  0.000764  -0.205813  0.001087  3.96303  0.001  -0.214487  0.00184  3.985421  0.001  -0.090742  -0.200221  0.00063  3.948195  0.0
C  C41  1  0.22253692  0.69029924  0.21160677  1  -0.187696  -0.003196  3.721345  -0.003  0.008525  -0.001117  -0.204467  -0.000497  3.967438  -0.001  -0.213866  -3e-05  3.990129  0.0  -0.090648  -0.198264  -0.000308  3.952957  -0.001
C  C42  1  0.88786596  0.82343326  0.65971821  1  0.13408  -0.002643  3.7241  -0.003  0.429898  -0.00633  0.104033  -0.004784  3.976264  -0.004  0.111275  -0.004283  3.995188  -0.004  0.048264  0.09912  -0.005475  3.963287  -0.005
C  C43  1  0.66166305  0.22829368  0.84379664  1  0.126648  0.008204  3.69739  0.005  0.483049  0.004445  0.095271  0.00506  3.949882  0.002  0.104734  0.00279  3.967897  0.001  0.047989  0.08802  0.006637  3.938689  0.003
C  C44  1  0.11213257  0.17656899  0.34028064  1  0.13396  -0.002646  3.724089  -0.003  0.430108  -0.006331  0.103978  -0.004785  3.976184  -0.004  0.111207  -0.004285  3.99513  -0.004  0.048261  0.09908  -0.00548  3.963188  -0.005
C  C45  1  0.33820466  0.77157484  0.15623159  1  0.127092  0.007368  3.700274  0.004  0.487184  0.004026  0.095887  0.00462  3.952556  0.002  0.105126  0.002537  3.970888  0.001  0.048307  0.088816  0.006103  3.941052  0.003
C  C46  1  0.14026027  0.30369365  0.73802620  1  -0.154253  0.000563  3.666709  0.0  -0.039611  0.000257  -0.1973  0.000263  3.914945  0.0  -0.198429  0.000194  3.926075  0.0  -0.154983  -0.196296  0.000312  3.907255  0.0
C  C47  1  0.06550110  0.40623063  0.76741451  1  -0.158541  -0.000279  3.669861  -0.001  -0.024021  -0.000284  -0.200627  -0.000104  3.918836  0.0  -0.201994  -0.000171  3.929465  0.0  -0.156437  -0.199329  -3.9e-05  3.911706  -0.001
C  C48  1  0.85972190  0.69630085  0.26198670  1  -0.1543  0.000527  3.666626  0.0  -0.040291  0.000232  -0.197424  0.000239  3.914868  0.0  -0.198538  0.000181  3.926018  0.0  -0.154922  -0.196417  0.000279  3.907174  0.0
C  C49  1  0.93445484  0.59374465  0.23261504  1  -0.158888  -0.000249  3.669643  -0.001  -0.027939  -0.00028  -0.200484  -0.000113  3.918206  0.0  -0.201861  -0.000176  3.929037  0.0  -0.156456  -0.199225  -5.4e-05  3.910973  0.0
C  C50  1  0.42442937  0.44246657  0.20518446  1  0.502118  -0.018176  3.963831  -0.018  1.581992  -0.029039  0.465077  -0.025315  4.24885  -0.024  0.491414  -0.022612  4.259082  -0.022  0.315247  0.446384  -0.027954  4.241552  -0.026
C  C51  1  0.72256011  0.20863029  0.27997349  1  0.488218  0.021692  3.941396  0.014  1.57621  -0.004214  0.453684  -0.00389  4.227799  -0.004  0.480006  -0.00824  4.237051  -0.007  0.315636  0.435903  -0.003167  4.220294  -0.003
C  C52  1  0.57553647  0.55748105  0.79482149  1  0.502356  -0.018147  3.963046  -0.018  1.582956  -0.029029  0.465327  -0.025315  4.248031  -0.024  0.491663  -0.022603  4.25828  -0.022  0.315236  0.446644  -0.02795  4.240717  -0.026
C  C53  1  0.27753688  0.79147154  0.71996245  1  0.487931  0.021683  3.942694  0.014  1.578082  -0.004134  0.453507  -0.003816  4.22894  -0.004  0.47979  -0.00812  4.238258  -0.007  0.315748  0.435772  -0.003107  4.221354  -0.003
C  C54  1  0.42146508  0.26931838  0.05652809  1  0.484188  0.01355  3.936088  0.008  1.562259  -0.006157  0.448276  -0.005797  4.224308  -0.005  0.474931  -0.009557  4.233361  -0.008  0.313683  0.430073  -0.005106  4.217643  -0.005
C  C55  1  0.73109805  0.36265264  0.44462450  1  0.50383  -0.017132  3.96351  -0.017  1.572489  -0.02773  0.465788  -0.023914  4.252294  -0.024  0.492685  -0.021662  4.26095  -0.022  0.312197  0.446891  -0.02654  4.245415  -0.026
C  C56  1  0.57867550  0.73078223  0.94344038  1  0.483472  0.01357  3.937301  0.008  1.562579  -0.006173  0.447587  -0.005821  4.225363  -0.005  0.474231  -0.009591  4.234436  -0.008  0.31343  0.429395  -0.005111  4.218699  -0.005
C  C57  1  0.26883892  0.63728358  0.55535740  1  0.503864  -0.0171  3.963632  -0.017  1.57261  -0.027712  0.465901  -0.023899  4.252429  -0.024  0.492777  -0.021647  4.261101  -0.022  0.312164  0.447028  -0.026527  4.245538  -0.026
N  N58  1  0.73312553  0.76919023  0.56479216  1  -0.339088  -0.027832  3.275226  -0.016  -1.30565  -0.045122  -0.266419  -0.031045  3.542204  -0.015  -0.2873  -0.027661  3.560173  -0.012  -0.322773  -0.251037  -0.034119  3.529431  -0.018
N  N59  1  0.70118701  0.16564011  0.93784157  1  -0.264315  0.011368  3.267969  0.012  -1.259984  0.006237  -0.197646  0.011238  3.529974  0.013  -0.223205  0.009128  3.551179  0.012  -0.303359  -0.180351  0.014085  3.514608  0.015
N  N60  1  0.26687409  0.23081203  0.43520696  1  -0.339061  -0.027834  3.275169  -0.016  -1.30565  -0.045123  -0.266388  -0.031045  3.542122  -0.015  -0.287282  -0.027659  3.560118  -0.012  -0.322757  -0.250995  -0.034117  3.529323  -0.018
N  N61  1  0.29845931  0.83399560  0.06219866  1  -0.265386  0.011596  3.264788  0.013  -1.265039  0.006324  -0.198888  0.01122  3.5259  0.013  -0.224407  0.009177  3.547321  0.012  -0.301239  -0.181481  0.013962  3.510301  0.015
N  N62  1  0.44532535  0.50330877  0.30578409  1  -0.602104  -0.019883  2.846482  -0.003  -1.317923  -0.042748  -0.563989  -0.029292  3.146795  -0.006  -0.586331  -0.024037  3.14856  -0.002  -0.370414  -0.547568  -0.034327  3.145864  -0.01
N  N63  1  0.66193980  0.12261208  0.17693933  1  -0.541432  0.002698  3.096361  0.0  -1.306806  0.002208  -0.515081  0.007157  3.419505  0.008  -0.535664  0.010214  3.419982  0.011  -0.393837  -0.500785  0.005392  3.416356  0.006
N  N64  1  0.55468132  0.49669602  0.69422204  1  -0.602395  -0.019981  2.846368  -0.003  -1.318562  -0.04274  -0.564251  -0.029293  3.146653  -0.006  -0.586604  -0.024049  3.148414  -0.002  -0.370412  -0.547822  -0.03434  3.145719  -0.01
N  N65  1  0.33843029  0.87772172  0.82295810  1  -0.540881  0.002583  3.097017  -0.001  -1.306861  0.002179  -0.514524  0.007111  3.420077  0.008  -0.535102  0.010113  3.420567  0.011  -0.393594  -0.500222  0.005358  3.416893  0.006
N  N66  1  0.39789664  0.38554800  0.09146365  1  -0.454021  -0.006164  3.293943  -0.007  -1.346444  -0.015347  -0.402397  -0.011177  3.557488  -0.01  -0.425208  -0.009171  3.558765  -0.008  -0.306124  -0.385749  -0.014483  3.555644  -0.013
N  N67  1  0.80085282  0.30333888  0.39478910  1  -0.457647  -0.004177  3.288333  -0.005  -1.338667  -0.013611  -0.405657  -0.010092  3.550663  -0.009  -0.42878  -0.008554  3.552072  -0.007  -0.306485  -0.388767  -0.01288  3.548465  -0.011
N  N68  1  0.60200381  0.61435502  0.90853635  1  -0.453698  -0.006201  3.293483  -0.007  -1.346376  -0.015363  -0.402024  -0.011187  3.556971  -0.01  -0.424828  -0.009163  3.558261  -0.008  -0.30603  -0.385407  -0.014491  3.55513  -0.013
N  N69  1  0.19904630  0.69654524  0.60519547  1  -0.457599  -0.004223  3.288475  -0.005  -1.340043  -0.013594  -0.405753  -0.010081  3.550903  -0.009  -0.428869  -0.008518  3.55233  -0.007  -0.306573  -0.388879  -0.012868  3.548701  -0.011
N  N70  1  0.43593121  0.16290533  0.01446176  1  -0.537029  0.005454  3.109633  0.004  -1.293514  0.001438  -0.510382  0.007422  3.435838  0.009  -0.531494  0.011075  3.436641  0.013  -0.396231  -0.496498  0.005002  3.434165  0.007
N  N71  1  0.67810462  0.42002394  0.49968251  1  -0.605653  -0.017862  2.84824  -0.001  -1.319069  -0.039181  -0.568737  -0.02653  3.151822  -0.004  -0.589982  -0.022007  3.151573  -0.001  -0.372968  -0.552411  -0.031762  3.151752  -0.008
N  N72  1  0.56444235  0.83741591  0.98542191  1  -0.536487  0.005547  3.110276  0.004  -1.294287  0.001417  -0.509934  0.007435  3.436604  0.009  -0.531044  0.01107  3.437439  0.013  -0.395995  -0.496059  0.005006  3.434927  0.007
N  N73  1  0.32189424  0.57997326  0.50031516  1  -0.605707  -0.01798  2.848396  -0.001  -1.319055  -0.039164  -0.568815  -0.026526  3.151952  -0.004  -0.590041  -0.021991  3.151704  -0.001  -0.372912  -0.552504  -0.031771  3.151883  -0.008
