# generated using pymatgen
data_CuH6C3S2I
_symmetry_space_group_name_H-M   'P 1'
_cell_length_a   7.25503031
_cell_length_b   7.75359753
_cell_length_c   12.02133319
_cell_angle_alpha   89.99988954
_cell_angle_beta   89.99966139
_cell_angle_gamma   103.67610939
_symmetry_Int_Tables_number   1
_chemical_formula_structural   CuH6C3S2I
_chemical_formula_sum   'Cu4 H24 C12 S8 I4'
_cell_volume   657.05842271
_cell_formula_units_Z   4
loop_
 _symmetry_equiv_pos_site_id
 _symmetry_equiv_pos_as_xyz
  1  'x, y, z'
loop_
 _atom_site_type_symbol
 _atom_site_label
 _atom_site_symmetry_multiplicity
 _atom_site_fract_x
 _atom_site_fract_y
 _atom_site_fract_z
 _atom_site_occupancy
 _atom_site_hle17_bader_spin_density
 _atom_site_hle17_ddec_charge
 _atom_site_hle17_ddec_spin_density
 _atom_site_hle17_ddec_sum_bond_order
 _atom_site_hle17_magmom
 _atom_site_hse06_10hf_bader_spin_density
 _atom_site_hse06_10hf_ddec_charge
 _atom_site_hse06_10hf_ddec_spin_density
 _atom_site_hse06_10hf_ddec_sum_bond_order
 _atom_site_hse06_10hf_magmom
 _atom_site_hse06_bader_spin_density
 _atom_site_hse06_ddec_charge
 _atom_site_hse06_ddec_spin_density
 _atom_site_hse06_ddec_sum_bond_order
 _atom_site_hse06_magmom
 _atom_site_pbe_bader_spin_density
 _atom_site_pbe_cm5_charge
 _atom_site_pbe_ddec_charge
 _atom_site_pbe_ddec_spin_density
 _atom_site_pbe_ddec_sum_bond_order
 _atom_site_pbe_magmom
Cu  Cu0  1  0.66461490  0.12497086  0.47705240  1  0  0.121465  0  2.308395  0  0  0.049284  0  2.798908  0  0  0.058338  0  2.749316  0  0  0.221741  0.044857  0  2.831178  0
Cu  Cu1  1  0.83538937  0.37502786  0.97705548  1  0  0.12152  0  2.308275  0  0  0.04935  0  2.798755  0  0  0.058397  0  2.749169  0  0  0.221772  0.044922  0  2.831023  0
Cu  Cu2  1  0.33539160  0.87503682  0.52294804  1  0  0.121421  0  2.308461  0  0  0.049251  0  2.798955  0  0  0.058349  0  2.749376  0  0  0.221732  0.044819  0  2.831251  0
Cu  Cu3  1  0.16461130  0.62497319  0.02294746  1  0  0.121443  0  2.30847  0  0  0.049211  0  2.799028  0  0  0.05832  0  2.749459  0  0  0.221737  0.044793  0  2.831279  0
H  H4  1  0.88527477  0.07412078  0.14905604  1  0  0.106533  0  0.985707  0  0  0.11771  0  1.051315  0  0  0.119551  0  1.051586  0  0  0.079718  0.116306  0  1.051313  0
H  H5  1  0.61476154  0.42589763  0.64904723  1  0  0.106605  0  0.985536  0  0  0.117766  0  1.051161  0  0  0.119604  0  1.051436  0  0  0.079772  0.116358  0  1.051153  0
H  H6  1  0.11474581  0.92589881  0.85094773  1  0  0.106551  0  0.985528  0  0  0.117714  0  1.051173  0  0  0.11955  0  1.05144  0  0  0.07974  0.116307  0  1.051172  0
H  H7  1  0.38524941  0.57411668  0.35094323  1  0  0.106588  0  0.985578  0  0  0.117753  0  1.051205  0  0  0.11959  0  1.051477  0  0  0.079743  0.116345  0  1.051202  0
H  H8  1  0.67324035  0.95967643  0.22055916  1  0  0.099113  0  0.990544  0  0  0.103662  0  1.067643  0  0  0.105175  0  1.068305  0  0  0.082928  0.102485  0  1.067359  0
H  H9  1  0.82679820  0.54032804  0.72054966  1  0  0.099219  0  0.990487  0  0  0.103738  0  1.067537  0  0  0.105251  0  1.068195  0  0  0.082937  0.10256  0  1.067241  0
H  H10  1  0.32678716  0.04032720  0.77944211  1  0  0.099091  0  0.990555  0  0  0.103655  0  1.067566  0  0  0.105162  0  1.068228  0  0  0.082884  0.102477  0  1.067275  0
H  H11  1  0.17321446  0.45968759  0.27944163  1  0  0.099169  0  0.990561  0  0  0.103721  0  1.067598  0  0  0.105231  0  1.068255  0  0  0.082902  0.10254  0  1.067303  0
H  H12  1  0.52768570  0.45414089  0.15178968  1  0  0.100069  0  0.966031  0  0  0.114866  0  1.031805  0  0  0.115933  0  1.032173  0  0  0.086243  0.113996  0  1.031633  0
H  H13  1  0.97228916  0.04581526  0.65178969  1  0  0.100151  0  0.966103  0  0  0.1149  0  1.031857  0  0  0.115963  0  1.032234  0  0  0.086298  0.114024  0  1.031686  0
H  H14  1  0.47230608  0.54584160  0.84821492  1  0  0.100074  0  0.966018  0  0  0.114835  0  1.031785  0  0  0.115902  0  1.032167  0  0  0.086242  0.113959  0  1.031611  0
H  H15  1  0.02768960  0.95414866  0.34820576  1  0  0.100064  0  0.965902  0  0  0.114803  0  1.031692  0  0  0.115872  0  1.032065  0  0  0.086248  0.113928  0  1.031526  0
H  H16  1  0.44392235  0.27942666  0.25062429  1  0  0.090938  0  0.970964  0  0  0.106436  0  1.0339  0  0  0.107651  0  1.03456  0  0  0.084514  0.105496  0  1.033547  0
H  H17  1  0.05606806  0.22054311  0.75063024  1  0  0.09099  0  0.97106  0  0  0.106526  0  1.033921  0  0  0.107737  0  1.034595  0  0  0.084548  0.105581  0  1.033581  0
H  H18  1  0.55608143  0.72057040  0.74937366  1  0  0.090911  0  0.970959  0  0  0.106494  0  1.03379  0  0  0.107709  0  1.034468  0  0  0.084526  0.105556  0  1.033442  0
H  H19  1  0.94392547  0.77943007  0.24938019  1  0  0.090986  0  0.970931  0  0  0.106434  0  1.033855  0  0  0.107651  0  1.034518  0  0  0.084545  0.105495  0  1.033505  0
H  H20  1  0.71000664  0.48630517  0.34502666  1  0  0.101966  0  0.9595  0  0  0.113247  0  1.030914  0  0  0.11508  0  1.030338  0  0  0.08655  0.111865  0  1.031432  0
H  H21  1  0.78996651  0.01368482  0.84503563  1  0  0.102036  0  0.959545  0  0  0.113379  0  1.030864  0  0  0.115214  0  1.0303  0  0  0.086621  0.111991  0  1.031397  0
H  H22  1  0.28999782  0.51369454  0.65496629  1  0  0.101927  0  0.959403  0  0  0.113302  0  1.030709  0  0  0.115138  0  1.030138  0  0  0.086579  0.111919  0  1.031229  0
H  H23  1  0.21000739  0.98629240  0.15497230  1  0  0.102048  0  0.959495  0  0  0.113351  0  1.030893  0  0  0.115181  0  1.03032  0  0  0.086602  0.111969  0  1.031418  0
H  H24  1  0.85079402  0.50434216  0.22040297  1  0  0.083869  0  0.981785  0  0  0.095901  0  1.052998  0  0  0.098045  0  1.051276  0  0  0.081082  0.094244  0  1.054399  0
H  H25  1  0.64919184  0.99566645  0.72041304  1  0  0.083892  0  0.981875  0  0  0.095944  0  1.053054  0  0  0.098083  0  1.051355  0  0  0.081041  0.094287  0  1.054458  0
H  H26  1  0.14920734  0.49565624  0.77958998  1  0  0.083903  0  0.981744  0  0  0.095933  0  1.052959  0  0  0.098074  0  1.051257  0  0  0.081077  0.094278  0  1.054358  0
H  H27  1  0.35078400  0.00434530  0.27958657  1  0  0.084005  0  0.981765  0  0  0.096005  0  1.053005  0  0  0.098148  0  1.051286  0  0  0.081103  0.094348  0  1.05441  0
C  C28  1  0.75852425  0.08966957  0.19411029  1  0  -0.199665  0  3.561315  0  0  -0.223031  0  3.8088  0  0  -0.224638  0  3.818596  0  0  -0.154041  -0.222017  0  3.802412  0
C  C29  1  0.74149434  0.41034076  0.69411027  1  0  -0.199891  0  3.561103  0  0  -0.223189  0  3.80862  0  0  -0.224797  0  3.818416  0  0  -0.154098  -0.222165  0  3.802211  0
C  C30  1  0.24148638  0.91033810  0.80588932  1  0  -0.199645  0  3.561121  0  0  -0.222937  0  3.808529  0  0  -0.224523  0  3.818304  0  0  -0.15399  -0.221914  0  3.802133  0
C  C31  1  0.25850699  0.58966826  0.30589017  1  0  -0.199808  0  3.561132  0  0  -0.223021  0  3.808355  0  0  -0.22461  0  3.818126  0  0  -0.154003  -0.221986  0  3.80194  0
C  C32  1  0.56556472  0.34744076  0.20016539  1  0  -0.149313  0  3.667992  0  0  -0.182255  0  3.913659  0  0  -0.183804  0  3.927401  0  0  -0.162183  -0.181089  0  3.904248  0
C  C33  1  0.93445348  0.15256291  0.70014700  1  0  -0.149494  0  3.667807  0  0  -0.18235  0  3.913328  0  0  -0.183866  0  3.927018  0  0  -0.162269  -0.181175  0  3.903923  0
C  C34  1  0.43445037  0.65257354  0.79984919  1  0  -0.149314  0  3.667854  0  0  -0.182189  0  3.913343  0  0  -0.183686  0  3.926975  0  0  -0.162118  -0.181018  0  3.903935  0
C  C35  1  0.06557945  0.84746727  0.29981351  1  0  -0.149204  0  3.668473  0  0  -0.182007  0  3.914057  0  0  -0.183526  0  3.927732  0  0  -0.162139  -0.180836  0  3.904652  0
C  C36  1  0.74033938  0.41658564  0.27008075  1  0  -0.146518  0  3.66868  0  0  -0.181206  0  3.920598  0  0  -0.182532  0  3.933017  0  0  -0.161724  -0.18017  0  3.912066  0
C  C37  1  0.75962016  0.08341263  0.77009383  1  0  -0.14683  0  3.66871  0  0  -0.181488  0  3.920363  0  0  -0.182768  0  3.932625  0  0  -0.16175  -0.180402  0  3.911731  0
C  C38  1  0.25964578  0.58341944  0.72991220  1  0  -0.146598  0  3.668434  0  0  -0.181341  0  3.920311  0  0  -0.182627  0  3.932613  0  0  -0.161784  -0.180286  0  3.911735  0
C  C39  1  0.24030747  0.91659927  0.22992907  1  0  -0.146803  0  3.669384  0  0  -0.181499  0  3.921198  0  0  -0.182812  0  3.933613  0  0  -0.16187  -0.18043  0  3.912568  0
S  S40  1  0.82884075  0.22824288  0.31699158  1  0  0.067892  0  2.740152  0  0  0.089817  0  3.15898  0  0  0.091157  0  3.145696  0  0  -0.032736  0.088273  0  3.168268  0
S  S41  1  0.67117540  0.27175240  0.81698957  1  0  0.068026  0  2.740722  0  0  0.089846  0  3.159619  0  0  0.091178  0  3.146336  0  0  -0.032785  0.08829  0  3.168906  0
S  S42  1  0.17117061  0.77175150  0.68301052  1  0  0.067903  0  2.740539  0  0  0.089754  0  3.159469  0  0  0.091058  0  3.146204  0  0  -0.032766  0.088204  0  3.168768  0
S  S43  1  0.32883636  0.72822737  0.18300172  1  0  0.067801  0  2.739439  0  0  0.089729  0  3.158229  0  0  0.091039  0  3.144957  0  0  -0.032828  0.088175  0  3.167517  0
S  S44  1  0.62455224  0.19536456  0.09897119  1  0  0.09397  0  2.721487  0  0  0.114615  0  3.133461  0  0  0.11452  0  3.123932  0  0  -0.024941  0.114204  0  3.139839  0
S  S45  1  0.87544624  0.30461164  0.59898095  1  0  0.094078  0  2.722273  0  0  0.114613  0  3.134301  0  0  0.114495  0  3.124773  0  0  -0.024944  0.114197  0  3.140663  0
S  S46  1  0.37544641  0.80462322  0.90102093  1  0  0.094018  0  2.72217  0  0  0.114606  0  3.134126  0  0  0.114467  0  3.124618  0  0  -0.024952  0.114187  0  3.140505  0
S  S47  1  0.12454970  0.69536021  0.40104112  1  0  0.093974  0  2.720899  0  0  0.114536  0  3.13281  0  0  0.114417  0  3.123293  0  0  -0.024917  0.11412  0  3.139188  0
I  I48  1  0.33745341  0.21055123  0.49745489  1  0  -0.370284  0  1.541136  0  0  -0.319045  0  1.964669  0  0  -0.334508  0  1.929936  0  0  -0.187157  -0.308467  0  1.987753  0
I  I49  1  0.16255392  0.28945745  0.99745204  1  0  -0.370284  0  1.54113  0  0  -0.319069  0  1.964701  0  0  -0.334536  0  1.929969  0  0  -0.187151  -0.308496  0  1.987785  0
I  I50  1  0.66254861  0.78945514  0.50253890  1  0  -0.370261  0  1.541131  0  0  -0.319016  0  1.964677  0  0  -0.334486  0  1.929945  0  0  -0.18713  -0.30844  0  1.987767  0
I  I51  1  0.83744982  0.71055024  0.00254507  1  0  -0.370297  0  1.541099  0  0  -0.319042  0  1.964611  0  0  -0.334512  0  1.929884  0  0  -0.187151  -0.308463  0  1.987684  0
