# generated using pymatgen
data_CuH18C14S(NO3)2
_symmetry_space_group_name_H-M   'P 1'
_cell_length_a   8.49858704
_cell_length_b   8.78594096
_cell_length_c   11.93827464
_cell_angle_alpha   102.52358949
_cell_angle_beta   93.62926091
_cell_angle_gamma   117.87528516
_symmetry_Int_Tables_number   1
_chemical_formula_structural   CuH18C14S(NO3)2
_chemical_formula_sum   'Cu2 H36 C28 S2 N4 O12'
_cell_volume   755.08944327
_cell_formula_units_Z   2
loop_
 _symmetry_equiv_pos_site_id
 _symmetry_equiv_pos_as_xyz
  1  'x, y, z'
loop_
 _atom_site_type_symbol
 _atom_site_label
 _atom_site_symmetry_multiplicity
 _atom_site_fract_x
 _atom_site_fract_y
 _atom_site_fract_z
 _atom_site_occupancy
 _atom_site_hle17_ddec_charge
 _atom_site_hle17_ddec_spin_density
 _atom_site_hle17_ddec_sum_bond_order
 _atom_site_hle17_magmom
 _atom_site_hse06_10hf_ddec_charge
 _atom_site_hse06_10hf_ddec_spin_density
 _atom_site_hse06_10hf_ddec_sum_bond_order
 _atom_site_hse06_10hf_magmom
 _atom_site_hse06_ddec_charge
 _atom_site_hse06_ddec_spin_density
 _atom_site_hse06_ddec_sum_bond_order
 _atom_site_hse06_magmom
 _atom_site_pbe_cm5_charge
 _atom_site_pbe_ddec_charge
 _atom_site_pbe_ddec_spin_density
 _atom_site_pbe_ddec_sum_bond_order
 _atom_site_pbe_magmom
Cu  Cu0  1  0.49999260  0.99999262  0.99999936  1  0.856744  -0.697886  1.721394  -0.52  0.829135  -0.782292  2.085488  -0.636  0.918264  -0.848161  2.027674  -0.723  0.736258  0.774807  -0.735927  2.126325  -0.579
Cu  Cu1  1  0.00000262  0.50000333  0.50000049  1  0.878651  -0.709073  1.759723  -0.528  0.856778  -0.790277  2.122399  -0.643  0.942753  -0.854518  2.063654  -0.728  0.76032  0.802934  -0.742671  2.163532  -0.585
H  H2  1  0.83256608  0.13467252  0.02471575  1  0.374808  0.000738  0.931975  0.002  0.345436  0.000127  1.01112  0.001  0.357178  0.000316  1.000023  0.001  0.290906  0.337182  -6.9e-05  1.018841  0.0
H  H3  1  0.16742481  0.86532081  0.97528490  1  0.374744  0.000738  0.932078  0.002  0.345371  0.000127  1.011241  0.001  0.357114  0.000316  1.000144  0.001  0.290869  0.337116  -6.9e-05  1.018961  0.0
H  H4  1  0.82572993  0.87784056  0.94526912  1  0.054216  2.2e-05  0.933407  0.0  0.067454  0.000141  0.99954  0.0  0.067203  0.000176  0.999486  0.0  0.100901  0.067692  9e-06  0.999208  0.0
H  H5  1  0.17426166  0.12215414  0.05472843  1  0.054192  2.2e-05  0.933407  0.0  0.067442  0.000141  0.999527  0.0  0.067194  0.000177  0.999466  0.0  0.100874  0.06768  9e-06  0.999194  0.0
H  H6  1  0.88304564  0.98573356  0.83257130  1  0.064057  -0.006105  0.933879  -0.009  0.074807  -0.003585  0.999636  -0.005  0.073373  -0.00221  0.999869  -0.003  0.099495  0.075622  -0.004711  0.999795  -0.007
H  H7  1  0.11694796  0.01426516  0.16742783  1  0.064035  -0.006104  0.933961  -0.009  0.074784  -0.003585  0.999716  -0.005  0.073351  -0.00221  0.999949  -0.003  0.099505  0.075601  -0.004711  0.999876  -0.007
H  H8  1  0.97941809  0.77762130  0.57069213  1  0.378118  0.000704  0.934775  0.002  0.345977  0.000189  1.019914  0.001  0.358063  0.000373  1.004819  0.001  0.287645  0.337541  -8.3e-05  1.028197  0.0
H  H9  1  0.02058544  0.22238546  0.42930794  1  0.378115  0.000704  0.93477  0.002  0.345973  0.000189  1.019913  0.001  0.358061  0.000373  1.004821  0.001  0.287657  0.33754  -8.3e-05  1.028199  0.0
H  H10  1  0.54031708  0.83532803  0.75220862  1  0.110756  0.000655  0.935923  0.001  0.123949  0.000257  1.002862  0.0  0.124947  0.000268  1.002851  0.0  0.105596  0.123092  0.000222  1.003065  0.0
H  H11  1  0.45967045  0.16466800  0.24779146  1  0.110726  0.000656  0.935933  0.001  0.123953  0.000257  1.00285  0.0  0.124951  0.000267  1.002837  0.0  0.105596  0.123098  0.000222  1.003054  0.0
H  H12  1  0.64189869  0.69671762  0.73516688  1  0.103653  0.000577  0.917171  0.0  0.123379  0.000255  0.970753  0.0  0.124919  0.000206  0.970383  0.0  0.105508  0.122158  0.000283  0.971323  0.0
H  H13  1  0.35809140  0.30328112  0.26482957  1  0.103666  0.000578  0.91718  0.0  0.12339  0.000255  0.97077  0.0  0.124932  0.000205  0.970396  0.0  0.105504  0.122171  0.000283  0.971348  0.0
H  H14  1  0.46075359  0.41982682  0.76075756  1  0.098832  -0.000424  0.976948  -0.001  0.109789  -0.000436  1.036739  -0.001  0.111535  -0.000304  1.03874  0.0  0.102075  0.108433  -0.00055  1.035785  -0.001
H  H15  1  0.53925608  0.58016643  0.23925067  1  0.098826  -0.000424  0.976975  -0.001  0.109748  -0.000436  1.036784  -0.001  0.111494  -0.000304  1.038782  0.0  0.102063  0.108401  -0.00055  1.03583  -0.001
H  H16  1  0.24975618  0.22359213  0.86791637  1  0.107023  -0.000613  0.953376  -0.001  0.11426  -0.000201  1.017806  0.0  0.11704  -8.8e-05  1.01501  0.0  0.108421  0.112421  -0.000305  1.019735  0.0
H  H17  1  0.75024900  0.77639445  0.13208555  1  0.107037  -0.000613  0.953459  -0.001  0.114259  -0.000201  1.017905  0.0  0.117062  -8.9e-05  1.015078  0.0  0.108438  0.112427  -0.000305  1.019829  0.0
H  H18  1  0.14610707  0.37045415  0.03512754  1  0.124195  -0.00042  0.972125  0.0  0.133371  -0.000373  1.030761  0.0  0.136849  -0.000262  1.029206  0.0  0.108658  0.130825  -0.000503  1.03162  -0.001
H  H19  1  0.85387308  0.62952715  0.96486814  1  0.124213  -0.000419  0.972041  0.0  0.133339  -0.000373  1.030753  0.0  0.136816  -0.000262  1.0292  0.0  0.10866  0.130792  -0.000503  1.03161  -0.001
H  H20  1  0.26226782  0.69691571  0.07952810  1  0.082658  -0.000907  0.966358  -0.002  0.090476  -0.000665  1.030052  -0.002  0.092508  -0.000429  1.028015  -0.001  0.118934  0.088914  -0.000926  1.031511  -0.002
H  H21  1  0.73770815  0.30306427  0.92046465  1  0.082578  -0.000907  0.966476  -0.002  0.090556  -0.000665  1.029987  -0.002  0.092593  -0.000429  1.027943  -0.001  0.118956  0.088989  -0.000926  1.031445  -0.002
H  H22  1  0.09508314  0.93250783  0.44844854  1  0.042589  1.1e-05  0.939254  0.0  0.060306  -2.1e-05  1.002506  0.0  0.059703  -4.1e-05  1.003005  0.0  0.098727  0.060395  -7.3e-05  1.002432  0.0
H  H23  1  0.90492660  0.06750427  0.55155436  1  0.042679  1.1e-05  0.939163  0.0  0.060352  -2.1e-05  1.002449  0.0  0.059748  -4.2e-05  1.002944  0.0  0.098744  0.060442  -7.3e-05  1.002373  0.0
H  H24  1  0.87749022  0.79638284  0.35656018  1  0.055118  -0.0039  0.941706  -0.005  0.066635  -0.002161  1.011592  -0.003  0.065041  -0.001291  1.012747  -0.002  0.098896  0.067814  -0.002959  1.010872  -0.004
H  H25  1  0.12252359  0.20362793  0.64343934  1  0.055135  -0.003899  0.941783  -0.005  0.06663  -0.00216  1.011662  -0.003  0.065035  -0.001291  1.01282  -0.002  0.098891  0.067808  -0.002959  1.010934  -0.004
H  H26  1  0.96712916  0.56746301  0.27192276  1  0.130388  0.000619  0.951128  0.001  0.14229  0.000229  1.013262  0.0  0.144043  0.000231  1.013132  0.0  0.106771  0.140769  0.000214  1.013531  0.0
H  H27  1  0.03288277  0.43254641  0.72807897  1  0.130404  0.000619  0.951041  0.001  0.142288  0.000229  1.01319  0.0  0.144045  0.000231  1.01307  0.0  0.106769  0.14077  0.000215  1.013468  0.0
H  H28  1  0.09577021  0.77843713  0.24292575  1  0.102794  0.000649  0.934317  0.001  0.122119  0.000272  0.991016  0.0  0.123651  0.000229  0.990865  0.0  0.103219  0.120802  0.000276  0.991559  0.0
H  H29  1  0.90424421  0.22157494  0.75707988  1  0.102883  0.000649  0.934223  0.001  0.122135  0.000272  0.990977  0.0  0.123704  0.000229  0.99079  0.0  0.103219  0.120824  0.000276  0.991521  0.0
H  H30  1  0.41670413  0.90240348  0.27449003  1  0.122618  -0.000481  0.962643  -0.001  0.130526  -0.000427  1.025678  -0.001  0.133385  -0.000305  1.025117  0.0  0.108317  0.128381  -0.000532  1.026272  -0.001
H  H31  1  0.58330516  0.09760061  0.72550652  1  0.122629  -0.000481  0.962665  -0.001  0.130532  -0.000427  1.025685  -0.001  0.133383  -0.000305  1.025145  0.0  0.108391  0.128384  -0.000532  1.026276  -0.001
H  H32  1  0.69530574  0.93161218  0.37551096  1  0.101375  -0.000484  0.972546  -0.001  0.108554  -0.00011  1.038286  0.0  0.11166  -2.3e-05  1.034849  0.0  0.10775  0.106059  -0.000208  1.041129  0.0
H  H33  1  0.30470570  0.06839860  0.62448929  1  0.101379  -0.000484  0.972515  -0.001  0.108561  -0.00011  1.038255  0.0  0.111668  -2.2e-05  1.034817  0.0  0.10771  0.106063  -0.000208  1.041097  0.0
H  H34  1  0.66964133  0.75865441  0.52570639  1  0.109884  -0.000638  0.961859  -0.001  0.119845  -0.000555  1.021644  0.0  0.123527  -0.000368  1.020308  0.0  0.107793  0.117316  -0.00076  1.022421  -0.001
H  H35  1  0.33036853  0.24136974  0.47430181  1  0.109923  -0.000638  0.961764  -0.001  0.119879  -0.000555  1.021542  0.0  0.123559  -0.000368  1.020206  0.0  0.107834  0.117352  -0.00076  1.022324  -0.001
H  H36  1  0.36070486  0.56881762  0.56391714  1  0.090386  -0.001107  0.951239  -0.002  0.09654  -0.000851  1.01754  -0.002  0.098457  -0.000592  1.01557  -0.001  0.120818  0.095343  -0.001061  1.018264  -0.002
H  H37  1  0.63930806  0.43119850  0.43608656  1  0.090327  -0.001107  0.951281  -0.002  0.09658  -0.000851  1.017482  -0.002  0.098496  -0.000592  1.015516  -0.001  0.120851  0.095387  -0.001061  1.01821  -0.002
C  C38  1  0.77618374  0.92836145  0.88288583  1  0.156504  0.002434  3.603611  0.003  0.100667  -0.000896  3.881327  0.0  0.111658  -2.5e-05  3.887265  0.001  -0.075206  0.093317  -0.00183  3.876887  -0.001
C  C39  1  0.22380667  0.07163326  0.11711166  1  0.156527  0.002434  3.603718  0.003  0.100696  -0.000894  3.881435  0.0  0.111688  -2.8e-05  3.887374  0.001  -0.075214  0.093347  -0.00183  3.876998  -0.001
C  C40  1  0.60419337  0.77765120  0.79953115  1  -0.23289  -0.003756  3.697641  -0.005  -0.284285  -0.002232  3.954431  -0.003  -0.288352  -0.001284  3.964907  -0.002  -0.160739  -0.281442  -0.003119  3.94736  -0.004
C  C41  1  0.39579520  0.22234216  0.20046604  1  -0.232808  -0.003757  3.697722  -0.005  -0.284239  -0.002231  3.95448  -0.003  -0.288294  -0.001283  3.964969  -0.002  -0.160744  -0.281416  -0.003119  3.947397  -0.004
C  C42  1  0.47070095  0.65915545  0.86108611  1  0.277583  0.00932  3.693602  0.006  0.281655  0.001471  3.938899  0.0  0.292785  0.003215  3.959578  0.002  0.127121  0.274332  2.3e-05  3.92522  -0.001
C  C43  1  0.52928861  0.34083521  0.13891321  1  0.277297  0.009332  3.693996  0.006  0.281404  0.00147  3.939228  0.0  0.292488  0.003215  3.959986  0.002  0.127111  0.274148  2.2e-05  3.925458  -0.001
C  C44  1  0.41044552  0.47528776  0.83091353  1  -0.165597  -0.012431  3.699555  -0.014  -0.18002  -0.004635  3.938526  -0.006  -0.189631  -0.003903  3.960852  -0.005  -0.08352  -0.173818  -0.005127  3.923971  -0.006
C  C45  1  0.58954673  0.52469886  0.16908526  1  -0.165487  -0.012441  3.699819  -0.014  -0.179869  -0.004634  3.938768  -0.006  -0.189469  -0.003903  3.961129  -0.005  -0.083536  -0.173695  -0.005126  3.924206  -0.006
C  C46  1  0.29194701  0.36622756  0.89104576  1  0.014667  0.014699  3.70251  0.009  -0.004093  0.00478  3.953697  0.003  0.002074  0.005257  3.970356  0.003  -0.06297  -0.008422  0.004237  3.942721  0.002
C  C47  1  0.70804964  0.63376310  0.10895138  1  0.014553  0.01472  3.702534  0.009  -0.004217  0.004781  3.953754  0.003  0.001936  0.005258  3.9704  0.003  -0.062985  -0.008553  0.004238  3.942795  0.002
C  C48  1  0.23611468  0.44563598  0.98233435  1  -0.138229  -0.0115  3.71803  -0.013  -0.150026  -0.004151  3.967536  -0.005  -0.158653  -0.003551  3.988002  -0.004  -0.087083  -0.144118  -0.004658  3.953263  -0.006
C  C49  1  0.76387457  0.55433994  0.01766005  1  -0.138068  -0.011508  3.718094  -0.013  -0.149851  -0.00415  3.967675  -0.005  -0.158478  -0.00355  3.988151  -0.004  -0.086999  -0.143941  -0.004657  3.953394  -0.006
C  C50  1  0.30146533  0.62923573  0.00883324  1  0.148229  0.010766  3.672197  0.007  0.117772  0.002215  3.927707  0.001  0.127877  0.003957  3.945893  0.002  0.048125  0.111498  0.000836  3.915389  0.0
C  C51  1  0.69851970  0.37074824  0.99116310  1  0.148202  0.010777  3.672557  0.007  0.117659  0.002213  3.928017  0.001  0.127765  0.003956  3.946211  0.002  0.048046  0.111389  0.000836  3.915687  0.0
C  C52  1  0.99215475  0.79355188  0.40206636  1  0.16935  0.002001  3.589571  0.003  0.112979  -0.000912  3.864438  0.0  0.123717  -0.000157  3.871402  0.0  -0.072949  0.105636  -0.001751  3.860002  0.0
C  C53  1  0.00785600  0.20645755  0.59793531  1  0.169124  0.002001  3.58957  0.003  0.11281  -0.000914  3.864392  0.0  0.12356  -0.000156  3.871362  0.0  -0.072977  0.105478  -0.001751  3.859963  0.0
C  C54  1  0.06916678  0.70935119  0.31172342  1  -0.257892  -0.005341  3.707399  -0.007  -0.307858  -0.003102  3.960539  -0.004  -0.313496  -0.001776  3.971848  -0.003  -0.1675  -0.303742  -0.004155  3.953326  -0.005
C  C55  1  0.93083839  0.29065419  0.68828069  1  -0.25791  -0.005339  3.70731  -0.007  -0.307796  -0.003101  3.960357  -0.004  -0.313489  -0.001776  3.971709  -0.003  -0.167493  -0.303719  -0.004155  3.953181  -0.005
C  C56  1  0.24031815  0.72312744  0.36613142  1  0.280591  0.010055  3.692201  0.006  0.286253  0.001622  3.934583  0.001  0.298084  0.003296  3.954634  0.002  0.12593  0.277901  0.000249  3.921552  -0.001
C  C57  1  0.75968872  0.27687661  0.63387088  1  0.280611  0.010051  3.692313  0.006  0.286298  0.001622  3.93462  0.001  0.29814  0.003297  3.954681  0.002  0.125975  0.277952  0.000249  3.921583  -0.001
C  C58  1  0.40817610  0.83117029  0.33992988  1  -0.16361  -0.012229  3.677465  -0.013  -0.180902  -0.004436  3.920386  -0.005  -0.190612  -0.003759  3.941885  -0.005  -0.082364  -0.174522  -0.005031  3.905869  -0.006
C  C59  1  0.59183231  0.16883915  0.66007085  1  -0.163665  -0.012226  3.67766  -0.013  -0.180956  -0.004435  3.920593  -0.005  -0.190666  -0.003759  3.942091  -0.005  -0.082552  -0.174577  -0.005031  3.906062  -0.006
C  C60  1  0.56516233  0.84701441  0.39691795  1  0.007962  0.014082  3.722876  0.009  -0.012268  0.004339  3.975224  0.002  -0.005842  0.004911  3.9911  0.003  -0.067852  -0.016409  0.00387  3.964322  0.002
C  C61  1  0.43484674  0.15299636  0.60308302  1  0.007942  0.014084  3.722965  0.009  -0.012319  0.004339  3.975321  0.002  -0.005893  0.00491  3.991198  0.003  -0.067816  -0.016455  0.003872  3.964407  0.002
C  C62  1  0.55129525  0.75234926  0.47920818  1  -0.148637  -0.010571  3.75286  -0.012  -0.16239  -0.003785  4.009607  -0.005  -0.171379  -0.00327  4.030203  -0.004  -0.091287  -0.156141  -0.004384  3.994515  -0.005
C  C63  1  0.44871431  0.24766955  0.52079663  1  -0.148768  -0.010571  3.752656  -0.012  -0.162485  -0.003786  4.009423  -0.005  -0.171473  -0.00327  4.030015  -0.004  -0.091377  -0.156245  -0.004385  3.994342  -0.005
C  C64  1  0.38091267  0.64633512  0.50124391  1  0.140693  0.010848  3.697203  0.007  0.109303  0.0022  3.956626  0.001  0.119575  0.003918  3.974895  0.002  0.045633  0.102621  0.000808  3.943753  0.0
C  C65  1  0.61909841  0.35367967  0.49875864  1  0.140863  0.010846  3.696944  0.007  0.109371  0.002202  3.956362  0.001  0.119647  0.003919  3.974627  0.002  0.045685  0.102676  0.000809  3.943502  0.0
S  S66  1  0.15256921  0.83578131  0.76584824  1  1.554975  0.000518  5.833596  0.001  1.442167  0.000149  6.373718  0.0  1.497544  0.000233  6.336574  0.0  0.547299  1.403726  4e-05  6.398009  0.0
S  S67  1  0.84742809  0.16422008  0.23415234  1  1.554941  0.00052  5.833612  0.001  1.442126  0.000149  6.373748  0.0  1.4975  0.000226  6.336611  0.0  0.547263  1.403685  4e-05  6.398045  0.0
N  N68  1  0.41524402  0.73434203  0.94979749  1  -0.332799  -0.079794  3.251643  -0.102  -0.288735  -0.050558  3.5365  -0.069  -0.321333  -0.040843  3.559284  -0.06  -0.34032  -0.269208  -0.055907  3.523353  -0.072
N  N69  1  0.58474453  0.26564192  0.05020069  1  -0.332557  -0.079803  3.251435  -0.102  -0.288539  -0.05056  3.536374  -0.069  -0.321112  -0.040845  3.559137  -0.06  -0.340246  -0.269033  -0.055907  3.523201  -0.072
N  N70  1  0.22945352  0.63238570  0.44624347  1  -0.33225  -0.080899  3.281358  -0.103  -0.287333  -0.050472  3.562424  -0.068  -0.31966  -0.040386  3.584067  -0.059  -0.348701  -0.267743  -0.05614  3.550024  -0.072
N  N71  1  0.77055658  0.36762239  0.55375629  1  -0.332291  -0.080902  3.281229  -0.103  -0.287359  -0.050475  3.562294  -0.068  -0.319695  -0.040389  3.583937  -0.059  -0.348695  -0.267756  -0.056145  3.549882  -0.072
O  O72  1  0.74155573  0.06577115  0.94466491  1  -0.556414  -0.073434  2.228895  -0.101  -0.51179  -0.049886  2.500539  -0.075  -0.547552  -0.036824  2.494844  -0.06  -0.396539  -0.488182  -0.058815  2.504644  -0.084
O  O73  1  0.25843331  0.93422085  0.05533543  1  -0.556376  -0.07343  2.229017  -0.101  -0.511753  -0.049885  2.500644  -0.075  -0.547508  -0.036823  2.494936  -0.06  -0.396497  -0.488147  -0.058812  2.50475  -0.084
O  O74  1  0.92953757  0.69239740  0.48524066  1  -0.559869  -0.068066  2.187088  -0.094  -0.513987  -0.046646  2.455416  -0.07  -0.548227  -0.034415  2.446362  -0.056  -0.396041  -0.491733  -0.05414  2.460535  -0.077
O  O75  1  0.07046530  0.30760803  0.51475749  1  -0.559803  -0.068064  2.187083  -0.094  -0.513904  -0.046644  2.455345  -0.07  -0.548147  -0.034415  2.446296  -0.056  -0.396029  -0.491652  -0.054139  2.46046  -0.077
O  O76  1  0.33163753  0.99511247  0.82286326  1  -0.755079  9e-06  1.972269  -0.002  -0.712966  0.000316  2.248132  -0.001  -0.735843  0.000833  2.229903  -0.001  -0.371208  -0.696875  -0.000499  2.260405  -0.002
O  O77  1  0.66836078  0.00488624  0.17713610  1  -0.755081  9e-06  1.972268  -0.002  -0.712948  0.000317  2.248102  -0.001  -0.735829  0.000835  2.22988  -0.001  -0.371194  -0.696857  -0.000499  2.260384  -0.002
O  O78  1  0.04825102  0.76992132  0.85859373  1  -0.732595  -8.6e-05  1.94901  0.0  -0.676384  -0.000109  2.192827  0.0  -0.696361  3.1e-05  2.17582  0.0  -0.373116  -0.661847  -0.000288  2.20365  0.0
O  O79  1  0.95174797  0.23007874  0.14140504  1  -0.732604  -8.7e-05  1.948948  0.0  -0.676406  -0.000109  2.192767  0.0  -0.696388  3.2e-05  2.175769  0.0  -0.373094  -0.661864  -0.000288  2.203591  0.0
O  O80  1  0.04680947  0.89008542  0.69218211  1  -0.741173  -0.00094  1.936822  -0.001  -0.68319  -0.000518  2.184728  -0.001  -0.703527  -0.000139  2.166267  0.0  -0.374204  -0.668679  -0.001125  2.196793  -0.001
O  O81  1  0.95319086  0.10991732  0.30781715  1  -0.741152  -0.000942  1.936822  -0.001  -0.683152  -0.000522  2.184707  -0.001  -0.703488  -0.000146  2.166251  0.0  -0.374176  -0.668637  -0.001125  2.196773  -0.001
O  O82  1  0.17397370  0.69128509  0.69053054  1  -0.754692  -0.001114  2.005039  -0.004  -0.713276  -0.000558  2.282418  -0.003  -0.736481  0.000139  2.264672  -0.002  -0.371251  -0.69582  -0.002062  2.293471  -0.004
O  O83  1  0.82602713  0.30871630  0.30946937  1  -0.754668  -0.001112  2.005048  -0.004  -0.713261  -0.000555  2.282438  -0.003  -0.736467  0.000148  2.264697  -0.002  -0.371255  -0.695803  -0.00206  2.293495  -0.004
