# generated using pymatgen
data_CdH26(C9N2)4
_symmetry_space_group_name_H-M   'P 1'
_cell_length_a   9.10840423
_cell_length_b   13.30407532
_cell_length_c   16.81124954
_cell_angle_alpha   104.92857391
_cell_angle_beta   90.06184845
_cell_angle_gamma   109.98057313
_symmetry_Int_Tables_number   1
_chemical_formula_structural   CdH26(C9N2)4
_chemical_formula_sum   'Cd2 H52 C72 N16'
_cell_volume   1841.00041375
_cell_formula_units_Z   2
loop_
 _symmetry_equiv_pos_site_id
 _symmetry_equiv_pos_as_xyz
  1  'x, y, z'
loop_
 _atom_site_type_symbol
 _atom_site_label
 _atom_site_symmetry_multiplicity
 _atom_site_fract_x
 _atom_site_fract_y
 _atom_site_fract_z
 _atom_site_occupancy
 _atom_site_pbe_bader_charge
 _atom_site_pbe_bader_spin_density
 _atom_site_pbe_cm5_charge
 _atom_site_pbe_ddec_charge
 _atom_site_pbe_ddec_spin_density
 _atom_site_pbe_ddec_sum_bond_order
 _atom_site_pbe_magmom
Cd  Cd0  1  0.91254343  0.99075226  0.25979696  1  1.219649  0  0.778598  0.697426  0  2.432757  0
Cd  Cd1  1  0.07800457  0.99075807  0.75968908  1  1.218396  0  0.77829  0.697633  0  2.433281  0
H  H2  1  0.55756251  0.00307513  0.27734445  1  0.087555  0  0.103468  0.078524  0  1.039207  0
H  H3  1  0.44540085  0.00267911  0.77733789  1  0.081978  0  0.103639  0.078359  0  1.039855  0
H  H4  1  0.48986613  0.19414630  0.33503260  1  0.073042  0  0.095202  0.111615  0  1.033074  0
H  H5  1  0.70424229  0.19362055  0.83482854  1  0.086893  0  0.095218  0.111354  0  1.034488  0
H  H6  1  0.74777506  0.36169303  0.32046498  1  0.093123  0  0.097686  0.117919  0  1.020739  0
H  H7  1  0.61401361  0.36120818  0.81986889  1  0.08968  0  0.097621  0.117896  0  1.020181  0
H  H8  1  0.31699269  0.39221844  0.22164992  1  0.08276  0  0.092627  0.10681  0  1.059616  0
H  H9  1  0.07564488  0.39230749  0.72091998  1  0.084487  0  0.092359  0.107021  0  1.060737  0
H  H10  1  0.47034214  0.24798364  0.17509853  1  0.089566  0  0.096715  0.115656  0  1.017299  0
H  H11  1  0.77755403  0.24867799  0.67530472  1  0.075495  0  0.096413  0.115322  0  1.017411  0
H  H12  1  0.26795241  0.04754198  0.18708731  1  0.083132  0  0.111082  0.086763  0  1.001436  0
H  H13  1  0.77908626  0.04826420  0.68799369  1  0.069346  0  0.111072  0.086993  0  1.001423  0
H  H14  1  0.87304295  0.37856566  0.16655724  1  0.067646  0  0.104813  0.105036  0  0.99364  0
H  H15  1  0.50523224  0.37838578  0.66568463  1  0.060167  0  0.104294  0.104495  0  0.994156  0
H  H16  1  0.93848635  0.57952502  0.17969537  1  0.05682  0  0.107029  0.111604  0  1.013454  0
H  H17  1  0.64092421  0.57936711  0.67907528  1  0.064641  0  0.10672  0.111014  0  1.014484  0
H  H18  1  0.26365719  0.66031163  0.39272808  1  0.069693  0  0.110431  0.116481  0  1.008005  0
H  H19  1  0.39748791  0.66000172  0.89226856  1  0.091497  0  0.110706  0.117021  0  1.006769  0
H  H20  1  0.20692978  0.45898108  0.37500145  1  0.086352  0  0.106285  0.111247  0  0.987965  0
H  H21  1  0.25261900  0.45873595  0.87421880  1  0.069971  0  0.105967  0.110842  0  0.988429  0
H  H22  1  0.91290909  0.74144637  0.24952776  1  0.155505  0  0.129761  0.089765  0  1.052969  0
H  H23  1  0.82903724  0.74119911  0.74931596  1  0.154913  0  0.129548  0.089582  0  1.052975  0
H  H24  1  0.32704656  0.01516529  0.34626198  1  0.121434  0  0.117849  0.109434  0  1.020243  0
H  H25  1  0.68867887  0.01499766  0.84593993  1  0.124363  0  0.117505  0.108791  0  1.020867  0
H  H26  1  0.37991015  0.82227434  0.34980591  1  0.158497  0  0.117449  0.119328  0  1.055427  0
H  H27  1  0.44324633  0.82222915  0.84966538  1  0.153673  0  0.117968  0.119403  0  1.053856  0
H  H28  1  0.73482538  0.92412479  0.42039853  1  0.099806  0  0.106779  0.08543  0  1.022979  0
H  H29  1  0.18983857  0.92375207  0.92019505  1  0.104833  0  0.106802  0.085672  0  1.021321  0
H  H30  1  0.56342324  0.71619970  0.43322233  1  0.073948  0  0.097698  0.115005  0  1.011388  0
H  H31  1  0.15263873  0.71560272  0.93290612  1  0.082758  0  0.097849  0.115625  0  1.011774  0
H  H32  1  0.49978996  0.58163552  0.27643910  1  0.071776  0  0.093753  0.111351  0  1.044324  0
H  H33  1  0.08102136  0.58115461  0.77607779  1  0.060853  0  0.093523  0.111119  0  1.044369  0
H  H34  1  0.64001522  0.64147992  0.97696767  1  0.084814  0  0.091757  0.10731  0  1.052655  0
H  H35  1  0.00071358  0.64170060  0.47669319  1  0.081229  0  0.092043  0.107823  0  1.05328  0
H  H36  1  0.86387729  0.80028319  0.92678382  1  0.067983  0  0.092251  0.109356  0  1.055646  0
H  H37  1  0.93539397  0.80063548  0.42658770  1  0.061977  0  0.092444  0.109787  0  1.05502  0
H  H38  1  0.00701948  0.96528019  0.06744735  1  0.08904  0  0.103878  0.074784  0  1.043533  0
H  H39  1  0.95735649  0.96549678  0.56726562  1  0.075761  0  0.103461  0.074334  0  1.043043  0
H  H40  1  0.71353449  0.52351478  0.07138632  1  0.050647  0  0.102538  0.102866  0  1.001462  0
H  H41  1  0.80942656  0.52359932  0.57035500  1  0.064873  0  0.102601  0.103093  0  1.000284  0
H  H42  1  0.53321106  0.33049695  0.00754677  1  0.073893  0  0.10842  0.115458  0  1.002869  0
H  H43  1  0.79690822  0.33062682  0.50653252  1  0.072157  0  0.108184  0.115154  0  1.003982  0
H  H44  1  0.13897408  0.42954147  0.08216070  1  0.077296  0  0.102296  0.106052  0  1.028687  0
H  H45  1  0.29011524  0.42961147  0.58190248  1  0.080454  0  0.101868  0.10604  0  1.030255  0
H  H46  1  0.32106890  0.61986790  0.15147429  1  0.069784  0  0.10238  0.105421  0  1.006643  0
H  H47  1  0.29791944  0.61977071  0.65139579  1  0.08709  0  0.102497  0.105412  0  1.006475  0
H  H48  1  0.35162977  0.20765619  0.90408517  1  0.162414  0  0.12536  0.083974  0  1.094853  0
H  H49  1  0.85416480  0.20646435  0.40439324  1  0.15742  0  0.125118  0.083375  0  1.09519  0
H  H50  1  0.89844181  0.03899494  0.96021269  1  0.114199  0  0.115675  0.109573  0  1.02352  0
H  H51  1  0.14236111  0.03976007  0.46014723  1  0.109051  0  0.115546  0.109178  0  1.023543  0
H  H52  1  0.02530760  0.24210147  0.07881295  1  0.136466  0  0.119507  0.119464  0  1.03356  0
H  H53  1  0.21857912  0.24332387  0.57820724  1  0.115679  0  0.119435  0.119294  0  1.033985  0
C  C54  1  0.63204266  0.08828629  0.28130795  1  0.449265  0  0.009753  0.048318  0  3.978358  0
C  C55  1  0.45609532  0.08791770  0.78125181  1  0.47338  0  0.008854  0.047777  0  3.980995  0
C  C56  1  0.59851091  0.18743698  0.31211773  1  -0.13961  0  -0.132384  -0.196294  0  4.069294  0
C  C57  1  0.58890954  0.18699536  0.81188739  1  -0.154405  0  -0.132574  -0.196281  0  4.071064  0
C  C58  1  0.73047825  0.27370385  0.30341583  1  -0.079189  0  -0.119817  -0.205953  0  4.013284  0
C  C59  1  0.54328607  0.27324544  0.80293116  1  -0.057066  0  -0.11928  -0.205185  0  4.012255  0
C  C60  1  0.84242366  0.22442435  0.26877678  1  0.386364  0  0.054093  0.111289  0  4.086762  0
C  C61  1  0.38201500  0.22406352  0.76833415  1  0.353832  0  0.053848  0.110741  0  4.085796  0
C  C62  1  0.99945525  0.28370306  0.25832504  1  0.001239  0  0.022673  -0.017324  0  3.928043  0
C  C63  1  0.28450684  0.28347457  0.75757590  1  0.00554  0  0.022333  -0.018667  0  3.927521  0
C  C64  1  0.12191148  0.24249361  0.23825636  1  0.355189  0  0.059578  0.121863  0  4.06586  0
C  C65  1  0.12084082  0.24244876  0.73756918  1  0.357027  0  0.060642  0.123159  0  4.062925  0
C  C66  1  0.27469911  0.30464354  0.21913798  1  -0.096668  0  -0.118351  -0.200317  0  4.010377  0
C  C67  1  0.03023815  0.30481664  0.71860046  1  -0.118468  0  -0.118225  -0.200538  0  4.011122  0
C  C68  1  0.35243902  0.23068633  0.19406909  1  -0.071315  0  -0.126465  -0.175039  0  4.038853  0
C  C69  1  0.87824378  0.23120124  0.69410200  1  -0.04851  0  -0.126504  -0.17486  0  4.038343  0
C  C70  1  0.24730535  0.12588065  0.20009630  1  0.456321  0  0.020961  0.063169  0  3.961886  0
C  C71  1  0.87831805  0.12638757  0.70040169  1  0.443012  0  0.020704  0.062214  0  3.962086  0
C  C72  1  0.03752040  0.40483942  0.26897441  1  0.05081  0  -0.002687  0.072695  0  3.999676  0
C  C73  1  0.36761286  0.40460073  0.76818676  1  -0.023475  0  -0.003171  0.074589  0  3.997115  0
C  C74  1  0.96021278  0.44045122  0.21558922  1  -0.067691  0  -0.085482  -0.115099  0  3.996948  0
C  C75  1  0.48011620  0.44026796  0.71476455  1  -0.059011  0  -0.085581  -0.117107  0  3.997969  0
C  C76  1  0.99533099  0.55307725  0.22339062  1  0.016929  0  -0.093938  -0.173345  0  3.994294  0
C  C77  1  0.55783886  0.55294163  0.72275928  1  0.014665  0  -0.09207  -0.169933  0  3.993801  0
C  C78  1  0.10553092  0.63249188  0.28712958  1  0.292546  0  0.098889  0.173506  0  4.011702  0
C  C79  1  0.52756759  0.63230850  0.78668723  1  0.291858  0  0.098206  0.173113  0  4.012178  0
C  C80  1  0.18096570  0.59852400  0.34205252  1  0.02988  0  -0.083625  -0.151092  0  3.976323  0
C  C81  1  0.41837559  0.59822533  0.84156558  1  -0.065136  0  -0.084468  -0.152699  0  3.975219  0
C  C82  1  0.14830660  0.48551305  0.33208675  1  -0.118566  0  -0.080333  -0.105125  0  3.952676  0
C  C83  1  0.33780631  0.48522240  0.83140686  1  0.044086  0  -0.079223  -0.104506  0  3.951871  0
C  C84  1  0.03313975  0.79127284  0.27459331  1  0.927223  0  0.138177  0.097175  0  3.916968  0
C  C85  1  0.75868451  0.79105685  0.77440041  1  0.918996  0  0.138898  0.098656  0  3.916721  0
C  C86  1  0.24808941  0.92934460  0.32643887  1  0.422817  0  -0.003248  -0.038782  0  4.027398  0
C  C87  1  0.68173914  0.92916683  0.82609975  1  0.419297  0  -0.003111  -0.038  0  4.028563  0
C  C88  1  0.27622885  0.83524667  0.32964042  1  0.223022  0  -0.001205  -0.103733  0  3.906598  0
C  C89  1  0.55969276  0.83510331  0.82935324  1  0.241973  0  -0.001224  -0.103464  0  3.904395  0
C  C90  1  0.68585230  0.84759723  0.37069504  1  0.427363  0  0.009605  0.04574  0  3.994413  0
C  C91  1  0.16205140  0.84723997  0.87042647  1  0.434359  0  0.009688  0.046531  0  3.992247  0
C  C92  1  0.59583702  0.73951590  0.37658988  1  -0.05856  0  -0.133132  -0.197056  0  4.080344  0
C  C93  1  0.14348393  0.73901049  0.87628111  1  -0.138496  0  -0.133752  -0.198944  0  4.079992  0
C  C94  1  0.56363351  0.67067561  0.29616620  1  -0.141955  0  -0.120822  -0.205816  0  4.021708  0
C  C95  1  0.10650059  0.67023251  0.79583315  1  -0.061822  0  -0.120793  -0.20565  0  4.020628  0
C  C96  1  0.63604766  0.73911277  0.24332557  1  0.422814  0  0.054905  0.11206  0  4.078237  0
C  C97  1  0.10285794  0.73885508  0.74303072  1  0.363945  0  0.054025  0.112045  0  4.076305  0
C  C98  1  0.63846275  0.70089786  0.15659782  1  -0.082124  0  0.021501  -0.017367  0  3.9267  0
C  C99  1  0.06182164  0.70077372  0.65626851  1  -0.0325  0  0.021687  -0.017449  0  3.925315  0
C  C100  1  0.73183304  0.75813105  0.10441189  1  0.401363  0  0.05971  0.126863  0  4.063467  0
C  C101  1  0.02590788  0.75829886  0.60412674  1  0.40218  0  0.06015  0.126882  0  4.062974  0
C  C102  1  0.72227108  0.71939934  0.01549212  1  -0.070007  0  -0.119682  -0.198512  0  4.002707  0
C  C103  1  0.99638792  0.71958849  0.51521754  1  -0.081317  0  -0.120611  -0.199466  0  4.006068  0
C  C104  1  0.83533458  0.80098034  0.98951135  1  -0.111404  0  -0.12998  -0.178991  0  4.03527  0
C  C105  1  0.96486091  0.80126791  0.48929067  1  -0.065436  0  -0.129751  -0.178932  0  4.03647  0
C  C106  1  0.91125428  0.88712763  0.06270187  1  0.473618  0  0.018272  0.066781  0  3.956873  0
C  C107  1  0.97518577  0.88736876  0.56249832  1  0.455361  0  0.018315  0.067186  0  3.957151  0
C  C108  1  0.53035401  0.58533617  0.11636165  1  0.023634  0  -0.004141  0.073075  0  3.991911  0
C  C109  1  0.05418517  0.58522805  0.61592233  1  -0.014926  0  -0.004114  0.073641  0  3.993203  0
C  C110  1  0.58741948  0.50260225  0.07437355  1  0.037054  0  -0.083778  -0.107429  0  3.97723  0
C  C111  1  0.91459970  0.50261295  0.57351667  1  -0.085672  0  -0.08381  -0.107769  0  3.977297  0
C  C112  1  0.48625131  0.39428303  0.03777212  1  -0.042171  0  -0.090237  -0.165541  0  3.983867  0
C  C113  1  0.90760147  0.39432627  0.53688354  1  0.091916  0  -0.090113  -0.164696  0  3.983078  0
C  C114  1  0.32414390  0.36764683  0.04075364  1  0.286146  0  0.099493  0.177249  0  4.020984  0
C  C115  1  0.04303465  0.36763368  0.54023102  1  0.271918  0  0.099142  0.175943  0  4.022442  0
C  C116  1  0.26502414  0.44959345  0.08068564  1  -0.00578  0  -0.093969  -0.170913  0  4.002632  0
C  C117  1  0.18403344  0.44961738  0.58033878  1  -0.065743  0  -0.094215  -0.172531  0  4.005827  0
C  C118  1  0.36758750  0.55670373  0.11931589  1  -0.066687  0  -0.083162  -0.104685  0  3.965778  0
C  C119  1  0.18837107  0.55662649  0.61905567  1  -0.018814  0  -0.083546  -0.104652  0  3.966386  0
C  C120  1  0.24464825  0.18658644  0.93423997  1  0.942265  0  0.136894  0.096082  0  3.915528  0
C  C121  1  0.94103055  0.18593096  0.43439197  1  0.956281  0  0.137375  0.097141  0  3.914843  0
C  C122  1  0.01097097  0.10489762  0.96507407  1  0.403974  0  -0.004465  -0.03157  0  4.011752  0
C  C123  1  0.09498373  0.10533514  0.46504893  1  0.397783  0  -0.00454  -0.031432  0  4.009726  0
C  C124  1  0.07017404  0.20597116  0.02336283  1  0.289106  0  -0.004411  -0.105933  0  3.920934  0
C  C125  1  0.13681807  0.20666248  0.52300318  1  0.313991  0  -0.004384  -0.106202  0  3.920218  0
N  N126  1  0.77633239  0.10958578  0.25580318  1  -1.207444  0  -0.373849  -0.323488  0  3.441855  0
N  N127  1  0.33305645  0.10923345  0.75568070  1  -1.215185  0  -0.373355  -0.322744  0  3.443103  0
N  N128  1  0.11130415  0.13216242  0.22648047  1  -1.210622  0  -0.365084  -0.315873  0  3.453209  0
N  N129  1  0.02081642  0.13229980  0.72623803  1  -1.176398  0  -0.365406  -0.315868  0  3.453553  0
N  N130  1  0.13789720  0.74713633  0.29604801  1  -1.264803  0  -0.226205  0.00634  0  3.794933  0
N  N131  1  0.60997869  0.74696528  0.79585752  1  -1.283388  0  -0.226385  0.005167  0  3.795769  0
N  N132  1  0.09626144  0.90091332  0.29229687  1  -1.178593  0  -0.341917  -0.281237  0  3.446807  0
N  N133  1  0.80497556  0.90067342  0.79195503  1  -1.167874  0  -0.342345  -0.28179  0  3.448746  0
N  N134  1  0.71082169  0.84808244  0.29204248  1  -1.218434  0  -0.371335  -0.328795  0  3.458972  0
N  N135  1  0.13760634  0.84788197  0.79176571  1  -1.216809  0  -0.371771  -0.330897  0  3.45813  0
N  N136  1  0.85051131  0.86273051  0.13065621  1  -1.205945  0  -0.368987  -0.321953  0  3.460685  0
N  N137  1  0.01188806  0.86293606  0.63043110  1  -1.202253  0  -0.368582  -0.321478  0  3.459225  0
N  N138  1  0.21969838  0.25811005  0.00291937  1  -1.284774  0  -0.227887  0.004782  0  3.796595  0
N  N139  1  0.03821167  0.25811872  0.50271241  1  -1.256386  0  -0.227597  0.005579  0  3.797027  0
N  N140  1  0.12035559  0.09403032  0.90946686  1  -1.212168  0  -0.343922  -0.282178  0  3.437975  0
N  N141  1  0.97344808  0.09364699  0.40975661  1  -1.223214  0  -0.343347  -0.281456  0  3.436275  0
