# generated using pymatgen
data_ZnTeH6C2N
_symmetry_space_group_name_H-M   'P 1'
_cell_length_a   6.92307862
_cell_length_b   6.97795237
_cell_length_c   21.65346788
_cell_angle_alpha   90.00018897
_cell_angle_beta   89.99883633
_cell_angle_gamma   89.99993357
_symmetry_Int_Tables_number   1
_chemical_formula_structural   ZnTeH6C2N
_chemical_formula_sum   'Zn8 Te8 H48 C16 N8'
_cell_volume   1046.05549132
_cell_formula_units_Z   8
loop_
 _symmetry_equiv_pos_site_id
 _symmetry_equiv_pos_as_xyz
  1  'x, y, z'
loop_
 _atom_site_type_symbol
 _atom_site_label
 _atom_site_symmetry_multiplicity
 _atom_site_fract_x
 _atom_site_fract_y
 _atom_site_fract_z
 _atom_site_occupancy
 _atom_site_hle17_bader_spin_density
 _atom_site_hle17_ddec_charge
 _atom_site_hle17_ddec_spin_density
 _atom_site_hle17_ddec_sum_bond_order
 _atom_site_hle17_magmom
 _atom_site_hse06_10hf_bader_spin_density
 _atom_site_hse06_10hf_ddec_charge
 _atom_site_hse06_10hf_ddec_spin_density
 _atom_site_hse06_10hf_ddec_sum_bond_order
 _atom_site_hse06_10hf_magmom
 _atom_site_hse06_bader_spin_density
 _atom_site_hse06_ddec_charge
 _atom_site_hse06_ddec_spin_density
 _atom_site_hse06_ddec_sum_bond_order
 _atom_site_hse06_magmom
 _atom_site_pbe_bader_spin_density
 _atom_site_pbe_cm5_charge
 _atom_site_pbe_ddec_charge
 _atom_site_pbe_ddec_spin_density
 _atom_site_pbe_ddec_sum_bond_order
 _atom_site_pbe_magmom
Zn  Zn0  1  0.78796798  0.09302434  0.70799051  1  0  0.570397  0  2.263469  0  0  0.444576  0  2.698648  0  0  0.483317  0  2.670418  0  0  0.307404  0.418691  0  2.716769  0
Zn  Zn1  1  0.21202750  0.40697942  0.20799356  1  0  0.570308  0  2.26338  0  0  0.444492  0  2.698569  0  0  0.483234  0  2.670342  0  0  0.307363  0.418602  0  2.716684  0
Zn  Zn2  1  0.28796413  0.90700792  0.79200635  1  0  0.57044  0  2.263329  0  0  0.4446  0  2.698505  0  0  0.483338  0  2.670278  0  0  0.307435  0.418716  0  2.716625  0
Zn  Zn3  1  0.71203643  0.59299903  0.29200689  1  0  0.570404  0  2.263319  0  0  0.444544  0  2.698491  0  0  0.483283  0  2.670266  0  0  0.307396  0.418661  0  2.716606  0
Zn  Zn4  1  0.21202354  0.90696453  0.29200814  1  0  0.57038  0  2.263378  0  0  0.444604  0  2.698535  0  0  0.483341  0  2.670311  0  0  0.307396  0.418721  0  2.716649  0
Zn  Zn5  1  0.78796835  0.59302665  0.79200139  1  0  0.570353  0  2.263292  0  0  0.444555  0  2.698505  0  0  0.483298  0  2.670279  0  0  0.307431  0.418662  0  2.71663  0
Zn  Zn6  1  0.71203750  0.09300389  0.20799831  1  0  0.570385  0  2.263374  0  0  0.44451  0  2.698606  0  0  0.483252  0  2.670385  0  0  0.307427  0.418624  0  2.716722  0
Zn  Zn7  1  0.28796375  0.40699988  0.70799315  1  0  0.570397  0  2.263414  0  0  0.444552  0  2.698613  0  0  0.483294  0  2.670386  0  0  0.307399  0.41867  0  2.716733  0
Te  Te8  1  0.16076502  0.05458002  0.68766954  1  0  -0.694583  0  2.292112  0  0  -0.59764  0  2.780223  0  0  -0.634795  0  2.753554  0  0  -0.283816  -0.571878  0  2.797967  0
Te  Te9  1  0.83923473  0.44542072  0.18767069  1  0  -0.694555  0  2.292213  0  0  -0.597562  0  2.780324  0  0  -0.634728  0  2.753666  0  0  -0.28379  -0.571793  0  2.798056  0
Te  Te10  1  0.66076582  0.94544983  0.81232670  1  0  -0.694524  0  2.291981  0  0  -0.597546  0  2.780049  0  0  -0.634711  0  2.753391  0  0  -0.283798  -0.571773  0  2.79778  0
Te  Te11  1  0.33922903  0.55453865  0.31233360  1  0  -0.694562  0  2.291895  0  0  -0.597564  0  2.779908  0  0  -0.634724  0  2.753251  0  0  -0.283773  -0.571798  0  2.797643  0
Te  Te12  1  0.83922795  0.94541459  0.31233604  1  0  -0.694594  0  2.292148  0  0  -0.597646  0  2.780267  0  0  -0.634799  0  2.753596  0  0  -0.283783  -0.571887  0  2.798014  0
Te  Te13  1  0.16076257  0.55459252  0.81232842  1  0  -0.694611  0  2.292149  0  0  -0.597647  0  2.780247  0  0  -0.634802  0  2.753579  0  0  -0.283794  -0.571883  0  2.79799  0
Te  Te14  1  0.33923292  0.05455194  0.18767149  1  0  -0.694552  0  2.291922  0  0  -0.597582  0  2.779994  0  0  -0.634742  0  2.753334  0  0  -0.28378  -0.571811  0  2.797715  0
Te  Te15  1  0.66076393  0.44543733  0.68766320  1  0  -0.694587  0  2.292018  0  0  -0.597603  0  2.780056  0  0  -0.634758  0  2.753392  0  0  -0.283801  -0.571846  0  2.79781  0
H  H16  1  0.50454307  0.94246150  0.65185126  1  0  0.263056  0  0.956  0  0  0.255735  0  1.014788  0  0  0.262037  0  1.010898  0  0  0.254853  0.251189  0  1.017651  0
H  H17  1  0.49547132  0.55755008  0.15185353  1  0  0.263032  0  0.955923  0  0  0.255712  0  1.014712  0  0  0.262014  0  1.010822  0  0  0.254815  0.251165  0  1.017568  0
H  H18  1  0.00452561  0.05758038  0.84814916  1  0  0.262999  0  0.955796  0  0  0.255692  0  1.014545  0  0  0.261992  0  1.010657  0  0  0.254798  0.251147  0  1.017406  0
H  H19  1  0.99545169  0.44243738  0.34815259  1  0  0.262979  0  0.955956  0  0  0.2557  0  1.014662  0  0  0.261987  0  1.010786  0  0  0.254808  0.251155  0  1.017524  0
H  H20  1  0.49545567  0.05752451  0.34815062  1  0  0.263109  0  0.955853  0  0  0.255813  0  1.01466  0  0  0.262112  0  1.010768  0  0  0.254851  0.251267  0  1.017524  0
H  H21  1  0.50453897  0.44247176  0.84814928  1  0  0.263044  0  0.955977  0  0  0.255774  0  1.014725  0  0  0.262077  0  1.010834  0  0  0.254874  0.251228  0  1.017582  0
H  H22  1  0.99545435  0.94244289  0.15184903  1  0  0.263052  0  0.956078  0  0  0.255729  0  1.014847  0  0  0.26203  0  1.01096  0  0  0.254868  0.251184  0  1.01771  0
H  H23  1  0.00454127  0.55755436  0.65184744  1  0  0.263036  0  0.95576  0  0  0.255726  0  1.014574  0  0  0.262026  0  1.010688  0  0  0.254791  0.251185  0  1.017427  0
H  H24  1  0.68671242  0.79911391  0.63737164  1  0  0.266384  0  0.944843  0  0  0.257573  0  1.006139  0  0  0.264301  0  1.001282  0  0  0.258874  0.252289  0  1.010502  0
H  H25  1  0.31328996  0.70088037  0.13737520  1  0  0.266451  0  0.944949  0  0  0.257679  0  1.00619  0  0  0.264404  0  1.001337  0  0  0.258961  0.252393  0  1.010551  0
H  H26  1  0.18670862  0.20091585  0.86262998  1  0  0.266547  0  0.944994  0  0  0.257744  0  1.006227  0  0  0.264472  0  1.001362  0  0  0.25893  0.252462  0  1.01059  0
H  H27  1  0.81328504  0.29908483  0.36263064  1  0  0.266503  0  0.944882  0  0  0.257686  0  1.006142  0  0  0.264417  0  1.001274  0  0  0.258884  0.252403  0  1.010507  0
H  H28  1  0.31327476  0.20085921  0.36262978  1  0  0.266513  0  0.944716  0  0  0.257691  0  1.006091  0  0  0.264422  0  1.001222  0  0  0.258897  0.252407  0  1.010455  0
H  H29  1  0.68671456  0.29912141  0.86262715  1  0  0.266212  0  0.944587  0  0  0.257402  0  1.006007  0  0  0.264133  0  1.001149  0  0  0.258775  0.252116  0  1.010367  0
H  H30  1  0.81328723  0.79907876  0.13736821  1  0  0.266376  0  0.944573  0  0  0.257557  0  1.005956  0  0  0.264296  0  1.001076  0  0  0.258731  0.252269  0  1.010322  0
H  H31  1  0.18671659  0.70089545  0.63736478  1  0  0.26652  0  0.944942  0  0  0.257728  0  1.006175  0  0  0.26446  0  1.001302  0  0  0.258905  0.252444  0  1.010539  0
H  H32  1  0.63646176  0.18033053  0.57942501  1  0  0.051089  0  0.947433  0  0  0.068719  0  1.012152  0  0  0.069508  0  1.012026  0  0  0.086333  0.06804  0  1.012389  0
H  H33  1  0.36356554  0.31967223  0.07943119  1  0  0.051114  0  0.947356  0  0  0.068814  0  1.012029  0  0  0.069612  0  1.011883  0  0  0.086318  0.0681  0  1.012305  0
H  H34  1  0.13645486  0.81970228  0.92056768  1  0  0.051143  0  0.947634  0  0  0.068728  0  1.012389  0  0  0.069517  0  1.012261  0  0  0.086332  0.068061  0  1.012613  0
H  H35  1  0.86351098  0.68030568  0.42057434  1  0  0.05111  0  0.947435  0  0  0.068775  0  1.012148  0  0  0.069567  0  1.012014  0  0  0.086357  0.068094  0  1.012388  0
H  H36  1  0.36352109  0.81963972  0.42057179  1  0  0.051157  0  0.947483  0  0  0.068748  0  1.01222  0  0  0.06957  0  1.012056  0  0  0.086312  0.068033  0  1.012493  0
H  H37  1  0.63648520  0.68035678  0.92056746  1  0  0.051096  0  0.947287  0  0  0.068807  0  1.011944  0  0  0.069634  0  1.011771  0  0  0.086339  0.068092  0  1.012216  0
H  H38  1  0.86351499  0.18033246  0.07943744  1  0  0.051066  0  0.947518  0  0  0.068696  0  1.01224  0  0  0.069533  0  1.012059  0  0  0.086305  0.067982  0  1.012513  0
H  H39  1  0.13647476  0.31967030  0.57942985  1  0  0.051105  0  0.94744  0  0  0.068739  0  1.012165  0  0  0.069531  0  1.012033  0  0  0.086302  0.068037  0  1.012426  0
H  H40  1  0.80214016  0.00137793  0.55633756  1  0  0.046466  0  0.923675  0  0  0.06525  0  0.986719  0  0  0.065712  0  0.986496  0  0  0.094968  0.064833  0  0.986968  0
H  H41  1  0.19787426  0.49860745  0.05634451  1  0  0.046334  0  0.923696  0  0  0.065129  0  0.986721  0  0  0.065588  0  0.986504  0  0  0.094934  0.064716  0  0.986962  0
H  H42  1  0.30214638  0.99863709  0.94365644  1  0  0.046392  0  0.923556  0  0  0.065183  0  0.986588  0  0  0.065644  0  0.986365  0  0  0.09491  0.064765  0  0.986841  0
H  H43  1  0.69784968  0.50134239  0.44366341  1  0  0.046449  0  0.923945  0  0  0.065284  0  0.986959  0  0  0.065745  0  0.986742  0  0  0.095004  0.064866  0  0.98721  0
H  H44  1  0.19784991  0.99859375  0.44366063  1  0  0.04648  0  0.923649  0  0  0.065323  0  0.986593  0  0  0.065786  0  0.986373  0  0  0.095002  0.064904  0  0.986841  0
H  H45  1  0.80215481  0.50139433  0.94365552  1  0  0.046447  0  0.923658  0  0  0.065244  0  0.986696  0  0  0.065706  0  0.986478  0  0  0.094989  0.064825  0  0.986942  0
H  H46  1  0.69784514  0.00137902  0.05634360  1  0  0.046469  0  0.923634  0  0  0.065238  0  0.98669  0  0  0.065698  0  0.986477  0  0  0.094979  0.064823  0  0.986932  0
H  H47  1  0.30215051  0.49861639  0.55633709  1  0  0.046503  0  0.923966  0  0  0.06529  0  0.986996  0  0  0.065751  0  0.986776  0  0  0.095028  0.064873  0  0.987241  0
H  H48  1  0.53027149  0.79184943  0.52167794  1  0  0.06007  0  0.934072  0  0  0.079811  0  0.993284  0  0  0.080579  0  0.993668  0  0  0.085793  0.079151  0  0.993172  0
H  H49  1  0.46974307  0.70814967  0.02167917  1  0  0.060063  0  0.934011  0  0  0.079791  0  0.993237  0  0  0.080563  0  0.993614  0  0  0.085762  0.079126  0  0.993134  0
H  H50  1  0.03027429  0.20815510  0.97832879  1  0  0.06013  0  0.934059  0  0  0.079837  0  0.99332  0  0  0.0806  0  0.993714  0  0  0.085815  0.079175  0  0.993212  0
H  H51  1  0.96973174  0.29184648  0.47832895  1  0  0.060122  0  0.933975  0  0  0.079821  0  0.993244  0  0  0.080584  0  0.993638  0  0  0.08582  0.079159  0  0.993135  0
H  H52  1  0.46972870  0.20811222  0.47832117  1  0  0.060125  0  0.934103  0  0  0.079804  0  0.993401  0  0  0.080572  0  0.993781  0  0  0.085776  0.07915  0  0.993281  0
H  H53  1  0.53026867  0.29187504  0.97832225  1  0  0.059974  0  0.933833  0  0  0.079647  0  0.993209  0  0  0.080417  0  0.993587  0  0  0.085718  0.078988  0  0.993094  0
H  H54  1  0.96973022  0.79187963  0.02167125  1  0  0.060029  0  0.934112  0  0  0.079715  0  0.993399  0  0  0.080477  0  0.993793  0  0  0.085771  0.079059  0  0.993279  0
H  H55  1  0.03027133  0.70812376  0.52167108  1  0  0.060087  0  0.934024  0  0  0.079758  0  0.993338  0  0  0.080523  0  0.993731  0  0  0.085768  0.079102  0  0.99322  0
H  H56  1  0.36116222  0.95446203  0.55364388  1  0  0.060579  0  0.95531  0  0  0.075657  0  1.023312  0  0  0.077204  0  1.022834  0  0  0.079357  0.074367  0  1.02392  0
H  H57  1  0.63885883  0.54553588  0.05364202  1  0  0.060554  0  0.955257  0  0  0.075648  0  1.023239  0  0  0.077193  0  1.022764  0  0  0.079379  0.074357  0  1.023846  0
H  H58  1  0.86115707  0.04555420  0.94635946  1  0  0.060557  0  0.955186  0  0  0.075682  0  1.023169  0  0  0.077231  0  1.022688  0  0  0.079317  0.074394  0  1.023769  0
H  H59  1  0.13883380  0.45446147  0.44635379  1  0  0.060545  0  0.955326  0  0  0.075659  0  1.023295  0  0  0.077207  0  1.022816  0  0  0.079326  0.074374  0  1.023895  0
H  H60  1  0.63883218  0.04548959  0.44635524  1  0  0.060602  0  0.955187  0  0  0.075636  0  1.023313  0  0  0.077178  0  1.02284  0  0  0.079343  0.074345  0  1.023922  0
H  H61  1  0.36117313  0.45451605  0.94635801  1  0  0.060491  0  0.955134  0  0  0.075532  0  1.023262  0  0  0.077075  0  1.022789  0  0  0.079311  0.074226  0  1.023884  0
H  H62  1  0.13883012  0.95449773  0.05364473  1  0  0.060545  0  0.955018  0  0  0.075595  0  1.02311  0  0  0.077141  0  1.022631  0  0  0.079302  0.074291  0  1.023731  0
H  H63  1  0.86116783  0.54551308  0.55364348  1  0  0.060547  0  0.955256  0  0  0.075645  0  1.023263  0  0  0.077192  0  1.022784  0  0  0.079342  0.074353  0  1.023871  0
C  C64  1  0.65550682  0.02424744  0.57456096  1  0  0.082921  0  3.64871  0  0  0.026795  0  3.912174  0  0  0.030996  0  3.925333  0  0  -0.080118  0.024049  0  3.902928  0
C  C65  1  0.34451937  0.47574955  0.07456469  1  0  0.083047  0  3.648577  0  0  0.026879  0  3.912037  0  0  0.031078  0  3.925203  0  0  -0.080034  0.024149  0  3.902789  0
C  C66  1  0.15549257  0.97576954  0.92543623  1  0  0.082902  0  3.648789  0  0  0.026846  0  3.912184  0  0  0.031044  0  3.925342  0  0  -0.080079  0.024092  0  3.902934  0
C  C67  1  0.84447727  0.52421983  0.42543911  1  0  0.082893  0  3.648986  0  0  0.026648  0  3.912514  0  0  0.030845  0  3.925674  0  0  -0.080211  0.023904  0  3.903268  0
C  C68  1  0.34448470  0.97572138  0.42543769  1  0  0.082904  0  3.649102  0  0  0.026913  0  3.912437  0  0  0.031088  0  3.9256  0  0  -0.079984  0.024193  0  3.903188  0
C  C69  1  0.65551548  0.52425939  0.92543350  1  0  0.082856  0  3.649162  0  0  0.02675  0  3.912696  0  0  0.030929  0  3.92587  0  0  -0.080078  0.024026  0  3.903436  0
C  C70  1  0.84448739  0.02424370  0.07456612  1  0  0.083018  0  3.649323  0  0  0.026915  0  3.912729  0  0  0.031086  0  3.9259  0  0  -0.080028  0.02419  0  3.903482  0
C  C71  1  0.15551569  0.47575042  0.57455954  1  0  0.082862  0  3.649105  0  0  0.026732  0  3.912565  0  0  0.030931  0  3.925728  0  0  -0.080132  0.024004  0  3.903318  0
C  C72  1  0.50299152  0.94526558  0.53051874  1  0  -0.136671  0  3.702764  0  0  -0.172115  0  3.958368  0  0  -0.17439  0  3.973922  0  0  -0.170259  -0.170316  0  3.947461  0
C  C73  1  0.49701810  0.55472642  0.03052145  1  0  -0.136753  0  3.702896  0  0  -0.172139  0  3.958444  0  0  -0.174416  0  3.974009  0  0  -0.170289  -0.170336  0  3.947518  0
C  C74  1  0.00299761  0.05474622  0.96948261  1  0  -0.136682  0  3.702705  0  0  -0.172203  0  3.958364  0  0  -0.174479  0  3.973919  0  0  -0.170198  -0.170402  0  3.947446  0
C  C75  1  0.99700325  0.44526390  0.46948143  1  0  -0.136658  0  3.702653  0  0  -0.172102  0  3.958286  0  0  -0.174377  0  3.973841  0  0  -0.170186  -0.170304  0  3.94737  0
C  C76  1  0.49700000  0.05469894  0.46948037  1  0  -0.13661  0  3.703137  0  0  -0.172102  0  3.958776  0  0  -0.174375  0  3.974339  0  0  -0.170211  -0.1703  0  3.947857  0
C  C77  1  0.50300664  0.44531405  0.96948089  1  0  -0.136294  0  3.702885  0  0  -0.171808  0  3.958596  0  0  -0.174087  0  3.974174  0  0  -0.170107  -0.169994  0  3.947671  0
C  C78  1  0.99699824  0.94529712  0.03051650  1  0  -0.136469  0  3.702832  0  0  -0.171899  0  3.958467  0  0  -0.174177  0  3.974037  0  0  -0.17015  -0.17009  0  3.947548  0
C  C79  1  0.00299694  0.55471065  0.53051676  1  0  -0.136421  0  3.702775  0  0  -0.171887  0  3.958428  0  0  -0.174163  0  3.973986  0  0  -0.170144  -0.170086  0  3.947512  0
N  N80  1  0.64631865  0.94120437  0.63707952  1  0  -0.569832  0  3.182067  0  0  -0.504462  0  3.414478  0  0  -0.524572  0  3.41486  0  0  -0.633462  -0.490514  0  3.414489  0
N  N81  1  0.35368664  0.55880996  0.13708450  1  0  -0.569751  0  3.181677  0  0  -0.504481  0  3.414235  0  0  -0.524589  0  3.414614  0  0  -0.633498  -0.490516  0  3.414228  0
N  N82  1  0.14632619  0.05884273  0.86291911  1  0  -0.569919  0  3.181836  0  0  -0.504525  0  3.414196  0  0  -0.524624  0  3.414568  0  0  -0.633477  -0.490585  0  3.414219  0
N  N83  1  0.85367323  0.44117515  0.36292202  1  0  -0.569868  0  3.182023  0  0  -0.504446  0  3.414378  0  0  -0.524535  0  3.414771  0  0  -0.633438  -0.490505  0  3.414394  0
N  N84  1  0.35366998  0.05877447  0.36291959  1  0  -0.570019  0  3.181818  0  0  -0.504828  0  3.41432  0  0  -0.52493  0  3.414696  0  0  -0.633582  -0.490882  0  3.414327  0
N  N85  1  0.64631643  0.44123194  0.86291739  1  0  -0.569458  0  3.181572  0  0  -0.504272  0  3.4142  0  0  -0.524384  0  3.414599  0  0  -0.633406  -0.490309  0  3.414187  0
N  N86  1  0.85368699  0.94120204  0.13708231  1  0  -0.56978  0  3.18188  0  0  -0.504391  0  3.414177  0  0  -0.524507  0  3.414577  0  0  -0.633356  -0.490445  0  3.414178  0
N  N87  1  0.14633129  0.55881803  0.63707848  1  0  -0.569963  0  3.18201  0  0  -0.504605  0  3.414363  0  0  -0.524711  0  3.414737  0  0  -0.633415  -0.490659  0  3.414374  0
