# generated using pymatgen
data_Ag2H5C10N3O4
_symmetry_space_group_name_H-M   'P 1'
_cell_length_a   5.14967941
_cell_length_b   10.31388937
_cell_length_c   10.61944695
_cell_angle_alpha   87.41714714
_cell_angle_beta   79.58222869
_cell_angle_gamma   75.58455674
_symmetry_Int_Tables_number   1
_chemical_formula_structural   Ag2H5C10N3O4
_chemical_formula_sum   'Ag4 H10 C20 N6 O8'
_cell_volume   537.26998880
_cell_formula_units_Z   2
loop_
 _symmetry_equiv_pos_site_id
 _symmetry_equiv_pos_as_xyz
  1  'x, y, z'
loop_
 _atom_site_type_symbol
 _atom_site_label
 _atom_site_symmetry_multiplicity
 _atom_site_fract_x
 _atom_site_fract_y
 _atom_site_fract_z
 _atom_site_occupancy
 _atom_site_hle17_bader_spin_density
 _atom_site_hle17_ddec_charge
 _atom_site_hle17_ddec_spin_density
 _atom_site_hle17_ddec_sum_bond_order
 _atom_site_hle17_magmom
 _atom_site_hse06_10hf_bader_spin_density
 _atom_site_hse06_10hf_ddec_charge
 _atom_site_hse06_10hf_ddec_spin_density
 _atom_site_hse06_10hf_ddec_sum_bond_order
 _atom_site_hse06_10hf_magmom
 _atom_site_hse06_bader_spin_density
 _atom_site_hse06_ddec_charge
 _atom_site_hse06_ddec_spin_density
 _atom_site_hse06_ddec_sum_bond_order
 _atom_site_hse06_magmom
 _atom_site_pbe_bader_spin_density
 _atom_site_pbe_cm5_charge
 _atom_site_pbe_ddec_charge
 _atom_site_pbe_ddec_spin_density
 _atom_site_pbe_ddec_sum_bond_order
 _atom_site_pbe_magmom
Ag  Ag0  1  0.84064396  0.17746454  0.93798568  1  0  0.510516  0  1.455901  0  0  0.367426  0  1.877159  0  0  0.3947  0  1.837489  0  0  0.485654  0.34713  0  1.906164  0
Ag  Ag1  1  0.01868656  0.82256263  0.43851600  1  0  0.510757  0  1.453523  0  0  0.366797  0  1.875697  0  0  0.394178  0  1.835791  0  0  0.485392  0.34752  0  1.903086  0
Ag  Ag2  1  0.08155911  0.45896127  0.09860017  1  0  0.584257  0  1.404253  0  0  0.459129  0  1.829818  0  0  0.486418  0  1.788631  0  0  0.470328  0.438865  0  1.859329  0
Ag  Ag3  1  0.54003174  0.54089057  0.59792352  1  0  0.583625  0  1.406482  0  0  0.458438  0  1.831815  0  0  0.485759  0  1.790608  0  0  0.470133  0.437604  0  1.862391  0
H  H4  1  0.15101769  0.07103673  0.74371078  1  0  0.085076  0  1.001762  0  0  0.092454  0  1.07819  0  0  0.096969  0  1.07396  0  0  0.091932  0.089037  0  1.081761  0
H  H5  1  0.22272948  0.92873751  0.24333606  1  0  0.086539  0  0.999676  0  0  0.093902  0  1.076059  0  0  0.098496  0  1.071652  0  0  0.092727  0.090656  0  1.079312  0
H  H6  1  0.46550199  0.88077347  0.62251734  1  0  0.092897  0  0.942326  0  0  0.100937  0  1.00943  0  0  0.104085  0  1.005207  0  0  0.117659  0.098364  0  1.012886  0
H  H7  1  0.34735995  0.11910103  0.12214752  1  0  0.091729  0  0.943137  0  0  0.099653  0  1.010715  0  0  0.102969  0  1.006207  0  0  0.117081  0.09741  0  1.013416  0
H  H8  1  0.00760271  0.11264806  0.47568730  1  0  0.088508  0  0.921592  0  0  0.102253  0  0.975583  0  0  0.104305  0  0.974024  0  0  0.120957  0.100794  0  0.976675  0
H  H9  1  0.12058234  0.88745895  0.97521026  1  0  0.088058  0  0.921616  0  0  0.101901  0  0.975366  0  0  0.103951  0  0.973806  0  0  0.120444  0.100418  0  0.976627  0
H  H10  1  0.72662374  0.30869503  0.59653587  1  0  0.090797  0  1.024044  0  0  0.092243  0  1.111176  0  0  0.097539  0  1.105565  0  0  0.087413  0.088388  0  1.115383  0
H  H11  1  0.03513403  0.69121152  0.09571214  1  0  0.091266  0  1.025068  0  0  0.093365  0  1.111632  0  0  0.098722  0  1.105931  0  0  0.088338  0.089658  0  1.115343  0
H  H12  1  0.60693979  0.70529149  0.87112483  1  0  0.384939  0  0.924063  0  0  0.354821  0  1.000432  0  0  0.367437  0  0.986766  0  0  0.292444  0.346063  0  1.008531  0
H  H13  1  0.31230145  0.29462808  0.37203258  1  0  0.384693  0  0.924963  0  0  0.355386  0  0.999681  0  0  0.367997  0  0.98594  0  0  0.292802  0.346501  0  1.008015  0
C  C14  1  0.57523183  0.49844244  0.93044479  1  0  0.615072  0  3.957865  0  0  0.557994  0  4.25855  0  0  0.5931  0  4.251449  0  0  0.19692  0.534038  0  4.262957  0
C  C15  1  0.07338489  0.50170223  0.43053856  1  0  0.614392  0  3.959163  0  0  0.55745  0  4.259783  0  0  0.592537  0  4.252644  0  0  0.196273  0.533341  0  4.263931  0
C  C16  1  0.84716132  0.46051001  0.84826005  1  0  -0.044066  0  3.82724  0  0  -0.048444  0  4.08984  0  0  -0.050319  0  4.107643  0  0  0.060134  -0.047471  0  4.078941  0
C  C17  1  0.30752485  0.53966102  0.34842321  1  0  -0.045144  0  3.828235  0  0  -0.050115  0  4.091394  0  0  -0.051908  0  4.109067  0  0  0.060684  -0.048481  0  4.079794  0
C  C18  1  0.00794582  0.54045167  0.77732704  1  0  -0.022873  0  3.791743  0  0  -0.027464  0  4.045528  0  0  -0.029074  0  4.065597  0  0  0.072177  -0.026676  0  4.032666  0
C  C19  1  0.54825971  0.45962491  0.27770279  1  0  -0.023369  0  3.793732  0  0  -0.027348  0  4.046744  0  0  -0.028918  0  4.066701  0  0  0.071068  -0.02677  0  4.034026  0
C  C20  1  0.96640681  0.68760669  0.76209566  1  0  0.643037  0  3.860096  0  0  0.592104  0  4.159571  0  0  0.626255  0  4.150119  0  0  0.219057  0.568975  0  4.164855  0
C  C21  1  0.65412626  0.31242974  0.26315457  1  0  0.64188  0  3.859839  0  0  0.591339  0  4.158832  0  0  0.625521  0  4.149322  0  0  0.218594  0.567707  0  4.16473  0
C  C22  1  0.21508283  0.32978355  0.74184970  1  0  0.313605  0  3.733724  0  0  0.287966  0  3.990307  0  0  0.299315  0  4.008239  0  0  0.209436  0.28083  0  3.977078  0
C  C23  1  0.54499627  0.67023507  0.24163942  1  0  0.312907  0  3.734283  0  0  0.287072  0  3.990331  0  0  0.298475  0  4.008199  0  0  0.208709  0.279822  0  3.977724  0
C  C24  1  0.40583292  0.21024930  0.68126798  1  0  0.059657  0  3.755998  0  0  0.070921  0  3.99035  0  0  0.076006  0  4.009742  0  0  0.015229  0.067467  0  3.977313  0
C  C25  1  0.61652660  0.78969169  0.18086296  1  0  0.058754  0  3.757295  0  0  0.07195  0  3.988786  0  0  0.077015  0  4.008224  0  0  0.0152  0.068234  0  3.976232  0
C  C26  1  0.34124981  0.08515766  0.68731594  1  0  -0.143538  0  3.711595  0  0  -0.158012  0  3.95132  0  0  -0.166835  0  3.972844  0  0  -0.081851  -0.15184  0  3.936378  0
C  C27  1  0.42704552  0.91471196  0.18700422  1  0  -0.143018  0  3.711635  0  0  -0.157784  0  3.949909  0  0  -0.1667  0  3.971577  0  0  -0.082317  -0.153208  0  3.936558  0
C  C28  1  0.51655279  0.97740324  0.61800078  1  0  0.131445  0  3.682394  0  0  0.099688  0  3.925657  0  0  0.108202  0  3.943088  0  0  0.045351  0.094228  0  3.913798  0
C  C29  1  0.49465055  0.02246141  0.11762070  1  0  0.134061  0  3.683571  0  0  0.102598  0  3.926428  0  0  0.11101  0  3.94391  0  0  0.047173  0.096873  0  3.914811  0
C  C30  1  0.81840411  0.10605193  0.53768812  1  0  0.130093  0  3.700431  0  0  0.099502  0  3.944367  0  0  0.10743  0  3.962779  0  0  0.043034  0.094144  0  3.932154  0
C  C31  1  0.92485719  0.89395308  0.03719454  1  0  0.131289  0  3.699294  0  0  0.100508  0  3.943819  0  0  0.108461  0  3.962259  0  0  0.044621  0.095109  0  3.93066  0
C  C32  1  0.65624761  0.21688262  0.60632209  1  0  -0.135425  0  3.703325  0  0  -0.157122  0  3.957782  0  0  -0.164953  0  3.977227  0  0  -0.0863  -0.152245  0  3.945541  0
C  C33  1  0.87337909  0.78309765  0.10578015  1  0  -0.135107  0  3.702182  0  0  -0.158289  0  3.956617  0  0  -0.166191  0  3.976068  0  0  -0.08627  -0.151891  0  3.94248  0
N  N34  1  0.98201858  0.32899719  0.82506384  1  0  -0.396835  0  3.314563  0  0  -0.317098  0  3.59922  0  0  -0.337028  0  3.615264  0  0  -0.371396  -0.302452  0  3.587144  0
N  N35  1  0.31108652  0.67116008  0.32495152  1  0  -0.396549  0  3.310698  0  0  -0.317021  0  3.595701  0  0  -0.337035  0  3.611756  0  0  -0.371399  -0.302541  0  3.583685  0
N  N36  1  0.23667423  0.45663519  0.71261180  1  0  -0.391187  0  3.289163  0  0  -0.315841  0  3.569283  0  0  -0.337089  0  3.588453  0  0  -0.363716  -0.301391  0  3.556468  0
N  N37  1  0.69321481  0.54336189  0.21268243  1  0  -0.39036  0  3.291212  0  0  -0.315379  0  3.571408  0  0  -0.336649  0  3.590522  0  0  -0.363531  -0.301475  0  3.559238  0
N  N38  1  0.75160383  0.98721341  0.54196762  1  0  -0.291026  0  3.369984  0  0  -0.199983  0  3.650909  0  0  -0.219061  0  3.666354  0  0  -0.353876  -0.187005  0  3.640087  0
N  N39  1  0.73933271  0.01272939  0.04150078  1  0  -0.294926  0  3.372269  0  0  -0.204138  0  3.65368  0  0  -0.2233  0  3.669287  0  0  -0.356398  -0.190343  0  3.643168  0
O  O40  1  0.47684119  0.40261324  0.98313374  1  0  -0.6005  0  2.166221  0  0  -0.513167  0  2.454949  0  0  -0.544212  0  2.441921  0  0  -0.334704  -0.490767  0  2.462802  0
O  O41  1  0.87874412  0.59758004  0.48265386  1  0  -0.599711  0  2.16699  0  0  -0.511847  0  2.455034  0  0  -0.542852  0  2.442031  0  0  -0.333506  -0.489014  0  2.463139  0
O  O42  1  0.45224604  0.62137989  0.94380622  1  0  -0.584662  0  2.032424  0  0  -0.525041  0  2.263449  0  0  -0.551551  0  2.256002  0  0  -0.303045  -0.506428  0  2.267549  0
O  O43  1  0.07342519  0.37875542  0.44436760  1  0  -0.585195  0  2.034659  0  0  -0.525568  0  2.264594  0  0  -0.552144  0  2.257306  0  0  -0.303382  -0.506757  0  2.268875  0
O  O44  1  0.73181401  0.76377968  0.81815428  1  0  -0.542616  0  2.097149  0  0  -0.486812  0  2.312466  0  0  -0.511354  0  2.300504  0  0  -0.32622  -0.470026  0  2.319478  0
O  O45  1  0.49564295  0.23617262  0.31927394  1  0  -0.541326  0  2.097385  0  0  -0.486198  0  2.312229  0  0  -0.510754  0  2.300135  0  0  -0.326187  -0.46962  0  2.31924  0
O  O46  1  0.14432779  0.73707701  0.69757284  1  0  -0.576675  0  1.983761  0  0  -0.527731  0  2.239432  0  0  -0.549649  0  2.225505  0  0  -0.306727  -0.511782  0  2.248585  0
O  O47  1  0.88192430  0.26297551  0.19910541  1  0  -0.575742  0  1.981387  0  0  -0.527393  0  2.236682  0  0  -0.549279  0  2.222638  0  0  -0.306137  -0.510993  0  2.245709  0
