# generated using pymatgen
data_FeH(CO)5
_symmetry_space_group_name_H-M   'P 1'
_cell_length_a   6.64429554
_cell_length_b   15.30086805
_cell_length_c   15.40535256
_cell_angle_alpha   117.89964058
_cell_angle_beta   98.20620600
_cell_angle_gamma   98.36435233
_symmetry_Int_Tables_number   1
_chemical_formula_structural   FeH(CO)5
_chemical_formula_sum   'Fe6 H6 C30 O30'
_cell_volume   1329.00719776
_cell_formula_units_Z   6
loop_
 _symmetry_equiv_pos_site_id
 _symmetry_equiv_pos_as_xyz
  1  'x, y, z'
loop_
 _atom_site_type_symbol
 _atom_site_label
 _atom_site_symmetry_multiplicity
 _atom_site_fract_x
 _atom_site_fract_y
 _atom_site_fract_z
 _atom_site_occupancy
 _atom_site_pbe_bader_charge
 _atom_site_pbe_bader_spin_density
 _atom_site_pbe_cm5_charge
 _atom_site_pbe_ddec_charge
 _atom_site_pbe_ddec_spin_density
 _atom_site_pbe_ddec_sum_bond_order
 _atom_site_pbe_magmom
Fe  Fe0  1  0.52234864  0.40107837  0.72580639  1  1.375707  3.605208  0.668485  0.9151  3.823587  2.600201  3.563
Fe  Fe1  1  0.79686012  0.27610608  0.67583711  1  1.373668  3.606558  0.668396  0.915867  3.825287  2.598844  3.564
Fe  Fe2  1  0.12288679  0.32667161  0.60196496  1  1.374471  3.607128  0.669864  0.915979  3.823972  2.604577  3.565
Fe  Fe3  1  0.47819985  0.59873537  0.27413123  1  1.38088  3.605046  0.668439  0.915444  3.822849  2.601747  3.564
Fe  Fe4  1  0.20367424  0.72403435  0.32411794  1  1.375152  3.607286  0.669292  0.918072  3.826085  2.598756  3.565
Fe  Fe5  1  0.87735778  0.67338540  0.39804094  1  1.373649  3.606813  0.669669  0.915463  3.823838  2.60647  3.565
H  H6  1  0.18076299  0.53775624  0.56004124  1  0.129408  0.000657  0.10907  0.13301  -6.6e-05  1.012642  0.0
H  H7  1  0.62051043  0.43954107  0.97702027  1  0.131607  0.000671  0.109161  0.133923  -5.4e-05  1.01146  0.0
H  H8  1  0.64397628  0.02348425  0.46309892  1  0.123975  0.000661  0.108898  0.13318  -6.3e-05  1.010897  0.0
H  H9  1  0.81919591  0.46208853  0.43995582  1  0.129822  0.000663  0.108924  0.132969  -6.3e-05  1.012604  0.0
H  H10  1  0.38011104  0.56012650  0.02303773  1  0.129743  0.000674  0.10902  0.13371  -5.4e-05  1.011569  0.0
H  H11  1  0.35645028  0.97658799  0.53668176  1  0.125503  0.000659  0.108828  0.133158  -6.4e-05  1.011857  0.0
C  C12  1  0.76913066  0.40423848  0.57189551  1  1.455926  -0.009273  0.227674  0.628544  -0.012026  4.062285  -0.005
C  C13  1  0.19814012  0.43040174  0.83296978  1  1.467171  -0.009695  0.228458  0.629334  -0.012386  4.056226  -0.005
C  C14  1  0.36550825  0.16823459  0.59804403  1  1.462493  -0.009529  0.228309  0.629222  -0.012348  4.059226  -0.005
C  C15  1  0.23143646  0.59605751  0.42836191  1  1.449323  -0.00924  0.228352  0.629913  -0.011988  4.061861  -0.005
C  C16  1  0.80271108  0.56923465  0.16705998  1  1.501326  -0.009819  0.228225  0.62921  -0.012526  4.059397  -0.005
C  C17  1  0.63491612  0.83190844  0.40155913  1  1.466546  -0.00938  0.228085  0.629115  -0.012156  4.060504  -0.005
C  C18  1  0.62562210  0.45168753  0.53670511  1  0.00966  0.011425  -0.030953  -0.151775  0.00341  3.980233  0.009
C  C19  1  0.08962555  0.46435669  0.91536081  1  0.080149  0.011511  -0.031357  -0.151337  0.003517  3.979066  0.009
C  C20  1  0.17441321  0.08527839  0.54944703  1  -0.004019  0.011362  -0.031  -0.150722  0.003352  3.97866  0.009
C  C21  1  0.37446963  0.54827997  0.46335182  1  0.011809  0.011424  -0.031256  -0.152665  0.003409  3.981056  0.009
C  C22  1  0.91106242  0.53528057  0.08462572  1  -0.064733  0.011726  -0.030928  -0.151619  0.003507  3.980789  0.009
C  C23  1  0.82602036  0.91485943  0.45035748  1  -0.007565  0.011276  -0.031062  -0.151315  0.003313  3.979456  0.009
C  C24  1  0.44048833  0.47295523  0.57218745  1  0.557976  0.009006  0.075245  0.31006  0.005288  4.079057  0.005
C  C25  1  0.86860144  0.42881647  0.90072166  1  0.589757  0.009101  0.076026  0.311552  0.005397  4.079262  0.006
C  C26  1  0.96834180  0.10008159  0.52872297  1  0.56551  0.008833  0.075067  0.310381  0.0052  4.081918  0.005
C  C27  1  0.55964082  0.52702367  0.42788953  1  0.558852  0.009029  0.075155  0.310136  0.005301  4.078782  0.006
C  C28  1  0.13199708  0.57091396  0.09924857  1  0.589494  0.009146  0.0752  0.310864  0.005426  4.080685  0.006
C  C29  1  0.03206199  0.90003239  0.47113732  1  0.570909  0.008924  0.074997  0.310642  0.005259  4.082395  0.006
C  C30  1  0.32180835  0.52128379  0.53405195  1  -0.019279  0.014062  -0.10195  -0.206822  0.00636  3.958948  0.009
C  C31  1  0.78775834  0.46569408  0.98683889  1  -0.005348  0.01364  -0.102824  -0.210194  0.006174  3.961852  0.009
C  C32  1  0.80111494  0.01342653  0.47914414  1  -0.016704  0.014175  -0.10179  -0.207792  0.006402  3.959696  0.009
C  C33  1  0.67820141  0.47861972  0.46596145  1  -0.016278  0.014033  -0.102108  -0.207429  0.006348  3.959047  0.009
C  C34  1  0.21284559  0.53398440  0.01314321  1  -0.118811  0.013906  -0.10204  -0.209663  0.006191  3.961958  0.009
C  C35  1  0.19932551  0.98670202  0.52069610  1  -0.017823  0.014127  -0.101547  -0.208251  0.006382  3.959354  0.009
C  C36  1  0.74954745  0.64908356  0.91905070  1  2.143734  0.002284  0.376576  0.727409  0.000968  4.101707  0.002
C  C37  1  0.82934425  0.08287003  0.73061078  1  2.150062  0.00231  0.378544  0.730415  0.001  4.099439  0.002
C  C38  1  0.10065001  0.26895784  0.35427541  1  2.120443  0.002324  0.378251  0.730427  0.000989  4.099412  0.002
C  C39  1  0.25082106  0.35149884  0.08238206  1  2.147505  0.002409  0.378861  0.730895  0.001031  4.098925  0.002
C  C40  1  0.16725823  0.91678655  0.26958684  1  2.153617  0.002381  0.376887  0.727624  0.001043  4.102259  0.002
C  C41  1  0.89789431  0.73095882  0.64438359  1  2.123617  0.002398  0.377774  0.7278  0.001045  4.100471  0.002
O  O42  1  0.74806868  0.39412710  0.64969729  1  -1.183115  0.122564  -0.330754  -0.580947  0.058616  2.605722  0.097
O  O43  1  0.09890970  0.35292239  0.74482013  1  -1.188802  0.123011  -0.331587  -0.58101  0.058729  2.607217  0.097
O  O44  1  0.35521470  0.25717606  0.60941237  1  -1.181155  0.123102  -0.331491  -0.581194  0.05887  2.608941  0.097
O  O45  1  0.25346641  0.60675555  0.35098534  1  -1.181423  0.122507  -0.330914  -0.581469  0.058629  2.608761  0.097
O  O46  1  0.90208732  0.64657651  0.25524269  1  -1.191588  0.123182  -0.33116  -0.58051  0.058856  2.611418  0.097
O  O47  1  0.64549046  0.74289708  0.38984923  1  -1.182401  0.122904  -0.331267  -0.580572  0.058868  2.611452  0.097
O  O48  1  0.91728750  0.37508979  0.53024569  1  -1.155321  0.069951  -0.301221  -0.525991  0.032588  2.321273  0.049
O  O49  1  0.38799325  0.47260896  0.84577132  1  -1.159406  0.069345  -0.301044  -0.526011  0.032267  2.314644  0.048
O  O50  1  0.54226545  0.15512538  0.62685577  1  -1.157886  0.069579  -0.301013  -0.526251  0.032427  2.316684  0.048
O  O51  1  0.08297878  0.62502802  0.46985158  1  -1.155111  0.069765  -0.301594  -0.526451  0.032514  2.320398  0.049
O  O52  1  0.61273938  0.52718085  0.15426183  1  -1.159526  0.069274  -0.301624  -0.52688  0.032296  2.317628  0.048
O  O53  1  0.45807993  0.84507508  0.37293196  1  -1.156851  0.069547  -0.301225  -0.527003  0.03242  2.316421  0.048
O  O54  1  0.37193034  0.44838044  0.63773854  1  -1.160129  0.157416  -0.358474  -0.563701  0.074531  2.512167  0.128
O  O55  1  0.73439531  0.36427392  0.81060584  1  -1.16443  0.157485  -0.358639  -0.564562  0.074671  2.516433  0.128
O  O56  1  0.92473856  0.19091502  0.55478015  1  -1.159782  0.157321  -0.35905  -0.565323  0.074569  2.518404  0.128
O  O57  1  0.62839811  0.55165779  0.36241594  1  -1.159286  0.157339  -0.358392  -0.564033  0.074488  2.512751  0.128
O  O58  1  0.26613599  0.63559323  0.18934060  1  -1.169896  0.157682  -0.358522  -0.564408  0.074515  2.514383  0.128
O  O59  1  0.07560671  0.80919579  0.44511513  1  -1.160366  0.157151  -0.3592  -0.56585  0.074497  2.518908  0.128
O  O60  1  0.73767510  0.70421705  0.00154283  1  -1.063113  0.00289  -0.171045  -0.341094  0.001122  2.137498  0.002
O  O61  1  0.73382611  0.00027095  0.70420919  1  -1.068095  0.002957  -0.171655  -0.342105  0.001156  2.133654  0.002
O  O62  1  0.03206919  0.29470586  0.29787495  1  -1.05344  0.002927  -0.171617  -0.342183  0.001142  2.134953  0.002
O  O63  1  0.26267282  0.29581406  0.00006330  1  -1.070054  0.003001  -0.172364  -0.342492  0.001171  2.134372  0.003
O  O64  1  0.26086216  0.99971199  0.29601535  1  -1.071676  0.00301  -0.170399  -0.340368  0.001174  2.138102  0.003
O  O65  1  0.96766459  0.70550403  0.70081694  1  -1.051324  0.003023  -0.170439  -0.339942  0.001182  2.135115  0.003
O  O66  1  0.76426377  0.59528783  0.83627152  1  -1.091562  0.012568  -0.163475  -0.344161  0.004988  2.231813  0.004
O  O67  1  0.92793279  0.16577312  0.75858175  1  -1.092502  0.01287  -0.164201  -0.345659  0.005067  2.236802  0.005
O  O68  1  0.17072482  0.24158798  0.40939429  1  -1.077387  0.012697  -0.163899  -0.345666  0.005031  2.236703  0.004
O  O69  1  0.23620810  0.40589275  0.16502638  1  -1.088088  0.012919  -0.163546  -0.345386  0.005157  2.236031  0.005
O  O70  1  0.07058201  0.83352960  0.24159484  1  -1.092605  0.013081  -0.163215  -0.344233  0.005164  2.238597  0.005
O  O71  1  0.82663074  0.75802947  0.58919079  1  -1.082585  0.013036  -0.163895  -0.344378  0.005168  2.239201  0.005
