# generated using pymatgen
data_ZnH14C30S(NO2)4
_symmetry_space_group_name_H-M   'P 1'
_cell_length_a   16.63084327
_cell_length_b   17.78948574
_cell_length_c   19.76704968
_cell_angle_alpha   91.94883634
_cell_angle_beta   90.00001653
_cell_angle_gamma   90.00004021
_symmetry_Int_Tables_number   1
_chemical_formula_structural   ZnH14C30S(NO2)4
_chemical_formula_sum   'Zn4 H56 C120 S4 N16 O32'
_cell_volume   5844.78104777
_cell_formula_units_Z   4
loop_
 _symmetry_equiv_pos_site_id
 _symmetry_equiv_pos_as_xyz
  1  'x, y, z'
loop_
 _atom_site_type_symbol
 _atom_site_label
 _atom_site_symmetry_multiplicity
 _atom_site_fract_x
 _atom_site_fract_y
 _atom_site_fract_z
 _atom_site_occupancy
 _atom_site_pbe_bader_charge
 _atom_site_pbe_bader_spin_density
 _atom_site_pbe_cm5_charge
 _atom_site_pbe_ddec_charge
 _atom_site_pbe_ddec_spin_density
 _atom_site_pbe_ddec_sum_bond_order
 _atom_site_pbe_magmom
Zn  Zn0  1  0.89339651  0.94263109  0.51061296  1  1.323898  0  0.685046  0.821992  0  2.363883  0
Zn  Zn1  1  0.39339646  0.55736711  0.48938813  1  1.323918  0  0.68501  0.821953  0  2.363971  0
Zn  Zn2  1  0.10660384  0.05736783  0.48938802  1  1.323871  0  0.685018  0.821963  0  2.363917  0
Zn  Zn3  1  0.60660449  0.44263012  0.51061128  1  1.323902  0  0.685011  0.82194  0  2.363876  0
H  H4  1  0.94530066  0.81374745  0.73984085  1  0.110119  0  0.118131  0.134274  0  0.970498  0
H  H5  1  0.44530244  0.68625471  0.26015936  1  0.110064  0  0.118148  0.134317  0  0.97053  0
H  H6  1  0.05469608  0.18625427  0.26016022  1  0.110208  0  0.11816  0.134349  0  0.970479  0
H  H7  1  0.55469791  0.31374589  0.73984066  1  0.110078  0  0.118155  0.134314  0  0.970514  0
H  H8  1  0.92463536  0.79752330  0.27843123  1  0.111522  0  0.120678  0.136816  0  0.965856  0
H  H9  1  0.42463670  0.70247604  0.72156940  1  0.111536  0  0.120677  0.13682  0  0.965854  0
H  H10  1  0.07536379  0.20247562  0.72157026  1  0.111543  0  0.120692  0.136844  0  0.96583  0
H  H11  1  0.57536365  0.29752400  0.27843060  1  0.111539  0  0.120686  0.13683  0  0.965837  0
H  H12  1  0.11361633  0.62695441  0.50680344  1  0.092984  0  0.111305  0.130082  0  0.983326  0
H  H13  1  0.61361512  0.87304415  0.49319405  1  0.092851  0  0.111304  0.130104  0  0.983408  0
H  H14  1  0.88638703  0.37304338  0.49319447  1  0.092981  0  0.111314  0.130117  0  0.98338  0
H  H15  1  0.38638583  0.12695476  0.50680592  1  0.092836  0  0.111303  0.130105  0  0.983317  0
H  H16  1  0.94129724  0.82768289  0.61312210  1  0.15182  0  0.12674  0.107869  0  0.989304  0
H  H17  1  0.44129724  0.67231871  0.38687910  1  0.151724  0  0.126726  0.107834  0  0.989304  0
H  H18  1  0.05870190  0.17231828  0.38687996  1  0.151808  0  0.126716  0.107832  0  0.98926  0
H  H19  1  0.55870250  0.32768077  0.61312088  1  0.15174  0  0.126729  0.107836  0  0.989281  0
H  H20  1  0.85378728  0.04078788  0.76027548  1  0.108636  0  0.118547  0.1421  0  0.980176  0
H  H21  1  0.35378624  0.45921418  0.23972451  1  0.108683  0  0.118547  0.142089  0  0.980154  0
H  H22  1  0.14621427  0.95921441  0.23972459  1  0.108692  0  0.118554  0.14211  0  0.98014  0
H  H23  1  0.64621351  0.54078699  0.76027401  1  0.108683  0  0.11855  0.142092  0  0.980146  0
H  H24  1  0.01112969  0.74351888  0.51061017  1  0.09763  0  0.110243  0.134744  0  0.989691  0
H  H25  1  0.51112959  0.75647849  0.48938827  1  0.097627  0  0.110286  0.134824  0  0.989604  0
H  H26  1  0.98887126  0.25647722  0.48938819  1  0.097603  0  0.110268  0.13481  0  0.989579  0
H  H27  1  0.48887136  0.24352042  0.51061018  1  0.097609  0  0.11027  0.134792  0  0.989693  0
H  H28  1  0.88108827  0.03558525  0.26255403  1  0.139495  0  0.119033  0.144697  0  0.984143  0
H  H29  1  0.38108801  0.46441513  0.73744642  1  0.139525  0  0.119026  0.144692  0  0.984155  0
H  H30  1  0.11891268  0.96441479  0.73744648  1  0.139528  0  0.11903  0.144691  0  0.98414  0
H  H31  1  0.61891414  0.53558491  0.26255358  1  0.139461  0  0.119027  0.144695  0  0.98416  0
H  H32  1  0.09952867  0.88525308  0.07220738  1  0.123309  0  0.117402  0.124557  0  0.977181  0
H  H33  1  0.59952982  0.61474548  0.92779264  1  0.123342  0  0.117397  0.12456  0  0.977142  0
H  H34  1  0.90047048  0.11474527  0.92779358  1  0.1234  0  0.117393  0.124563  0  0.977156  0
H  H35  1  0.40047113  0.38525344  0.07220632  1  0.122766  0  0.117402  0.124545  0  0.977191  0
H  H36  1  0.85249087  0.04380078  0.63289030  1  0.144017  0  0.125442  0.104259  0  0.989388  0
H  H37  1  0.35248988  0.45620015  0.36710966  1  0.144015  0  0.12542  0.104255  0  0.989372  0
H  H38  1  0.14751068  0.95620039  0.36710974  1  0.144004  0  0.125434  0.104289  0  0.989337  0
H  H39  1  0.64751047  0.54379876  0.63288879  1  0.144017  0  0.125423  0.104279  0  0.989369  0
H  H40  1  0.92448627  0.81811650  0.40545591  1  0.166189  0  0.127331  0.107944  0  0.987849  0
H  H41  1  0.42448755  0.68188340  0.59454474  1  0.166201  0  0.12731  0.107918  0  0.987882  0
H  H42  1  0.07551228  0.18188354  0.59454561  1  0.166203  0  0.127308  0.107928  0  0.987888  0
H  H43  1  0.57551220  0.31811664  0.40545476  1  0.166207  0  0.127298  0.107918  0  0.987891  0
H  H44  1  0.09992688  0.89515448  0.94486515  1  0.12393  0  0.117201  0.122803  0  0.979509  0
H  H45  1  0.59992893  0.60484408  0.05513487  1  0.123877  0  0.117227  0.122849  0  0.979494  0
H  H46  1  0.90007167  0.10484387  0.05513582  1  0.123883  0  0.117212  0.122809  0  0.979502  0
H  H47  1  0.40007203  0.39515484  0.94486408  1  0.12389  0  0.117234  0.12286  0  0.979464  0
H  H48  1  0.69835701  0.93168528  0.07565583  1  0.133242  0  0.121262  0.127059  0  0.974494  0
H  H49  1  0.19835652  0.56831615  0.92434532  1  0.133266  0  0.121238  0.12701  0  0.974449  0
H  H50  1  0.30164334  0.06831532  0.92434622  1  0.133292  0  0.12123  0.126998  0  0.974421  0
H  H51  1  0.80164323  0.43168501  0.07565472  1  0.133268  0  0.121223  0.12697  0  0.974442  0
H  H52  1  0.69782502  0.93393868  0.94761663  1  0.124258  0  0.120954  0.126239  0  0.973981  0
H  H53  1  0.19782663  0.56606388  0.05238505  1  0.12464  0  0.120966  0.126249  0  0.974023  0
H  H54  1  0.30217413  0.06606417  0.05238598  1  0.124621  0  0.12097  0.126285  0  0.973972  0
H  H55  1  0.80217372  0.43393841  0.94761502  1  0.124591  0  0.120958  0.126248  0  0.974012  0
H  H56  1  0.88068603  0.04556853  0.38961677  1  0.145197  0  0.1243  0.097133  0  0.996756  0
H  H57  1  0.38068632  0.45443129  0.61038366  1  0.145201  0  0.1243  0.097125  0  0.996758  0
H  H58  1  0.11931372  0.95443151  0.61038374  1  0.145207  0  0.124301  0.097129  0  0.996773  0
H  H59  1  0.61931463  0.54556875  0.38961584  1  0.145205  0  0.124306  0.097142  0  0.996752  0
C  C60  1  0.11527115  0.81526947  0.49621937  1  -0.271211  0  -0.039552  -0.149755  0  4.031811  0
C  C61  1  0.61527101  0.68472853  0.50378165  1  -0.271447  0  -0.039629  -0.149829  0  4.031693  0
C  C62  1  0.88472920  0.18472888  0.50378210  1  -0.271254  0  -0.039622  -0.14987  0  4.031765  0
C  C63  1  0.38472874  0.31526813  0.49622027  1  -0.271214  0  -0.039561  -0.149807  0  4.031839  0
C  C64  1  0.97252906  0.90780897  0.93850685  1  -0.06316  0  -0.005353  -0.065479  0  3.995705  0
C  C65  1  0.47253189  0.59219264  0.06149437  1  -0.062964  0  -0.005459  -0.065694  0  3.995817  0
C  C66  1  0.02746829  0.09219275  0.06149472  1  -0.063065  0  -0.005419  -0.065551  0  3.99573  0
C  C67  1  0.52746906  0.40780908  0.93850569  1  -0.063228  0  -0.005423  -0.065521  0  3.995801  0
C  C68  1  0.28247729  0.66105839  0.49153588  1  1.585129  0  0.177139  0.557127  0  4.296416  0
C  C69  1  0.78247546  0.83894085  0.50846319  1  1.585074  0  0.177153  0.557178  0  4.296404  0
C  C70  1  0.71752667  0.33894390  0.50846267  1  1.584999  0  0.177176  0.557235  0  4.296181  0
C  C71  1  0.21752549  0.16105582  0.49153772  1  1.585083  0  0.177175  0.55718  0  4.296239  0
C  C72  1  0.92446409  0.86567489  0.71805009  1  -0.045877  0  -0.076948  -0.200031  0  3.941741  0
C  C73  1  0.42446704  0.63432557  0.28194906  1  -0.045901  0  -0.07699  -0.200151  0  3.941858  0
C  C74  1  0.07553265  0.13432571  0.28194943  1  -0.046029  0  -0.077003  -0.200198  0  3.941789  0
C  C75  1  0.57553331  0.36567447  0.71805095  1  -0.045895  0  -0.076971  -0.200112  0  3.94174  0
C  C76  1  0.97425115  0.91506021  0.86403699  1  1.352553  0  0.246198  0.437372  0  4.103251  0
C  C77  1  0.47425340  0.58494085  0.13596370  1  1.352597  0  0.246211  0.437427  0  4.103335  0
C  C78  1  0.02574800  0.08493871  0.13596298  1  1.352573  0  0.246181  0.437358  0  4.103343  0
C  C79  1  0.52574815  0.41506031  0.86403634  1  1.352621  0  0.246168  0.437277  0  4.103427  0
C  C80  1  0.91500028  0.85334284  0.30132614  1  0.021421  0  -0.072618  -0.192753  0  3.927351  0
C  C81  1  0.41500036  0.64665592  0.69867446  1  0.021448  0  -0.072588  -0.192723  0  3.927294  0
C  C82  1  0.08499526  0.14665495  0.69867430  1  0.021375  0  -0.072623  -0.192785  0  3.927381  0
C  C83  1  0.58499517  0.35334468  0.30132556  1  0.021379  0  -0.072615  -0.192768  0  3.927342  0
C  C84  1  0.90179411  0.91545920  0.26185633  1  0.27985  0  0.105622  0.228275  0  4.008589  0
C  C85  1  0.40179416  0.58453956  0.73814478  1  0.279796  0  0.105567  0.228222  0  4.008603  0
C  C86  1  0.09820504  0.08454028  0.73814467  1  0.279854  0  0.105566  0.228246  0  4.008587  0
C  C87  1  0.59820619  0.41545991  0.26185571  1  0.27984  0  0.105596  0.228362  0  4.008558  0
C  C88  1  0.12980314  0.68576314  0.50186047  1  0.059287  0  -0.101547  -0.115689  0  4.004892  0
C  C89  1  0.62980069  0.81423488  0.49813600  1  0.059599  0  -0.101629  -0.115808  0  4.004982  0
C  C90  1  0.87020021  0.31423465  0.49813643  1  0.05948  0  -0.101592  -0.115785  0  4.004916  0
C  C91  1  0.37019726  0.18576291  0.50186343  1  0.059505  0  -0.101592  -0.115805  0  4.004953  0
C  C92  1  0.89913949  0.92655350  0.75882464  1  0.348274  0  0.101789  0.222273  0  4.013698  0
C  C93  1  0.39913997  0.57344807  0.24117554  1  0.348233  0  0.101832  0.222385  0  4.013588  0
C  C94  1  0.10085906  0.07344767  0.24117590  1  0.348258  0  0.101829  0.222383  0  4.013488  0
C  C95  1  0.60086038  0.42655309  0.75882348  1  0.348234  0  0.101833  0.222422  0  4.013396  0
C  C96  1  0.97237618  0.89914269  0.08045138  1  -0.068777  0  -0.003157  -0.05902  0  3.985215  0
C  C97  1  0.47237691  0.60085892  0.91954983  1  -0.068692  0  -0.003226  -0.059189  0  3.98529  0
C  C98  1  0.02762417  0.10085960  0.91955021  1  -0.068746  0  -0.003207  -0.059146  0  3.985325  0
C  C99  1  0.52762344  0.39914112  0.08045017  1  -0.068764  0  -0.003233  -0.059141  0  3.985297  0
C  C100  1  0.92262413  0.87296117  0.64816012  1  0.542765  0  0.060119  0.117425  0  3.908038  0
C  C101  1  0.42262769  0.62703928  0.35183903  1  0.543167  0  0.060119  0.117436  0  3.908135  0
C  C102  1  0.07737141  0.12703830  0.35184037  1  0.543124  0  0.06015  0.117447  0  3.908025  0
C  C103  1  0.57737266  0.37296019  0.64816045  1  0.543148  0  0.060105  0.117416  0  3.90815  0
C  C104  1  0.82361237  0.92478916  0.86465992  1  1.354506  0  0.248665  0.441071  0  4.082578  0
C  C105  1  0.32361341  0.57521349  0.13534128  1  1.354494  0  0.24861  0.440976  0  4.082917  0
C  C106  1  0.17638618  0.07521313  0.13534166  1  1.354495  0  0.248606  0.440958  0  4.082802  0
C  C107  1  0.67638573  0.42478993  0.86465831  1  1.354494  0  0.248558  0.441003  0  4.082748  0
C  C108  1  0.87279749  0.99217436  0.72955936  1  0.003685  0  -0.075269  -0.188664  0  3.933153  0
C  C109  1  0.37279673  0.50782775  0.27044083  1  0.003703  0  -0.075301  -0.188651  0  3.93322  0
C  C110  1  0.12720226  0.00782737  0.27044171  1  0.003745  0  -0.07528  -0.188647  0  3.933228  0
C  C111  1  0.62720242  0.49217341  0.72955819  1  0.003698  0  -0.075278  -0.188638  0  3.933212  0
C  C112  1  0.07603560  0.74711642  0.50392778  1  0.019082  0  -0.102423  -0.115209  0  4.001989  0
C  C113  1  0.57603550  0.75288156  0.49607120  1  0.019064  0  -0.102405  -0.115219  0  4.001912  0
C  C114  1  0.92396535  0.25288081  0.49607163  1  0.019048  0  -0.102408  -0.115219  0  4.001912  0
C  C115  1  0.42396485  0.24711623  0.50392823  1  0.019095  0  -0.102478  -0.11527  0  4.002081  0
C  C116  1  0.82553998  0.91723679  0.08180043  1  0.089995  0  -5.7e-05  -0.052988  0  3.972342  0
C  C117  1  0.32554129  0.58276473  0.91820024  1  0.090014  0  -9.6e-05  -0.05305  0  3.972359  0
C  C118  1  0.17445977  0.08276438  0.91820062  1  0.090063  0  -0.000101  -0.053058  0  3.972342  0
C  C119  1  0.67445905  0.41723587  0.08179826  1  0.090075  0  -0.000114  -0.053048  0  3.972262  0
C  C120  1  0.89879197  0.91256688  0.97408518  1  -0.064954  0  0.002838  0.029271  0  4.011242  0
C  C121  1  0.39879419  0.58743581  0.02591656  1  -0.064845  0  0.002971  0.029507  0  4.011068  0
C  C122  1  0.10120657  0.08743541  0.02591692  1  -0.064772  0  0.002945  0.029469  0  4.011029  0
C  C123  1  0.60120616  0.41256704  0.97408302  1  -0.064762  0  0.002911  0.029385  0  4.011176  0
C  C124  1  0.97392572  0.89621244  0.15535119  1  1.370655  0  0.247181  0.441811  0  4.096564  0
C  C125  1  0.47392583  0.60378806  0.84464898  1  1.370431  0  0.247185  0.441853  0  4.096417  0
C  C126  1  0.02607403  0.10378816  0.84464934  1  1.370536  0  0.247217  0.44194  0  4.096503  0
C  C127  1  0.52607452  0.39621198  0.15535052  1  1.370525  0  0.247158  0.441819  0  4.09652  0
C  C128  1  0.88997093  0.98616051  0.29259599  1  0.003765  0  -0.074239  -0.193771  0  3.92028  0
C  C129  1  0.38997152  0.51383880  0.70740463  1  0.003739  0  -0.07425  -0.193809  0  3.92025  0
C  C130  1  0.11002882  0.01383897  0.70740501  1  0.00373  0  -0.074216  -0.193754  0  3.9202  0
C  C131  1  0.61003003  0.48616068  0.29259485  1  0.003841  0  -0.074216  -0.193817  0  3.920279  0
C  C132  1  0.04384418  0.89324344  0.04429983  1  -0.0314  0  -0.06559  -0.077015  0  3.940842  0
C  C133  1  0.54384533  0.60675677  0.95570023  1  -0.03147  0  -0.065558  -0.076941  0  3.94077  0
C  C134  1  0.95615497  0.10675660  0.95570068  1  -0.031491  0  -0.065558  -0.076992  0  3.94077  0
C  C135  1  0.45615562  0.39324327  0.04429877  1  -0.030835  0  -0.065573  -0.076957  0  3.940815  0
C  C136  1  0.82493268  0.91825392  0.15694492  1  1.317063  0  0.249083  0.443786  0  4.081752  0
C  C137  1  0.32493578  0.58174760  0.84305727  1  1.316999  0  0.249185  0.443912  0  4.081635  0
C  C138  1  0.17506526  0.08174499  0.84305707  1  1.317025  0  0.249193  0.44396  0  4.081462  0
C  C139  1  0.67506697  0.41825300  0.15694275  1  1.317033  0  0.249129  0.443884  0  4.081686  0
C  C140  1  0.87252509  0.99428814  0.65924823  1  0.4827  0  0.061812  0.116331  0  3.904075  0
C  C141  1  0.37252315  0.50571398  0.34075146  1  0.482744  0  0.061843  0.11633  0  3.904118  0
C  C142  1  0.12747766  0.00571359  0.34075233  1  0.482676  0  0.061799  0.116225  0  3.90414  0
C  C143  1  0.62747600  0.49428606  0.65924753  1  0.482565  0  0.061825  0.116263  0  3.904152  0
C  C144  1  0.20903244  0.70800115  0.49337872  1  -0.25888  0  -0.02635  -0.106087  0  3.984169  0
C  C145  1  0.70903118  0.79199692  0.50661878  1  -0.258938  0  -0.026333  -0.10612  0  3.984088  0
C  C146  1  0.79096971  0.29199833  0.50661874  1  -0.258884  0  -0.026342  -0.106117  0  3.984165  0
C  C147  1  0.29096857  0.20800087  0.49338216  1  -0.258977  0  -0.026302  -0.105956  0  3.984076  0
C  C148  1  0.89884954  0.90934759  0.04597413  1  0.02459  0  0.004783  0.030942  0  4.002868  0
C  C149  1  0.39885027  0.59065510  0.95402709  1  0.024597  0  0.004782  0.030978  0  4.002781  0
C  C150  1  0.10115021  0.09065470  0.95402796  1  0.024671  0  0.00477  0.030929  0  4.002841  0
C  C151  1  0.60115008  0.40934606  0.04597244  1  0.024664  0  0.004809  0.030991  0  4.002816  0
C  C152  1  0.91555348  0.86445090  0.37148958  1  0.453835  0  0.062725  0.118271  0  3.896148  0
C  C153  1  0.41555414  0.63554899  0.62851107  1  0.453845  0  0.062802  0.118392  0  3.896106  0
C  C154  1  0.08444567  0.13554914  0.62851093  1  0.453835  0  0.062777  0.118334  0  3.896182  0
C  C155  1  0.58444441  0.36445105  0.37148894  1  0.453826  0  0.062811  0.118377  0  3.896101  0
C  C156  1  0.82515409  0.92164402  0.93952241  1  -0.069307  0  -0.004013  -0.061486  0  3.987927  0
C  C157  1  0.32515572  0.57836143  0.06047888  1  -0.069592  0  -0.004104  -0.06163  0  3.988009  0
C  C158  1  0.17484445  0.07836108  0.06047926  1  -0.069605  0  -0.004104  -0.061641  0  3.988075  0
C  C159  1  0.67484463  0.42164198  0.93952071  1  -0.069441  0  -0.004013  -0.061545  0  3.987823  0
C  C160  1  0.04401571  0.89831167  0.97354454  1  0.065412  0  -0.064218  -0.06909  0  3.93679  0
C  C161  1  0.54401774  0.60168967  0.02645606  1  0.065378  0  -0.064192  -0.069077  0  3.936743  0
C  C162  1  0.95598284  0.10168837  0.02645648  1  0.065376  0  -0.064185  -0.069067  0  3.936755  0
C  C163  1  0.45598321  0.39831150  0.97354347  1  0.065383  0  -0.06419  -0.06913  0  3.936736  0
C  C164  1  0.75391041  0.92591256  0.04671616  1  -0.054732  0  -0.060072  -0.069591  0  3.926426  0
C  C165  1  0.25391114  0.57408778  0.95328395  1  -0.054766  0  -0.060052  -0.069537  0  3.926298  0
C  C166  1  0.24608934  0.07408860  0.95328590  1  -0.055019  0  -0.060033  -0.069507  0  3.926321  0
C  C167  1  0.74609042  0.42591338  0.04671507  1  -0.055008  0  -0.060025  -0.06951  0  3.926239  0
C  C168  1  0.75365081  0.92756941  0.97571257  1  -0.023228  0  -0.059756  -0.066735  0  3.926636  0
C  C169  1  0.25365242  0.57243263  0.02428810  1  -0.023502  0  -0.059717  -0.066649  0  3.926658  0
C  C170  1  0.24634833  0.07243345  0.02428954  1  -0.023293  0  -0.059729  -0.066706  0  3.926715  0
C  C171  1  0.74634793  0.42757022  0.97571097  1  -0.023336  0  -0.059756  -0.06668  0  3.926642  0
C  C172  1  0.89072015  0.99182367  0.36294321  1  0.527863  0  0.062559  0.12236  0  3.910096  0
C  C173  1  0.39072132  0.50817620  0.63705743  1  0.527881  0  0.062531  0.122385  0  3.910061  0
C  C174  1  0.10927900  0.00817637  0.63705730  1  0.52789  0  0.062532  0.122362  0  3.910098  0
C  C175  1  0.60928024  0.49182327  0.36294256  1  0.527857  0  0.062554  0.122401  0  3.910059  0
C  C176  1  0.07999636  0.89138219  0.49793127  1  1.597816  0  0.203285  0.58909  0  4.271847  0
C  C177  1  0.57999676  0.60861411  0.50206767  1  1.598075  0  0.203259  0.589109  0  4.271651  0
C  C178  1  0.92000218  0.10861392  0.50206710  1  1.597873  0  0.203352  0.589235  0  4.271566  0
C  C179  1  0.42000178  0.39138424  0.49793228  1  1.598107  0  0.203248  0.589054  0  4.271802  0
S  S180  1  0.21749928  0.80371871  0.48694247  1  0.272199  0  0.08092  0.144323  0  2.876395  0
S  S181  1  0.71749974  0.69627936  0.51305554  1  0.272148  0  0.080994  0.144438  0  2.87622  0
S  S182  1  0.78250047  0.19628076  0.51305650  1  0.272197  0  0.080952  0.144412  0  2.876344  0
S  S183  1  0.28250000  0.30371674  0.48694384  1  0.272259  0  0.080949  0.144351  0  2.876394  0
N  N184  1  0.90327873  0.93238236  0.40164307  1  -1.22887  0  -0.304925  -0.210547  0  3.497296  0
N  N185  1  0.40327932  0.56761752  0.59835707  1  -1.22886  0  -0.304918  -0.210614  0  3.497364  0
N  N186  1  0.09672102  0.06761768  0.59835744  1  -1.228858  0  -0.304908  -0.21056  0  3.497326  0
N  N187  1  0.59672163  0.43238252  0.40164243  1  -1.228858  0  -0.304939  -0.210616  0  3.497312  0
N  N188  1  0.89936078  0.92134170  0.83160090  1  -1.180727  0  -0.224776  -0.22048  0  3.563635  0
N  N189  1  0.39936244  0.57865930  0.16839927  1  -1.18075  0  -0.224757  -0.220571  0  3.563686  0
N  N190  1  0.10063777  0.07866002  0.16839966  1  -1.180788  0  -0.224761  -0.220445  0  3.563612  0
N  N191  1  0.60063851  0.42134186  0.83159975  1  -1.180799  0  -0.224829  -0.220583  0  3.563641  0
N  N192  1  0.89704938  0.93608072  0.61955012  1  -1.220022  0  -0.306724  -0.203717  0  3.498008  0
N  N193  1  0.39704930  0.56392141  0.38044907  1  -1.220347  0  -0.306679  -0.203647  0  3.498053  0
N  N194  1  0.10295037  0.06392101  0.38044994  1  -1.220364  0  -0.306668  -0.203595  0  3.497952  0
N  N195  1  0.60295105  0.43607750  0.61954988  1  -1.220163  0  -0.306654  -0.203627  0  3.498007  0
N  N196  1  0.90014054  0.90806420  0.18881880  1  -1.183029  0  -0.22542  -0.222903  0  3.568627  0
N  N197  1  0.40014123  0.59193512  0.81118183  1  -1.183078  0  -0.22544  -0.222904  0  3.568693  0
N  N198  1  0.09985921  0.09193472  0.81118168  1  -1.183046  0  -0.225437  -0.222949  0  3.568669  0
N  N199  1  0.59985973  0.40806435  0.18881765  1  -1.182999  0  -0.225447  -0.223078  0  3.568732  0
O  O200  1  0.00775169  0.89811198  0.51710564  1  -1.199204  0  -0.321396  -0.577053  0  2.452688  0
O  O201  1  0.50775207  0.60188314  0.48289223  1  -1.199237  0  -0.321368  -0.577118  0  2.452734  0
O  O202  1  0.99224686  0.10188244  0.48289167  1  -1.199184  0  -0.321415  -0.57716  0  2.452661  0
O  O203  1  0.49224708  0.39811521  0.51710671  1  -1.199369  0  -0.321316  -0.577003  0  2.452676  0
O  O204  1  0.12691523  0.94523091  0.48209953  1  -1.178822  0  -0.323142  -0.551341  0  2.36554  0
O  O205  1  0.62691739  0.55476823  0.51790102  1  -1.178934  0  -0.32313  -0.551318  0  2.365447  0
O  O206  1  0.87308211  0.05476800  0.51790094  1  -1.178963  0  -0.323172  -0.551385  0  2.365483  0
O  O207  1  0.37308295  0.44523181  0.48209848  1  -1.178939  0  -0.323156  -0.551316  0  2.365468  0
O  O208  1  0.35074203  0.69271610  0.48890174  1  -1.174041  0  -0.344792  -0.586846  0  2.147139  0
O  O209  1  0.85074138  0.80728544  0.51109843  1  -1.173991  0  -0.344791  -0.586852  0  2.147152  0
O  O210  1  0.64926012  0.30728788  0.51109737  1  -1.173851  0  -0.344839  -0.586903  0  2.147154  0
O  O211  1  0.14925837  0.19271010  0.48890295  1  -1.173917  0  -0.344826  -0.586879  0  2.147197  0
O  O212  1  0.03765161  0.91658111  0.83192911  1  -1.114171  0  -0.267162  -0.440008  0  2.123514  0
O  O213  1  0.53765188  0.58341685  0.16807139  1  -1.114237  0  -0.267156  -0.439955  0  2.123574  0
O  O214  1  0.96234693  0.08341331  0.16807174  1  -1.114212  0  -0.267154  -0.440001  0  2.123513  0
O  O215  1  0.46234787  0.41658432  0.83192814  1  -1.11421  0  -0.267138  -0.439921  0  2.12359  0
O  O216  1  0.03624928  0.88548120  0.18706498  1  -1.104589  0  -0.263138  -0.432887  0  2.117702  0
O  O217  1  0.53624979  0.61451788  0.81293504  1  -1.104484  0  -0.263119  -0.432874  0  2.117598  0
O  O218  1  0.96375227  0.11451828  0.81293652  1  -1.104557  0  -0.263121  -0.432892  0  2.117743  0
O  O219  1  0.46374996  0.38548160  0.18706393  1  -1.104578  0  -0.263119  -0.432854  0  2.117611  0
O  O220  1  0.27324442  0.58943626  0.49332574  1  -1.161388  0  -0.340794  -0.546359  0  2.19407  0
O  O221  1  0.77324384  0.91056354  0.50667436  1  -1.16134  0  -0.340816  -0.546403  0  2.194018  0
O  O222  1  0.72676014  0.41056603  0.50667230  1  -1.161503  0  -0.340768  -0.546375  0  2.193834  0
O  O223  1  0.22675891  0.08943369  0.49332708  1  -1.161503  0  -0.340788  -0.546403  0  2.193882  0
O  O224  1  0.76115732  0.93016909  0.83226703  1  -1.088257  0  -0.261931  -0.412553  0  2.064291  0
O  O225  1  0.26115898  0.56983520  0.16773269  1  -1.088219  0  -0.261934  -0.412519  0  2.064542  0
O  O226  1  0.23884122  0.06983545  0.16773361  1  -1.088232  0  -0.261944  -0.412547  0  2.064445  0
O  O227  1  0.73884077  0.43016765  0.83226537  1  -1.088244  0  -0.261874  -0.412532  0  2.064385  0
O  O228  1  0.76338560  0.92753077  0.19033357  1  -1.084029  0  -0.26296  -0.414212  0  2.057646  0
O  O229  1  0.26338507  0.57246903  0.80966754  1  -1.083905  0  -0.263015  -0.414317  0  2.05747  0
O  O230  1  0.23661835  0.07246984  0.80966746  1  -1.083986  0  -0.263047  -0.414363  0  2.057292  0
O  O231  1  0.73661467  0.42752876  0.19033189  1  -1.08396  0  -0.262947  -0.414208  0  2.057638  0
