# generated using pymatgen
data_Mn2PH2CO7
_symmetry_space_group_name_H-M   'P 1'
_cell_length_a   6.51819450
_cell_length_b   10.05339709
_cell_length_c   10.22260662
_cell_angle_alpha   116.40693261
_cell_angle_beta   90.00007477
_cell_angle_gamma   90.00004153
_symmetry_Int_Tables_number   1
_chemical_formula_structural   Mn2PH2CO7
_chemical_formula_sum   'Mn8 P4 H8 C4 O28'
_cell_volume   599.98996676
_cell_formula_units_Z   4
loop_
 _symmetry_equiv_pos_site_id
 _symmetry_equiv_pos_as_xyz
  1  'x, y, z'
loop_
 _atom_site_type_symbol
 _atom_site_label
 _atom_site_symmetry_multiplicity
 _atom_site_fract_x
 _atom_site_fract_y
 _atom_site_fract_z
 _atom_site_occupancy
 _atom_site_hle17_ddec_charge
 _atom_site_hle17_ddec_spin_density
 _atom_site_hle17_ddec_sum_bond_order
 _atom_site_hle17_magmom
 _atom_site_hse06_10hf_ddec_charge
 _atom_site_hse06_10hf_ddec_spin_density
 _atom_site_hse06_10hf_ddec_sum_bond_order
 _atom_site_hse06_10hf_magmom
 _atom_site_hse06_ddec_charge
 _atom_site_hse06_ddec_spin_density
 _atom_site_hse06_ddec_sum_bond_order
 _atom_site_hse06_magmom
 _atom_site_pbe_cm5_charge
 _atom_site_pbe_ddec_charge
 _atom_site_pbe_ddec_spin_density
 _atom_site_pbe_ddec_sum_bond_order
 _atom_site_pbe_magmom
Mn  Mn0  1  0.14462327  0.02362989  0.38138947  1  1.334945  4.789484  1.652594  4.694  1.18727  4.723093  2.12587  4.568  1.242386  4.756393  2.056783  4.619  0.627771  1.143722  4.690631  2.176573  4.52
Mn  Mn1  1  0.64462419  0.47636936  0.61860958  1  1.334937  4.78949  1.652597  4.694  1.187267  4.723101  2.125853  4.568  1.242386  4.756398  2.056763  4.619  0.627778  1.143693  4.690636  2.176596  4.52
Mn  Mn2  1  0.85537914  0.97636747  0.61860680  1  1.334933  4.789486  1.652618  4.694  1.187243  4.723092  2.125868  4.568  1.242358  4.756395  2.056781  4.619  0.627769  1.143674  4.690633  2.176612  4.52
Mn  Mn3  1  0.35537823  0.52363243  0.38139255  1  1.334974  4.789483  1.652549  4.694  1.18727  4.723093  2.125789  4.568  1.242401  4.756389  2.056702  4.619  0.627775  1.14371  4.690627  2.176525  4.52
Mn  Mn4  1  0.97401401  0.26845765  0.26588661  1  1.299246  4.787849  1.629029  4.683  1.142548  4.72626  2.102839  4.556  1.20282  4.76217  2.031159  4.61  0.628076  1.093867  4.692119  2.156502  4.505
Mn  Mn5  1  0.47401404  0.23154195  0.73411287  1  1.299185  4.787849  1.629069  4.683  1.142513  4.726263  2.102886  4.556  1.202766  4.762173  2.031207  4.61  0.628074  1.093848  4.692121  2.156523  4.505
Mn  Mn6  1  0.02598995  0.73154304  0.73411308  1  1.299209  4.78785  1.629004  4.683  1.1425  4.726267  2.102832  4.556  1.202753  4.762179  2.03115  4.61  0.628102  1.093827  4.69213  2.156496  4.505
Mn  Mn7  1  0.52598991  0.76845762  0.26588633  1  1.299201  4.787851  1.62902  4.683  1.142493  4.726266  2.102839  4.556  1.202746  4.762179  2.031158  4.61  0.628093  1.093817  4.692128  2.156526  4.505
P  P8  1  0.14937348  0.39408734  0.60284766  1  1.786809  0.019443  4.877902  0.017  1.595824  0.035514  5.393122  0.025  1.657703  0.027312  5.342262  0.021  0.429564  1.550623  0.0431  5.427666  0.029
P  P9  1  0.64937200  0.10591080  0.39715091  1  1.786859  0.019422  4.877848  0.017  1.595882  0.035512  5.393058  0.025  1.657769  0.027301  5.342192  0.021  0.429582  1.550681  0.0431  5.427604  0.029
P  P10  1  0.85062740  0.60591112  0.39715105  1  1.78681  0.019447  4.877923  0.017  1.595792  0.035512  5.393166  0.025  1.657697  0.027304  5.342327  0.021  0.429552  1.550597  0.043101  5.427707  0.029
P  P11  1  0.35062888  0.89408878  0.60284829  1  1.786814  0.019421  4.877979  0.017  1.595835  0.035515  5.393198  0.025  1.65772  0.027306  5.342333  0.021  0.429568  1.550628  0.043102  5.427752  0.029
H  H12  1  0.11425919  0.77486239  0.12200867  1  0.423429  -0.000745  0.866957  0.001  0.394262  0.00025  0.932413  0.002  0.405277  -0.000176  0.916369  0.001  0.305592  0.386607  0.000627  0.943507  0.002
H  H13  1  0.61425882  0.72513726  0.87799037  1  0.423433  -0.000751  0.866964  0.001  0.394264  0.00025  0.932413  0.002  0.405277  -0.000175  0.916371  0.001  0.305596  0.386609  0.000627  0.943506  0.002
H  H14  1  0.88574170  0.22513720  0.87798858  1  0.423418  -0.000747  0.867003  0.001  0.394245  0.00025  0.932455  0.002  0.40526  -0.000176  0.91641  0.001  0.305569  0.38659  0.000627  0.943547  0.002
H  H15  1  0.38574206  0.27486342  0.12201030  1  0.423399  -0.00075  0.867019  0.001  0.394233  0.00025  0.932468  0.002  0.405249  -0.000176  0.916422  0.001  0.305563  0.386577  0.000627  0.943563  0.002
H  H16  1  0.01823269  0.72881956  0.24028992  1  0.443366  -0.000855  0.84729  0.001  0.413972  0.000244  0.907742  0.002  0.425123  -0.000191  0.891706  0.002  0.305977  0.405921  0.000646  0.919262  0.003
H  H17  1  0.51823367  0.77117999  0.75970900  1  0.443363  -0.000855  0.847287  0.001  0.413969  0.000244  0.907744  0.002  0.425119  -0.000191  0.89171  0.002  0.305975  0.405918  0.000646  0.919265  0.003
H  H18  1  0.98176973  0.27118002  0.75970831  1  0.44338  -0.000854  0.84724  0.001  0.413989  0.000244  0.907709  0.002  0.425141  -0.000192  0.891672  0.002  0.305975  0.405938  0.000645  0.919229  0.003
H  H19  1  0.48177029  0.22881958  0.24029118  1  0.443372  -0.000851  0.847267  0.001  0.413982  0.000243  0.907725  0.002  0.425134  -0.000192  0.891688  0.002  0.30597  0.405931  0.000645  0.919246  0.003
C  C20  1  0.04625571  0.95880402  0.04124059  1  0.573747  0.00601  3.853643  0.008  0.524184  0.013983  4.140439  0.014  0.556026  0.009464  4.133139  0.011  0.241594  0.500937  0.02037  4.146522  0.019
C  C21  1  0.54625684  0.54119777  0.95876227  1  0.57373  0.00601  3.853647  0.008  0.524171  0.013985  4.140425  0.014  0.556014  0.009461  4.133122  0.011  0.241611  0.500921  0.020371  4.146508  0.019
C  C22  1  0.95373136  0.04118894  0.95874396  1  0.573943  0.006017  3.853642  0.008  0.524323  0.013982  4.140438  0.014  0.556165  0.009457  4.133136  0.011  0.241615  0.501024  0.020367  4.146585  0.019
C  C23  1  0.45373484  0.45881174  0.04125598  1  0.573959  0.00601  3.853736  0.008  0.524341  0.013982  4.140543  0.014  0.556184  0.009458  4.133239  0.011  0.241619  0.501045  0.020367  4.146682  0.019
O  O24  1  0.09313990  0.26006404  0.45566841  1  -0.959429  0.074521  2.070101  0.046  -0.854198  0.091054  2.379589  0.056  -0.891488  0.081361  2.351084  0.048  -0.359206  -0.82531  0.099718  2.399062  0.064
O  O25  1  0.59313886  0.23993515  0.54433058  1  -0.959412  0.074525  2.070018  0.046  -0.854187  0.091055  2.379508  0.056  -0.891474  0.081357  2.351001  0.048  -0.359216  -0.825297  0.099718  2.398984  0.064
O  O26  1  0.90686405  0.73993442  0.54433030  1  -0.959425  0.074519  2.070072  0.046  -0.8542  0.091056  2.379588  0.056  -0.891487  0.081362  2.351077  0.048  -0.359228  -0.825302  0.099718  2.399059  0.064
O  O27  1  0.40686355  0.76006443  0.45566863  1  -0.959433  0.074525  2.070008  0.046  -0.854211  0.091058  2.379517  0.056  -0.891496  0.081358  2.351007  0.048  -0.359244  -0.825324  0.09972  2.399009  0.064
O  O28  1  0.96403785  0.50430631  0.65976357  1  -0.960071  0.07967  2.046364  0.045  -0.854338  0.095711  2.362119  0.052  -0.892201  0.085634  2.33134  0.043  -0.370298  -0.824458  0.105259  2.382493  0.06
O  O29  1  0.46403584  0.99569260  0.34023641  1  -0.960119  0.079682  2.0464  0.045  -0.854385  0.095713  2.362154  0.052  -0.892251  0.08564  2.331376  0.043  -0.370305  -0.824503  0.10526  2.382532  0.06
O  O30  1  0.03596457  0.49569216  0.34023612  1  -0.960154  0.079675  2.046433  0.045  -0.854338  0.095714  2.362111  0.052  -0.892266  0.085641  2.331386  0.043  -0.370281  -0.824471  0.10526  2.382497  0.06
O  O31  1  0.53596504  0.00430698  0.65976279  1  -0.960081  0.079679  2.046435  0.045  -0.854361  0.095711  2.362196  0.052  -0.892218  0.085637  2.331415  0.043  -0.370273  -0.824465  0.105257  2.382564  0.06
O  O32  1  0.32621849  0.48498884  0.57769024  1  -0.968267  0.078268  2.031721  0.045  -0.869322  0.099423  2.348081  0.058  -0.905432  0.089215  2.317956  0.05  -0.358125  -0.840787  0.108348  2.367868  0.066
O  O33  1  0.82621850  0.01501060  0.42230905  1  -0.968284  0.078278  2.031754  0.045  -0.869347  0.099427  2.348109  0.058  -0.905478  0.089228  2.318007  0.05  -0.358129  -0.840816  0.108352  2.367902  0.066
O  O34  1  0.67378392  0.51500962  0.42230847  1  -0.968274  0.078269  2.031799  0.045  -0.869319  0.099423  2.348132  0.058  -0.905476  0.089225  2.318062  0.05  -0.358105  -0.840789  0.108348  2.367919  0.066
O  O35  1  0.17378392  0.98499009  0.57769065  1  -0.968272  0.078273  2.031813  0.045  -0.86931  0.099423  2.348114  0.058  -0.905466  0.089224  2.318061  0.05  -0.358104  -0.84077  0.108347  2.3679  0.066
O  O36  1  0.20070527  0.33706126  0.71626246  1  -0.923002  0.041496  1.96048  0.03  -0.828338  0.05018  2.232026  0.035  -0.862891  0.043223  2.206833  0.029  -0.361425  -0.801786  0.056736  2.249022  0.04
O  O37  1  0.70070362  0.16293804  0.28373765  1  -0.923014  0.041497  1.96049  0.03  -0.828343  0.050181  2.232021  0.035  -0.862895  0.043218  2.206821  0.029  -0.361423  -0.801788  0.056735  2.249012  0.04
O  O38  1  0.79929561  0.66293720  0.28373724  1  -0.92296  0.041495  1.960459  0.03  -0.828299  0.050181  2.232031  0.035  -0.862846  0.043221  2.206824  0.029  -0.361404  -0.801733  0.056736  2.249017  0.04
O  O39  1  0.29929573  0.83706265  0.71626205  1  -0.922969  0.041503  1.960497  0.03  -0.828301  0.050181  2.232044  0.035  -0.86285  0.043221  2.206846  0.029  -0.361397  -0.801731  0.056735  2.24903  0.04
O  O40  1  0.09349081  0.03932657  0.17321779  1  -0.624486  0.054113  2.228738  0.034  -0.54961  0.067138  2.499387  0.044  -0.582688  0.060423  2.487658  0.038  -0.27386  -0.525636  0.073283  2.507716  0.049
O  O41  1  0.59349367  0.46067262  0.82678217  1  -0.624479  0.054104  2.228642  0.034  -0.549609  0.067137  2.49929  0.044  -0.582691  0.060425  2.487562  0.038  -0.27391  -0.525633  0.073284  2.507619  0.049
O  O42  1  0.90650854  0.96067524  0.82678141  1  -0.624533  0.054099  2.229187  0.034  -0.549547  0.067133  2.499772  0.044  -0.582607  0.060419  2.48803  0.038  -0.273866  -0.525575  0.073279  2.50814  0.049
O  O43  1  0.40650875  0.53932694  0.17321899  1  -0.624547  0.0541  2.229178  0.034  -0.549568  0.067135  2.499774  0.044  -0.582631  0.060418  2.488031  0.038  -0.273875  -0.525594  0.07328  2.508133  0.049
O  O44  1  0.06748025  0.81891936  0.97300574  1  -0.579851  0.029416  2.009676  0.02  -0.518931  0.040151  2.248867  0.027  -0.545731  0.034763  2.233538  0.023  -0.274494  -0.500006  0.045882  2.260293  0.032
O  O45  1  0.56747964  0.68108024  0.02699324  1  -0.57986  0.029427  2.009761  0.02  -0.518922  0.040149  2.248928  0.027  -0.545717  0.034764  2.233596  0.023  -0.274489  -0.499996  0.045883  2.260357  0.032
O  O46  1  0.93250989  0.18109022  0.02699591  1  -0.580021  0.029426  2.009336  0.02  -0.519066  0.040154  2.248514  0.027  -0.545871  0.034766  2.233182  0.023  -0.274546  -0.500121  0.045885  2.259961  0.032
O  O47  1  0.43251358  0.31891155  0.97300547  1  -0.579987  0.029429  2.009416  0.02  -0.519052  0.040152  2.248611  0.027  -0.545858  0.034767  2.233281  0.023  -0.274523  -0.500113  0.045886  2.260059  0.032
O  O48  1  0.13603680  0.78218962  0.22115739  1  -0.846379  0.041318  1.918051  0.026  -0.783315  0.056986  2.134573  0.038  -0.808864  0.050401  2.097762  0.033  -0.541152  -0.76367  0.063269  2.160207  0.043
O  O49  1  0.63603622  0.71781005  0.77884265  1  -0.846385  0.041326  1.918055  0.026  -0.783316  0.056986  2.134568  0.038  -0.808864  0.050399  2.097759  0.033  -0.541164  -0.763672  0.063269  2.160203  0.043
O  O50  1  0.86396409  0.21781106  0.77884328  1  -0.846398  0.041321  1.918055  0.026  -0.783325  0.056987  2.134546  0.038  -0.808874  0.0504  2.097733  0.033  -0.541163  -0.763685  0.063271  2.160179  0.043
O  O51  1  0.36396313  0.28218842  0.22115606  1  -0.846372  0.041319  1.91807  0.026  -0.783314  0.056987  2.134563  0.038  -0.808862  0.0504  2.097747  0.033  -0.541151  -0.763674  0.063272  2.160197  0.043
