# generated using pymatgen
data_CdH8C10(N4Cl)2
_symmetry_space_group_name_H-M   'P 1'
_cell_length_a   6.92549899
_cell_length_b   11.92065821
_cell_length_c   16.80484788
_cell_angle_alpha   89.99982813
_cell_angle_beta   93.17971860
_cell_angle_gamma   89.99927520
_symmetry_Int_Tables_number   1
_chemical_formula_structural   CdH8C10(N4Cl)2
_chemical_formula_sum   'Cd4 H32 C40 N32 Cl8'
_cell_volume   1385.21365224
_cell_formula_units_Z   4
loop_
 _symmetry_equiv_pos_site_id
 _symmetry_equiv_pos_as_xyz
  1  'x, y, z'
loop_
 _atom_site_type_symbol
 _atom_site_label
 _atom_site_symmetry_multiplicity
 _atom_site_fract_x
 _atom_site_fract_y
 _atom_site_fract_z
 _atom_site_occupancy
 _atom_site_hle17_bader_spin_density
 _atom_site_hle17_ddec_charge
 _atom_site_hle17_ddec_spin_density
 _atom_site_hle17_ddec_sum_bond_order
 _atom_site_hle17_magmom
 _atom_site_hse06_10hf_bader_spin_density
 _atom_site_hse06_10hf_ddec_charge
 _atom_site_hse06_10hf_ddec_spin_density
 _atom_site_hse06_10hf_ddec_sum_bond_order
 _atom_site_hse06_10hf_magmom
 _atom_site_hse06_bader_spin_density
 _atom_site_hse06_ddec_charge
 _atom_site_hse06_ddec_spin_density
 _atom_site_hse06_ddec_sum_bond_order
 _atom_site_hse06_magmom
 _atom_site_pbe_bader_spin_density
 _atom_site_pbe_cm5_charge
 _atom_site_pbe_ddec_charge
 _atom_site_pbe_ddec_spin_density
 _atom_site_pbe_ddec_sum_bond_order
 _atom_site_pbe_magmom
Cd  Cd0  1  0.25436901  0.56467842  0.01511523  1  0  0.945052  0  1.980278  0  0  0.778144  0  2.447178  0  0  0.824518  0  2.407012  0  0  0.588845  0.745411  0  2.474354  0
Cd  Cd1  1  0.74561968  0.06466966  0.48488409  1  0  0.945115  0  1.980306  0  0  0.778229  0  2.447151  0  0  0.824608  0  2.406979  0  0  0.588868  0.745499  0  2.474326  0
Cd  Cd2  1  0.74561686  0.43532850  0.98488820  1  0  0.945171  0  1.980231  0  0  0.778288  0  2.447082  0  0  0.824663  0  2.406909  0  0  0.588883  0.745555  0  2.474261  0
Cd  Cd3  1  0.25437771  0.93532551  0.51511423  1  0  0.945052  0  1.980362  0  0  0.778153  0  2.447238  0  0  0.82453  0  2.40707  0  0  0.588853  0.745421  0  2.474418  0
H  H4  1  0.22669124  0.01390079  0.13862391  1  0  0.295514  0  0.904019  0  0  0.281213  0  0.975424  0  0  0.287274  0  0.969755  0  0  0.3088  0.276828  0  0.979437  0
H  H5  1  0.77331013  0.51389166  0.36137520  1  0  0.295578  0  0.903862  0  0  0.281226  0  0.975319  0  0  0.287285  0  0.969654  0  0  0.308782  0.276842  0  0.979329  0
H  H6  1  0.77331050  0.98610865  0.86137569  1  0  0.295512  0  0.903953  0  0  0.281192  0  0.975377  0  0  0.287253  0  0.969707  0  0  0.308772  0.276807  0  0.97939  0
H  H7  1  0.22667858  0.48610351  0.63862175  1  0  0.295572  0  0.903905  0  0  0.281232  0  0.975372  0  0  0.287291  0  0.969707  0  0  0.308796  0.276848  0  0.979385  0
H  H8  1  0.21696555  0.09614143  0.05260869  1  0  0.298386  0  0.932944  0  0  0.277314  0  1.010758  0  0  0.285139  0  1.003497  0  0  0.301858  0.271695  0  1.015874  0
H  H9  1  0.78302967  0.59613103  0.44739071  1  0  0.298173  0  0.933266  0  0  0.27725  0  1.010905  0  0  0.28508  0  1.003639  0  0  0.30182  0.271629  0  1.016018  0
H  H10  1  0.78303619  0.90386884  0.94739151  1  0  0.298186  0  0.933218  0  0  0.277257  0  1.010863  0  0  0.285084  0  1.003601  0  0  0.301828  0.271636  0  1.015976  0
H  H11  1  0.21696481  0.40386331  0.55260517  1  0  0.298244  0  0.933227  0  0  0.277283  0  1.010887  0  0  0.285111  0  1.003621  0  0  0.301837  0.271662  0  1.016003  0
H  H12  1  0.09355402  0.52758083  0.20213294  1  0  0.085767  0  0.930215  0  0  0.09346  0  0.995079  0  0  0.095615  0  0.992829  0  0  0.117113  0.091791  0  0.996834  0
H  H13  1  0.90642246  0.02757503  0.29786561  1  0  0.085745  0  0.930308  0  0  0.093443  0  0.995152  0  0  0.095598  0  0.992898  0  0  0.117098  0.091782  0  0.996902  0
H  H14  1  0.90643188  0.47243280  0.79787466  1  0  0.085795  0  0.930334  0  0  0.093565  0  0.995124  0  0  0.095721  0  0.99287  0  0  0.117137  0.091888  0  0.996892  0
H  H15  1  0.09357785  0.97241510  0.70213634  1  0  0.085759  0  0.930332  0  0  0.093401  0  0.995238  0  0  0.095554  0  0.992987  0  0  0.117106  0.091737  0  0.996988  0
H  H16  1  0.05438526  0.64493832  0.32731434  1  0  0.124114  0  0.954077  0  0  0.132135  0  1.013128  0  0  0.135693  0  1.012581  0  0  0.112478  0.129583  0  1.013681  0
H  H17  1  0.94560167  0.14493025  0.17268537  1  0  0.124002  0  0.954196  0  0  0.132107  0  1.01313  0  0  0.135655  0  1.012621  0  0  0.112465  0.129556  0  1.013682  0
H  H18  1  0.94560349  0.35508118  0.67268796  1  0  0.124049  0  0.954071  0  0  0.132084  0  1.013089  0  0  0.135637  0  1.012542  0  0  0.112493  0.129528  0  1.013662  0
H  H19  1  0.05440732  0.85505737  0.82731617  1  0  0.124014  0  0.954242  0  0  0.132132  0  1.013138  0  0  0.135673  0  1.012652  0  0  0.112484  0.129581  0  1.01369  0
H  H20  1  0.11611473  0.85202903  0.31779604  1  0  0.084153  0  0.96523  0  0  0.088633  0  1.03545  0  0  0.091418  0  1.032182  0  0  0.102689  0.086502  0  1.037924  0
H  H21  1  0.88388062  0.35202305  0.18220043  1  0  0.084046  0  0.965287  0  0  0.088554  0  1.035476  0  0  0.091333  0  1.032217  0  0  0.102607  0.086422  0  1.037947  0
H  H22  1  0.88388417  0.14798795  0.68220886  1  0  0.084143  0  0.965186  0  0  0.088689  0  1.035326  0  0  0.091472  0  1.032061  0  0  0.102696  0.086557  0  1.037799  0
H  H23  1  0.11611676  0.64796457  0.81779670  1  0  0.084182  0  0.965144  0  0  0.08856  0  1.035517  0  0  0.091338  0  1.032256  0  0  0.102667  0.086429  0  1.037987  0
H  H24  1  0.42385545  0.10412788  0.73087114  1  0  0.087777  0  0.941304  0  0  0.094397  0  1.006841  0  0  0.097275  0  1.003656  0  0  0.10708  0.092245  0  1.009173  0
H  H25  1  0.57616225  0.60412647  0.76912297  1  0  0.087872  0  0.941275  0  0  0.094489  0  1.006793  0  0  0.097364  0  1.003617  0  0  0.107154  0.092337  0  1.009124  0
H  H26  1  0.57615930  0.89586813  0.26912755  1  0  0.087834  0  0.941221  0  0  0.094452  0  1.006751  0  0  0.097326  0  1.003579  0  0  0.107142  0.0923  0  1.009082  0
H  H27  1  0.42384525  0.39586619  0.23087319  1  0  0.087868  0  0.941284  0  0  0.094488  0  1.006803  0  0  0.097368  0  1.003612  0  0  0.107124  0.092335  0  1.009136  0
H  H28  1  0.35018415  0.29699490  0.78683002  1  0  0.124949  0  0.932315  0  0  0.136113  0  0.985144  0  0  0.139926  0  0.984343  0  0  0.109464  0.133369  0  0.985955  0
H  H29  1  0.64982639  0.79698815  0.71316115  1  0  0.12502  0  0.932215  0  0  0.136177  0  0.985066  0  0  0.139993  0  0.984258  0  0  0.109452  0.133432  0  0.985878  0
H  H30  1  0.64981609  0.70300195  0.21316301  1  0  0.124939  0  0.932276  0  0  0.136115  0  0.985109  0  0  0.13993  0  0.984304  0  0  0.109435  0.13337  0  0.985919  0
H  H31  1  0.35019416  0.20300031  0.28683945  1  0  0.124976  0  0.932386  0  0  0.136137  0  0.985213  0  0  0.13995  0  0.98441  0  0  0.109448  0.133391  0  0.986021  0
H  H32  1  0.24661867  0.30509184  0.92890845  1  0  0.078405  0  0.975809  0  0  0.081525  0  1.050913  0  0  0.084025  0  1.048094  0  0  0.098223  0.079636  0  1.052968  0
H  H33  1  0.75337284  0.80508829  0.57107694  1  0  0.078489  0  0.9756  0  0  0.081669  0  1.050708  0  0  0.084174  0  1.047884  0  0  0.098226  0.079778  0  1.052764  0
H  H34  1  0.75338011  0.69491088  0.07108276  1  0  0.078466  0  0.975682  0  0  0.081556  0  1.050833  0  0  0.084058  0  1.048013  0  0  0.0982  0.079666  0  1.052887  0
H  H35  1  0.24664915  0.19490436  0.42892370  1  0  0.078471  0  0.975674  0  0  0.081662  0  1.050733  0  0  0.084166  0  1.047908  0  0  0.098218  0.07977  0  1.052788  0
C  C36  1  0.29736422  0.93493349  0.95960418  1  0  0.133544  0  3.70904  0  0  0.088948  0  3.996461  0  0  0.096827  0  4.009316  0  0  0.215769  0.083879  0  3.98766  0
C  C37  1  0.70263756  0.43492358  0.54039424  1  0  0.133551  0  3.709263  0  0  0.089007  0  3.996636  0  0  0.096883  0  4.009501  0  0  0.215792  0.083937  0  3.987833  0
C  C38  1  0.70262741  0.06507343  0.04039699  1  0  0.13335  0  3.709153  0  0  0.088919  0  3.996492  0  0  0.096798  0  4.009346  0  0  0.215804  0.083849  0  3.987691  0
C  C39  1  0.29736561  0.56507159  0.45960302  1  0  0.13326  0  3.709325  0  0  0.088747  0  3.996642  0  0  0.096619  0  4.009506  0  0  0.215726  0.083683  0  3.987837  0
C  C40  1  0.24059463  0.82450295  0.05941668  1  0  0.151946  0  3.725284  0  0  0.106912  0  3.990547  0  0  0.115933  0  4.006268  0  0  0.218817  0.101251  0  3.979704  0
C  C41  1  0.75940567  0.32449680  0.44058055  1  0  0.151965  0  3.725393  0  0  0.106825  0  3.990606  0  0  0.115841  0  4.006335  0  0  0.218796  0.101164  0  3.979762  0
C  C42  1  0.75940568  0.17550396  0.94058527  1  0  0.152098  0  3.72518  0  0  0.106877  0  3.990538  0  0  0.115898  0  4.006261  0  0  0.218812  0.101213  0  3.979697  0
C  C43  1  0.24059748  0.67549921  0.55941492  1  0  0.151961  0  3.725352  0  0  0.106886  0  3.990623  0  0  0.115904  0  4.006347  0  0  0.218761  0.101223  0  3.979784  0
C  C44  1  0.18758564  0.77771530  0.13500249  1  0  0.319585  0  3.823601  0  0  0.302804  0  4.082019  0  0  0.315944  0  4.096534  0  0  0.245886  0.293922  0  4.072246  0
C  C45  1  0.81242294  0.27770656  0.36499681  1  0  0.319164  0  3.823831  0  0  0.302799  0  4.081647  0  0  0.315937  0  4.096165  0  0  0.245823  0.293919  0  4.071873  0
C  C46  1  0.81242192  0.22229916  0.86500200  1  0  0.31913  0  3.823907  0  0  0.302852  0  4.081631  0  0  0.315991  0  4.096149  0  0  0.245918  0.293974  0  4.07186  0
C  C47  1  0.18758313  0.72228358  0.63500170  1  0  0.319408  0  3.823792  0  0  0.302753  0  4.082028  0  0  0.315893  0  4.096546  0  0  0.24586  0.293873  0  4.072257  0
C  C48  1  0.11412069  0.61831651  0.20348048  1  0  0.198499  0  3.655577  0  0  0.162761  0  3.912801  0  0  0.173345  0  3.927476  0  0  0.075041  0.155871  0  3.902928  0
C  C49  1  0.88586246  0.11830836  0.29651623  1  0  0.198482  0  3.65553  0  0  0.162771  0  3.912753  0  0  0.173361  0  3.927416  0  0  0.075036  0.15587  0  3.902902  0
C  C50  1  0.88587099  0.38169963  0.79652605  1  0  0.198561  0  3.655535  0  0  0.162711  0  3.912792  0  0  0.173301  0  3.927453  0  0  0.075137  0.155821  0  3.902947  0
C  C51  1  0.11415231  0.88168346  0.70348544  1  0  0.198417  0  3.655769  0  0  0.16273  0  3.913012  0  0  0.173322  0  3.927678  0  0  0.074992  0.155836  0  3.903151  0
C  C52  1  0.09161072  0.68277346  0.27141499  1  0  -0.149071  0  3.670586  0  0  -0.163474  0  3.924285  0  0  -0.172114  0  3.942565  0  0  -0.072756  -0.158172  0  3.912408  0
C  C53  1  0.90838693  0.18276963  0.22858368  1  0  -0.148891  0  3.67057  0  0  -0.163394  0  3.924272  0  0  -0.172045  0  3.942553  0  0  -0.072759  -0.158094  0  3.9124  0
C  C54  1  0.90838239  0.31724352  0.72859098  1  0  -0.148772  0  3.67047  0  0  -0.163148  0  3.92416  0  0  -0.171782  0  3.942438  0  0  -0.072694  -0.157849  0  3.912281  0
C  C55  1  0.09162061  0.81722219  0.77141724  1  0  -0.14881  0  3.670665  0  0  -0.163264  0  3.924277  0  0  -0.171917  0  3.942551  0  0  -0.072698  -0.157964  0  3.912401  0
C  C56  1  0.12535189  0.79770492  0.26587783  1  0  0.186636  0  3.661632  0  0  0.156088  0  3.923163  0  0  0.165469  0  3.93664  0  0  0.068841  0.150026  0  3.914129  0
C  C57  1  0.87464470  0.29770299  0.23412355  1  0  0.186628  0  3.661664  0  0  0.156055  0  3.923229  0  0  0.165442  0  3.936701  0  0  0.068962  0.149995  0  3.914187  0
C  C58  1  0.87464122  0.20231038  0.73412695  1  0  0.186347  0  3.661629  0  0  0.155718  0  3.923188  0  0  0.165105  0  3.936653  0  0  0.068741  0.14966  0  3.914151  0
C  C59  1  0.12535847  0.70228883  0.76587430  1  0  0.186535  0  3.661802  0  0  0.156034  0  3.923369  0  0  0.165423  0  3.936837  0  0  0.068888  0.149973  0  3.914333  0
C  C60  1  0.31085599  0.03522819  0.91010478  1  0  0.307898  0  3.830746  0  0  0.290812  0  4.100441  0  0  0.304106  0  4.112783  0  0  0.239086  0.28193  0  4.09199  0
C  C61  1  0.68913577  0.53521665  0.58989190  1  0  0.307746  0  3.830624  0  0  0.290756  0  4.100221  0  0  0.304037  0  4.112585  0  0  0.239149  0.281879  0  4.091765  0
C  C62  1  0.68914139  0.96477537  0.08989235  1  0  0.307945  0  3.830526  0  0  0.290859  0  4.100223  0  0  0.304152  0  4.112564  0  0  0.23916  0.281977  0  4.091774  0
C  C63  1  0.31086738  0.46477768  0.41010357  1  0  0.307978  0  3.830319  0  0  0.290949  0  4.099972  0  0  0.30424  0  4.112316  0  0  0.239209  0.282063  0  4.091526  0
C  C64  1  0.37863648  0.11516254  0.79173577  1  0  0.166639  0  3.694465  0  0  0.137641  0  3.958729  0  0  0.146747  0  3.973119  0  0  0.059812  0.131844  0  3.948914  0
C  C65  1  0.62138677  0.61515518  0.70826081  1  0  0.166567  0  3.694465  0  0  0.137587  0  3.9587  0  0  0.146689  0  3.973091  0  0  0.059828  0.131791  0  3.948886  0
C  C66  1  0.62136957  0.88483599  0.20826095  1  0  0.166549  0  3.694534  0  0  0.137579  0  3.958799  0  0  0.146681  0  3.973189  0  0  0.059729  0.131781  0  3.948983  0
C  C67  1  0.37861784  0.38483579  0.29173647  1  0  0.166414  0  3.69446  0  0  0.137442  0  3.958701  0  0  0.146547  0  3.973095  0  0  0.059727  0.131645  0  3.948882  0
C  C68  1  0.33636892  0.22096887  0.82190737  1  0  -0.175078  0  3.702495  0  0  -0.18765  0  3.953605  0  0  -0.198522  0  3.97672  0  0  -0.087911  -0.18072  0  3.938243  0
C  C69  1  0.66363315  0.72096636  0.67808199  1  0  -0.175298  0  3.702601  0  0  -0.187832  0  3.953688  0  0  -0.1987  0  3.976799  0  0  -0.087961  -0.180903  0  3.938324  0
C  C70  1  0.66362990  0.77902966  0.17808861  1  0  -0.175036  0  3.702482  0  0  -0.187639  0  3.953567  0  0  -0.198508  0  3.976678  0  0  -0.087851  -0.180709  0  3.938201  0
C  C71  1  0.33638159  0.27902545  0.32191610  1  0  -0.17512  0  3.702557  0  0  -0.187715  0  3.953634  0  0  -0.198584  0  3.976743  0  0  -0.087899  -0.180785  0  3.938267  0
C  C72  1  0.27985783  0.22594766  0.90011611  1  0  0.178466  0  3.68941  0  0  0.144223  0  3.95646  0  0  0.152956  0  3.972452  0  0  0.05461  0.138677  0  3.945654  0
C  C73  1  0.72012533  0.72594172  0.59987283  1  0  0.178598  0  3.689076  0  0  0.144247  0  3.956207  0  0  0.152978  0  3.972196  0  0  0.054714  0.138703  0  3.9454  0
C  C74  1  0.72013230  0.77405254  0.09987908  1  0  0.178338  0  3.689128  0  0  0.144153  0  3.956156  0  0  0.152886  0  3.972144  0  0  0.054634  0.138608  0  3.945348  0
C  C75  1  0.27988219  0.27405261  0.40012630  1  0  0.178395  0  3.689366  0  0  0.144143  0  3.956346  0  0  0.152875  0  3.972337  0  0  0.054675  0.1386  0  3.945535  0
N  N76  1  0.30181415  0.76245466  0.99925582  1  0  -0.2517  0  3.182354  0  0  -0.199323  0  3.47777  0  0  -0.214694  0  3.495693  0  0  -0.220679  -0.188745  0  3.465206  0
N  N77  1  0.69818854  0.26244831  0.50074299  1  0  -0.2516  0  3.182301  0  0  -0.199129  0  3.47763  0  0  -0.214501  0  3.495561  0  0  -0.220594  -0.188554  0  3.465068  0
N  N78  1  0.69818184  0.23754806  0.00074783  1  0  -0.251792  0  3.18245  0  0  -0.199336  0  3.477868  0  0  -0.214708  0  3.495796  0  0  -0.22071  -0.188761  0  3.465306  0
N  N79  1  0.30181174  0.73754854  0.49925420  1  0  -0.25165  0  3.18245  0  0  -0.199217  0  3.477818  0  0  -0.214587  0  3.495746  0  0  -0.220616  -0.188642  0  3.465257  0
N  N80  1  0.33643451  0.82961874  0.93744274  1  0  -0.188564  0  2.921842  0  0  -0.18687  0  3.216992  0  0  -0.190556  0  3.229639  0  0  -0.200629  -0.18416  0  3.20823  0
N  N81  1  0.66357394  0.32960903  0.56255783  1  0  -0.188644  0  2.921814  0  0  -0.186994  0  3.216935  0  0  -0.190682  0  3.229585  0  0  -0.20064  -0.184283  0  3.208175  0
N  N82  1  0.66355281  0.17038650  0.06256132  1  0  -0.188469  0  2.922002  0  0  -0.186817  0  3.217086  0  0  -0.190505  0  3.229736  0  0  -0.20054  -0.184107  0  3.208327  0
N  N83  1  0.33643069  0.67038615  0.43744124  1  0  -0.18844  0  2.921921  0  0  -0.186785  0  3.217035  0  0  -0.190473  0  3.229686  0  0  -0.200569  -0.184076  0  3.208274  0
N  N84  1  0.23872194  0.93438453  0.03690242  1  0  0.069405  0  3.553959  0  0  0.171775  0  3.743549  0  0  0.164499  0  3.765143  0  0  -0.118101  0.175612  0  3.72972  0
N  N85  1  0.76128031  0.43437406  0.46309759  1  0  0.069605  0  3.553831  0  0  0.171794  0  3.743681  0  0  0.164533  0  3.765252  0  0  -0.118135  0.17563  0  3.72985  0
N  N86  1  0.76127693  0.06562407  0.96309950  1  0  0.069677  0  3.553669  0  0  0.171755  0  3.743663  0  0  0.164476  0  3.765262  0  0  -0.118141  0.175592  0  3.729832  0
N  N87  1  0.23871707  0.56562027  0.53689895  1  0  0.069532  0  3.553995  0  0  0.171791  0  3.743731  0  0  0.16453  0  3.765303  0  0  -0.118132  0.175625  0  3.729902  0
N  N88  1  0.17374860  0.02397269  0.08090053  1  0  -0.488921  0  2.912729  0  0  -0.500609  0  3.154517  0  0  -0.516421  0  3.155916  0  0  -0.474918  -0.488553  0  3.15305  0
N  N89  1  0.82625111  0.52396293  0.41909852  1  0  -0.488924  0  2.912636  0  0  -0.500624  0  3.154352  0  0  -0.516445  0  3.155748  0  0  -0.474916  -0.488568  0  3.152884  0
N  N90  1  0.82625459  0.97603674  0.91909970  1  0  -0.488881  0  2.912681  0  0  -0.50057  0  3.154391  0  0  -0.51638  0  3.155787  0  0  -0.474888  -0.488513  0  3.152922  0
N  N91  1  0.17374336  0.47602972  0.58089617  1  0  -0.488871  0  2.912719  0  0  -0.500586  0  3.15446  0  0  -0.516404  0  3.155855  0  0  -0.474889  -0.488529  0  3.152995  0
N  N92  1  0.16337739  0.66549508  0.13524371  1  0  -0.378496  0  3.187135  0  0  -0.312548  0  3.444883  0  0  -0.333447  0  3.462645  0  0  -0.314032  -0.298507  0  3.432749  0
N  N93  1  0.83662065  0.16548532  0.36475560  1  0  -0.378337  0  3.187016  0  0  -0.312563  0  3.444659  0  0  -0.333458  0  3.462415  0  0  -0.313999  -0.298513  0  3.4325  0
N  N94  1  0.83662153  0.33452022  0.86476416  1  0  -0.37857  0  3.187163  0  0  -0.312753  0  3.444801  0  0  -0.333654  0  3.462562  0  0  -0.314192  -0.298693  0  3.432618  0
N  N95  1  0.16338400  0.83450566  0.63524526  1  0  -0.378408  0  3.187261  0  0  -0.312514  0  3.444951  0  0  -0.333411  0  3.462708  0  0  -0.313992  -0.298466  0  3.4328  0
N  N96  1  0.17145878  0.84653106  0.19739562  1  0  -0.367716  0  3.02053  0  0  -0.332597  0  3.284297  0  0  -0.34566  0  3.296169  0  0  -0.307274  -0.323896  0  3.276346  0
N  N97  1  0.82854105  0.34652666  0.30260393  1  0  -0.367501  0  3.020642  0  0  -0.332495  0  3.284245  0  0  -0.345558  0  3.296117  0  0  -0.307257  -0.323796  0  3.276289  0
N  N98  1  0.82854155  0.15347837  0.80260871  1  0  -0.367397  0  3.020489  0  0  -0.33242  0  3.284094  0  0  -0.345483  0  3.295964  0  0  -0.307226  -0.32372  0  3.276141  0
N  N99  1  0.17145923  0.65346683  0.69739445  1  0  -0.367694  0  3.020937  0  0  -0.332599  0  3.284625  0  0  -0.345662  0  3.296496  0  0  -0.307321  -0.323898  0  3.276672  0
N  N100  1  0.36904188  0.02151664  0.83571123  1  0  -0.364629  0  3.014095  0  0  -0.335055  0  3.285944  0  0  -0.347914  0  3.297317  0  0  -0.313418  -0.326447  0  3.278208  0
N  N101  1  0.63096031  0.52151276  0.66428630  1  0  -0.364564  0  3.01418  0  0  -0.335032  0  3.286006  0  0  -0.347891  0  3.297389  0  0  -0.313464  -0.326425  0  3.278269  0
N  N102  1  0.63095839  0.97848188  0.16428656  1  0  -0.364605  0  3.014117  0  0  -0.335055  0  3.285973  0  0  -0.347915  0  3.29735  0  0  -0.313418  -0.326447  0  3.278236  0
N  N103  1  0.36903559  0.47848073  0.33570663  1  0  -0.364564  0  3.014173  0  0  -0.335028  0  3.285999  0  0  -0.34789  0  3.297378  0  0  -0.313449  -0.326419  0  3.278261  0
N  N104  1  0.26437127  0.13304084  0.94427056  1  0  -0.3668  0  3.061888  0  0  -0.32847  0  3.326632  0  0  -0.341943  0  3.338511  0  0  -0.309232  -0.319573  0  3.318697  0
N  N105  1  0.73562267  0.63303246  0.55572476  1  0  -0.366818  0  3.061393  0  0  -0.328556  0  3.326227  0  0  -0.342029  0  3.338112  0  0  -0.309381  -0.319659  0  3.318288  0
N  N106  1  0.73562179  0.86696272  0.05572766  1  0  -0.366746  0  3.061689  0  0  -0.328485  0  3.3265  0  0  -0.341956  0  3.338376  0  0  -0.309347  -0.319587  0  3.318562  0
N  N107  1  0.26438339  0.36696188  0.44427256  1  0  -0.366766  0  3.061596  0  0  -0.328534  0  3.326402  0  0  -0.342009  0  3.338284  0  0  -0.309363  -0.319637  0  3.318464  0
Cl  Cl108  1  0.08665645  0.38352116  0.06147616  1  0  -0.555468  0  0.98263  0  0  -0.492193  0  1.254394  0  0  -0.510604  0  1.233672  0  0  -0.305627  -0.478817  0  1.268353  0
Cl  Cl109  1  0.91333825  0.88351570  0.43852439  1  0  -0.555469  0  0.982655  0  0  -0.49219  0  1.254428  0  0  -0.510624  0  1.233743  0  0  -0.305628  -0.478817  0  1.268391  0
Cl  Cl110  1  0.91333085  0.61648492  0.93852551  1  0  -0.555489  0  0.982617  0  0  -0.492192  0  1.254383  0  0  -0.510615  0  1.233686  0  0  -0.305646  -0.478818  0  1.268344  0
Cl  Cl111  1  0.08665193  0.11647360  0.56147556  1  0  -0.555437  0  0.982662  0  0  -0.492174  0  1.25445  0  0  -0.510609  0  1.23377  0  0  -0.305615  -0.478796  0  1.268411  0
Cl  Cl112  1  0.57135289  0.50211675  0.10710822  1  0  -0.550298  0  0.974271  0  0  -0.486158  0  1.249057  0  0  -0.504865  0  1.227604  0  0  -0.299863  -0.472532  0  1.263512  0
Cl  Cl113  1  0.42863721  0.00211408  0.39289484  1  0  -0.550297  0  0.974345  0  0  -0.486151  0  1.249131  0  0  -0.504849  0  1.22767  0  0  -0.299838  -0.472524  0  1.263585  0
Cl  Cl114  1  0.42863154  0.49788597  0.89289637  1  0  -0.550286  0  0.974274  0  0  -0.486121  0  1.24902  0  0  -0.504823  0  1.227563  0  0  -0.299826  -0.472498  0  1.263475  0
Cl  Cl115  1  0.57136597  0.99787858  0.60710420  1  0  -0.55032  0  0.97434  0  0  -0.486163  0  1.249112  0  0  -0.504867  0  1.227657  0  0  -0.299841  -0.472537  0  1.263569  0
