# generated using pymatgen
data_CuH7C7N2O
_symmetry_space_group_name_H-M   'P 1'
_cell_length_a   9.02575281
_cell_length_b   9.02569423
_cell_length_c   9.92164864
_cell_angle_alpha   104.38050818
_cell_angle_beta   104.38086163
_cell_angle_gamma   109.31524049
_symmetry_Int_Tables_number   1
_chemical_formula_structural   CuH7C7N2O
_chemical_formula_sum   'Cu4 H28 C28 N8 O4'
_cell_volume   688.87689182
_cell_formula_units_Z   4
loop_
 _symmetry_equiv_pos_site_id
 _symmetry_equiv_pos_as_xyz
  1  'x, y, z'
loop_
 _atom_site_type_symbol
 _atom_site_label
 _atom_site_symmetry_multiplicity
 _atom_site_fract_x
 _atom_site_fract_y
 _atom_site_fract_z
 _atom_site_occupancy
 _atom_site_pbe_bader_spin_density
 _atom_site_pbe_cm5_charge
 _atom_site_pbe_ddec_charge
 _atom_site_pbe_ddec_spin_density
 _atom_site_pbe_ddec_sum_bond_order
 _atom_site_pbe_magmom
Cu  Cu0  1  0.04914982  0.95085275  0.24999981  1  0  0.505877  0.350442  0  2.277319  0
Cu  Cu1  1  0.95085259  0.04915094  0.74999894  1  0  0.505899  0.350455  0  2.277305  0
Cu  Cu2  1  0.88285288  0.11714482  0.24999859  1  0  0.461085  0.241599  0  2.354353  0
Cu  Cu3  1  0.11714858  0.88285383  0.75000080  1  0  0.461083  0.241574  0  2.354355  0
H  H4  1  0.36180694  0.01418915  0.43946138  1  0  0.118392  0.098745  0  1.008486  0
H  H5  1  0.98582072  0.63819560  0.06054025  1  0  0.118398  0.098741  0  1.008452  0
H  H6  1  0.63819379  0.98581326  0.56053770  1  0  0.118405  0.098774  0  1.008553  0
H  H7  1  0.01418242  0.36180433  0.93945780  1  0  0.118418  0.098801  0  1.008477  0
H  H8  1  0.54887676  0.17689737  0.70883254  1  0  0.102528  0.119925  0  1.057892  0
H  H9  1  0.82310684  0.45112300  0.79117085  1  0  0.102499  0.119881  0  1.057969  0
H  H10  1  0.45112355  0.82310127  0.29116760  1  0  0.102532  0.119909  0  1.05794  0
H  H11  1  0.17689118  0.54887562  0.20882775  1  0  0.102512  0.119878  0  1.057975  0
H  H12  1  0.46411888  0.37989981  0.86316309  1  0  0.103796  0.10091  0  0.990323  0
H  H13  1  0.62010596  0.53587793  0.63684401  1  0  0.103748  0.100882  0  0.990519  0
H  H14  1  0.53588139  0.62009878  0.13684207  1  0  0.103782  0.100862  0  0.990414  0
H  H15  1  0.37988987  0.46411816  0.36315451  1  0  0.103752  0.100914  0  0.990456  0
H  H16  1  0.19913367  0.40178272  0.74623311  1  0  0.106789  0.129552  0  1.033113  0
H  H17  1  0.59821731  0.80086027  0.75376495  1  0  0.106785  0.129583  0  1.033048  0
H  H18  1  0.80086482  0.59821711  0.25377192  1  0  0.106812  0.129615  0  1.033066  0
H  H19  1  0.40178081  0.19913583  0.24623510  1  0  0.106781  0.129565  0  1.033065  0
H  H20  1  0.65715284  0.28602283  0.50978139  1  0  0.093916  0.144456  0  1.025146  0
H  H21  1  0.71397932  0.34284859  0.99021888  1  0  0.093901  0.144432  0  1.02517  0
H  H22  1  0.34284726  0.71398084  0.49021784  1  0  0.093903  0.144442  0  1.025182  0
H  H23  1  0.28602764  0.65715511  0.00978494  1  0  0.093922  0.144449  0  1.025108  0
H  H24  1  0.68081052  0.19666296  0.33809997  1  0  0.085023  0.131138  0  1.049898  0
H  H25  1  0.80333793  0.31918514  0.16189850  1  0  0.085023  0.131123  0  1.049901  0
H  H26  1  0.31918948  0.80334322  0.66189880  1  0  0.08502  0.131126  0  1.049932  0
H  H27  1  0.19666968  0.68081732  0.83810317  1  0  0.085026  0.131139  0  1.049959  0
H  H28  1  0.79025495  0.41724107  0.44095739  1  0  0.096815  0.157947  0  0.994342  0
H  H29  1  0.58276249  0.20974471  0.05904223  1  0  0.096832  0.15796  0  0.994324  0
H  H30  1  0.20974733  0.58276511  0.55904392  1  0  0.096826  0.157967  0  0.994366  0
H  H31  1  0.41724436  0.79026149  0.94096215  1  0  0.09679  0.157912  0  0.994396  0
C  C32  1  0.33099981  0.10037427  0.51384966  1  0  0.030395  0.08648  0  3.944291  0
C  C33  1  0.89963245  0.66900354  0.98615261  1  0  0.030414  0.086566  0  3.944292  0
C  C34  1  0.66900193  0.89963064  0.48615325  1  0  0.03041  0.086486  0  3.944286  0
C  C35  1  0.10036434  0.33099760  0.01384326  1  0  0.030397  0.086461  0  3.94426  0
C  C36  1  0.43460734  0.19228958  0.66156522  1  0  -0.103684  -0.170134  0  4.014373  0
C  C37  1  0.80771647  0.56539304  0.83843827  1  0  -0.103657  -0.170103  0  4.014439  0
C  C38  1  0.56539463  0.80771032  0.33843659  1  0  -0.10368  -0.170134  0  4.014478  0
C  C39  1  0.19228269  0.43460559  0.16156059  1  0  -0.103646  -0.170056  0  4.014383  0
C  C40  1  0.38599471  0.30301452  0.74664230  1  0  -0.077366  -0.018817  0  4.023727  0
C  C41  1  0.69698615  0.61399676  0.75335535  1  0  -0.077391  -0.018928  0  4.02378  0
C  C42  1  0.61399985  0.69698406  0.25335752  1  0  -0.077367  -0.018759  0  4.023688  0
C  C43  1  0.30301197  0.38599935  0.24664370  1  0  -0.07738  -0.018938  0  4.023731  0
C  C44  1  0.23841580  0.31610718  0.68235316  1  0  -0.09886  -0.230929  0  3.968169  0
C  C45  1  0.68389251  0.76158610  0.81764609  1  0  -0.098764  -0.23076  0  3.967861  0
C  C46  1  0.76158689  0.68388894  0.31764997  1  0  -0.09885  -0.230936  0  3.967971  0
C  C47  1  0.31610208  0.23841251  0.18234970  1  0  -0.098787  -0.230806  0  3.968002  0
C  C48  1  0.13425534  0.21419089  0.53234288  1  0  0.20826  0.373534  0  4.016402  0
C  C49  1  0.78581434  0.86575027  0.96766050  1  0  0.2082  0.373425  0  4.016489  0
C  C50  1  0.86574662  0.78580900  0.46765994  1  0  0.208251  0.373453  0  4.01642  0
C  C51  1  0.21418586  0.13425088  0.03233918  1  0  0.208181  0.373366  0  4.016692  0
C  C52  1  0.89351999  0.26867777  0.53921207  1  0  0.219336  0.570871  0  4.053545  0
C  C53  1  0.73131790  0.10647873  0.96078295  1  0  0.219391  0.570858  0  4.053588  0
C  C54  1  0.10647675  0.73132333  0.46078982  1  0  0.219375  0.570862  0  4.053637  0
C  C55  1  0.26868180  0.89352117  0.03921532  1  0  0.219374  0.570843  0  4.053579  0
C  C56  1  0.74598428  0.29281359  0.45126982  1  0  -0.248813  -0.505244  0  3.887893  0
C  C57  1  0.70718477  0.25401310  0.04872634  1  0  -0.248794  -0.505201  0  3.887896  0
C  C58  1  0.25401593  0.70718756  0.54872885  1  0  -0.248791  -0.505234  0  3.887981  0
C  C59  1  0.29281940  0.74598934  0.95127354  1  0  -0.248771  -0.505176  0  3.887951  0
N  N60  1  0.18352124  0.10761054  0.44994120  1  0  -0.380704  -0.286012  0  3.630706  0
N  N61  1  0.89239291  0.81647657  0.05005693  1  0  -0.380707  -0.286063  0  3.630791  0
N  N62  1  0.81647780  0.89239059  0.55006023  1  0  -0.380734  -0.286026  0  3.630733  0
N  N63  1  0.10760856  0.18352208  0.94994146  1  0  -0.380731  -0.285981  0  3.630781  0
N  N64  1  0.98429566  0.21971246  0.45981287  1  0  -0.437755  -0.489943  0  3.633551  0
N  N65  1  0.78028689  0.01569859  0.04018390  1  0  -0.437758  -0.489937  0  3.633679  0
N  N66  1  0.01570466  0.78028618  0.54018626  1  0  -0.437774  -0.489878  0  3.633667  0
N  N67  1  0.21971228  0.98430005  0.95981396  1  0  -0.43774  -0.489908  0  3.633643  0
O  O68  1  0.92207544  0.29074496  0.67482910  1  0  -0.301555  -0.508516  0  2.223897  0
O  O69  1  0.70924474  0.07791717  0.82516619  1  0  -0.3016  -0.50848  0  2.223912  0
O  O70  1  0.07791977  0.70925238  0.32516856  1  0  -0.3016  -0.50853  0  2.223866  0
O  O71  1  0.29075098  0.92208143  0.17483288  1  0  -0.301596  -0.508471  0  2.223927  0
