# generated using pymatgen
data_BaH18C10SN2O9
_symmetry_space_group_name_H-M   'P 1'
_cell_length_a   6.69242586
_cell_length_b   10.75024487
_cell_length_c   13.14417944
_cell_angle_alpha   77.73654893
_cell_angle_beta   75.11748884
_cell_angle_gamma   73.50722986
_symmetry_Int_Tables_number   1
_chemical_formula_structural   BaH18C10SN2O9
_chemical_formula_sum   'Ba2 H36 C20 S2 N4 O18'
_cell_volume   866.34962299
_cell_formula_units_Z   2
loop_
 _symmetry_equiv_pos_site_id
 _symmetry_equiv_pos_as_xyz
  1  'x, y, z'
loop_
 _atom_site_type_symbol
 _atom_site_label
 _atom_site_symmetry_multiplicity
 _atom_site_fract_x
 _atom_site_fract_y
 _atom_site_fract_z
 _atom_site_occupancy
 _atom_site_hle17_bader_spin_density
 _atom_site_hle17_ddec_charge
 _atom_site_hle17_ddec_spin_density
 _atom_site_hle17_ddec_sum_bond_order
 _atom_site_hle17_magmom
 _atom_site_hse06_10hf_bader_spin_density
 _atom_site_hse06_10hf_ddec_charge
 _atom_site_hse06_10hf_ddec_spin_density
 _atom_site_hse06_10hf_ddec_sum_bond_order
 _atom_site_hse06_10hf_magmom
 _atom_site_hse06_bader_spin_density
 _atom_site_hse06_ddec_charge
 _atom_site_hse06_ddec_spin_density
 _atom_site_hse06_ddec_sum_bond_order
 _atom_site_hse06_magmom
 _atom_site_pbe_bader_spin_density
 _atom_site_pbe_cm5_charge
 _atom_site_pbe_ddec_charge
 _atom_site_pbe_ddec_spin_density
 _atom_site_pbe_ddec_sum_bond_order
 _atom_site_pbe_magmom
Ba  Ba0  1  0.66873018  0.68265666  0.22675830  1  0  1.645175  0  1.079057  0  0  1.4943  0  1.467364  0  0  1.532331  0  1.422984  0  0  0.934963  1.466405  0  1.498731  0
Ba  Ba1  1  0.33127132  0.31734017  0.77324712  1  0  1.645131  0  1.079126  0  0  1.494292  0  1.467376  0  0  1.532321  0  1.422997  0  0  0.934972  1.466399  0  1.498744  0
H  H2  1  0.89947237  0.93726446  0.53939890  1  0  0.098563  0  0.949375  0  0  0.11165  0  1.006765  0  0  0.114132  0  1.004753  0  0  0.109626  0.109786  0  1.008235  0
H  H3  1  0.10051445  0.06273797  0.46060126  1  0  0.098637  0  0.949438  0  0  0.111686  0  1.006862  0  0  0.114165  0  1.004854  0  0  0.109653  0.10983  0  1.008321  0
H  H4  1  0.78555162  0.13271297  0.63005838  1  0  0.111588  0  0.971836  0  0  0.122151  0  1.032106  0  0  0.125654  0  1.031257  0  0  0.110713  0.119576  0  1.033095  0
H  H5  1  0.21443867  0.86728853  0.36994228  1  0  0.111574  0  0.971902  0  0  0.122127  0  1.032176  0  0  0.125653  0  1.031297  0  0  0.110709  0.119551  0  1.033163  0
H  H6  1  0.92075834  0.68699167  0.84169072  1  0  0.116677  0  0.935964  0  0  0.125632  0  0.995759  0  0  0.130215  0  0.991174  0  0  0.117171  0.122397  0  0.998921  0
H  H7  1  0.07922127  0.31300572  0.15830908  1  0  0.116694  0  0.935977  0  0  0.125679  0  0.995735  0  0  0.13026  0  0.991152  0  0  0.117163  0.122446  0  0.998897  0
H  H8  1  0.81199750  0.20381422  0.02599100  1  0  0.134365  0  0.948017  0  0  0.154369  0  1.00722  0  0  0.156599  0  1.006369  0  0  0.105697  0.152756  0  1.007874  0
H  H9  1  0.18801422  0.79618026  0.97399983  1  0  0.134295  0  0.947897  0  0  0.154302  0  1.007133  0  0  0.156534  0  1.006281  0  0  0.105677  0.152689  0  1.007783  0
H  H10  1  0.65651313  0.27740435  0.13930698  1  0  0.13772  0  0.935212  0  0  0.162127  0  0.986666  0  0  0.164024  0  0.985885  0  0  0.103169  0.160659  0  0.987398  0
H  H11  1  0.34350420  0.72259908  0.86068291  1  0  0.13771  0  0.93519  0  0  0.162185  0  0.986549  0  0  0.164065  0  0.985802  0  0  0.103187  0.160717  0  0.987281  0
H  H12  1  0.53162161  0.22551407  0.05693677  1  0  0.11993  0  0.976773  0  0  0.137601  0  1.045458  0  0  0.139642  0  1.044422  0  0  0.102404  0.136003  0  1.046482  0
H  H13  1  0.46838653  0.77448536  0.94305510  1  0  0.119928  0  0.976892  0  0  0.137571  0  1.045605  0  0  0.139614  0  1.04457  0  0  0.102365  0.135973  0  1.04663  0
H  H14  1  0.66828529  0.96355234  0.32093330  1  0  0.12366  0  0.958404  0  0  0.141656  0  1.021091  0  0  0.143991  0  1.019645  0  0  0.101472  0.1399  0  1.022244  0
H  H15  1  0.33170033  0.03645675  0.67905889  1  0  0.123749  0  0.958316  0  0  0.141675  0  1.021059  0  0  0.14401  0  1.019614  0  0  0.101483  0.139921  0  1.02221  0
H  H16  1  0.50577096  0.12712735  0.30723815  1  0  0.127526  0  0.952917  0  0  0.148123  0  1.010416  0  0  0.148878  0  1.011607  0  0  0.095577  0.147481  0  1.0097  0
H  H17  1  0.49422250  0.87287395  0.69275528  1  0  0.127573  0  0.95286  0  0  0.148166  0  1.010344  0  0  0.148923  0  1.011533  0  0  0.095572  0.147524  0  1.009627  0
H  H18  1  0.78186504  0.10230142  0.29365138  1  0  0.117848  0  0.990626  0  0  0.136271  0  1.054047  0  0  0.13589  0  1.057668  0  0  0.091056  0.136424  0  1.051652  0
H  H19  1  0.21812729  0.89769510  0.70634768  1  0  0.117903  0  0.990538  0  0  0.136324  0  1.053949  0  0  0.13594  0  1.057575  0  0  0.091093  0.136478  0  1.05155  0
H  H20  1  0.72908970  0.06149995  0.96295953  1  0  0.281753  0  0.958294  0  0  0.258417  0  1.030319  0  0  0.267842  0  1.023321  0  0  0.306904  0.251745  0  1.035239  0
H  H21  1  0.27090767  0.93849562  0.03703906  1  0  0.281766  0  0.958273  0  0  0.258428  0  1.030302  0  0  0.267857  0  1.0233  0  0  0.306886  0.251754  0  1.035222  0
H  H22  1  0.15327309  0.63620459  0.26736189  1  0  0.408064  0  0.902591  0  0  0.38066  0  0.961108  0  0  0.391474  0  0.945346  0  0  0.293931  0.37306  0  0.972116  0
H  H23  1  0.84672522  0.36379622  0.73264546  1  0  0.408206  0  0.902396  0  0  0.380791  0  0.960929  0  0  0.391603  0  0.94517  0  0  0.293978  0.373189  0  0.971941  0
H  H24  1  0.14394046  0.76406125  0.18576904  1  0  0.412186  0  0.90179  0  0  0.379584  0  0.969608  0  0  0.390485  0  0.953863  0  0  0.292502  0.372243  0  0.980197  0
H  H25  1  0.85606761  0.23593463  0.81423570  1  0  0.412108  0  0.901868  0  0  0.379533  0  0.969654  0  0  0.390426  0  0.953912  0  0  0.292477  0.372193  0  0.980243  0
H  H26  1  0.68806584  0.71867786  0.47857349  1  0  0.436404  0  0.857178  0  0  0.408207  0  0.914706  0  0  0.418413  0  0.899668  0  0  0.296011  0.40094  0  0.925407  0
H  H27  1  0.31195028  0.28132474  0.52142205  1  0  0.43649  0  0.85706  0  0  0.4083  0  0.914576  0  0  0.418506  0  0.899536  0  0  0.296074  0.401031  0  0.925281  0
H  H28  1  0.45030704  0.73254636  0.47793507  1  0  0.431339  0  0.859932  0  0  0.403861  0  0.917256  0  0  0.413605  0  0.902806  0  0  0.300387  0.396937  0  0.92752  0
H  H29  1  0.54970267  0.26746808  0.52206130  1  0  0.431238  0  0.860101  0  0  0.403743  0  0.917456  0  0  0.413491  0  0.902999  0  0  0.30037  0.396822  0  0.927716  0
H  H30  1  0.26149038  0.60912892  0.42150211  1  0  0.418366  0  0.88853  0  0  0.386282  0  0.954417  0  0  0.396783  0  0.938886  0  0  0.296418  0.378808  0  0.965464  0
H  H31  1  0.73851332  0.39087009  0.57850869  1  0  0.418529  0  0.888316  0  0  0.386435  0  0.954218  0  0  0.396934  0  0.938688  0  0  0.296509  0.378961  0  0.965266  0
H  H32  1  0.28717627  0.48256846  0.37314396  1  0  0.436006  0  0.858899  0  0  0.407377  0  0.916985  0  0  0.417573  0  0.902074  0  0  0.302912  0.40005  0  0.927695  0
H  H33  1  0.71282592  0.51743043  0.62686401  1  0  0.435997  0  0.858897  0  0  0.40737  0  0.916979  0  0  0.417566  0  0.902068  0  0  0.30291  0.400043  0  0.927689  0
H  H34  1  0.34912420  0.58985181  0.12906302  1  0  0.418873  0  0.879601  0  0  0.391584  0  0.937647  0  0  0.402662  0  0.921309  0  0  0.29661  0.38361  0  0.949385  0
H  H35  1  0.65087883  0.41014505  0.87094295  1  0  0.418855  0  0.879622  0  0  0.391565  0  0.937669  0  0  0.402644  0  0.92133  0  0  0.29661  0.383592  0  0.949404  0
H  H36  1  0.54854884  0.57970084  0.03424636  1  0  0.416847  0  0.849248  0  0  0.396399  0  0.910472  0  0  0.404937  0  0.897816  0  0  0.31436  0.390094  0  0.919884  0
H  H37  1  0.45145330  0.42030194  0.96575935  1  0  0.416725  0  0.849312  0  0  0.396306  0  0.910563  0  0  0.404839  0  0.897917  0  0  0.314314  0.390002  0  0.919974  0
C  C38  1  0.92133680  0.79991302  0.68484348  1  0  -0.188133  0  3.825449  0  0  -0.163295  0  4.086981  0  0  -0.175834  0  4.109261  0  0  -0.041369  -0.155426  0  4.072021  0
C  C39  1  0.07865243  0.20008727  0.31515070  1  0  -0.188037  0  3.825295  0  0  -0.163134  0  4.086746  0  0  -0.17567  0  4.109027  0  0  -0.041277  -0.155267  0  4.071789  0
C  C40  1  0.87901724  0.92614877  0.62547782  1  0  -0.023764  0  3.777074  0  0  -0.05339  0  4.030199  0  0  -0.046234  0  4.046186  0  0  -0.07978  -0.0576  0  4.019286  0
C  C41  1  0.12097581  0.07384980  0.37452304  1  0  -0.023868  0  3.77711  0  0  -0.053503  0  4.030229  0  0  -0.046351  0  4.046224  0  0  -0.079831  -0.057717  0  4.019311  0
C  C42  1  0.81191647  0.03499577  0.67664222  1  0  -0.209063  0  3.711908  0  0  -0.222125  0  3.965837  0  0  -0.232206  0  3.984691  0  0  -0.099284  -0.215825  0  3.953348  0
C  C43  1  0.18807205  0.96499876  0.32335773  1  0  -0.209082  0  3.711741  0  0  -0.222105  0  3.965681  0  0  -0.2322  0  3.984519  0  0  -0.099257  -0.215805  0  3.953192  0
C  C44  1  0.77683675  0.02398460  0.78932655  1  0  0.367288  0  3.854367  0  0  0.346432  0  4.114086  0  0  0.366066  0  4.12661  0  0  0.09839  0.333704  0  4.105106  0
C  C45  1  0.22315391  0.97601978  0.21067122  1  0  0.367421  0  3.854065  0  0  0.346505  0  4.113885  0  0  0.366136  0  4.126414  0  0  0.09836  0.333776  0  4.104903  0
C  C46  1  0.81628128  0.89377687  0.84845921  1  0  -0.202291  0  3.727202  0  0  -0.17904  0  3.967491  0  0  -0.194401  0  3.990907  0  0  -0.033616  -0.169252  0  3.951837  0
C  C47  1  0.18371495  0.10621771  0.15153972  1  0  -0.202254  0  3.727022  0  0  -0.179032  0  3.967306  0  0  -0.194389  0  3.99072  0  0  -0.033647  -0.169247  0  3.951651  0
C  C48  1  0.88855861  0.78439700  0.79491942  1  0  -0.041225  0  3.750668  0  0  -0.077626  0  4.000179  0  0  -0.070087  0  4.016564  0  0  -0.076447  -0.082164  0  3.988875  0
C  C49  1  0.11141939  0.21560431  0.20507984  1  0  -0.041304  0  3.750542  0  0  -0.077759  0  4.000096  0  0  -0.070223  0  4.016481  0  0  -0.076429  -0.0823  0  3.988798  0
C  C50  1  0.78670680  0.86600016  0.96583034  1  0  0.533384  0  3.852546  0  0  0.480079  0  4.147275  0  0  0.511294  0  4.146012  0  0  0.236306  0.45901  0  4.147619  0
C  C51  1  0.21328921  0.13400625  0.03416710  1  0  0.533139  0  3.852951  0  0  0.479982  0  4.147454  0  0  0.511187  0  4.146207  0  0  0.236217  0.458929  0  4.147776  0
C  C52  1  0.69177719  0.06850822  0.16002878  1  0  0.357681  0  3.656634  0  0  0.366125  0  3.927354  0  0  0.376848  0  3.943422  0  0  0.14596  0.358765  0  3.916439  0
C  C53  1  0.30822240  0.93149325  0.83996762  1  0  0.357751  0  3.656582  0  0  0.366074  0  3.927428  0  0  0.376794  0  3.943497  0  0  0.145987  0.358715  0  3.916516  0
C  C54  1  0.67327358  0.20092470  0.09221130  1  0  -0.405698  0  3.668222  0  0  -0.484586  0  3.900524  0  0  -0.488562  0  3.906755  0  0  -0.240138  -0.481546  0  3.896369  0
C  C55  1  0.32673419  0.79907187  0.90778421  1  0  -0.405616  0  3.668037  0  0  -0.484528  0  3.900377  0  0  -0.488502  0  3.906647  0  0  -0.240124  -0.481487  0  3.896218  0
C  C56  1  0.66091889  0.06290497  0.27711063  1  0  -0.392005  0  3.70544  0  0  -0.467931  0  3.932766  0  0  -0.472758  0  3.943374  0  0  -0.237891  -0.464241  0  3.925536  0
C  C57  1  0.33906709  0.93710323  0.72288473  1  0  -0.392241  0  3.705263  0  0  -0.468069  0  3.932684  0  0  -0.472895  0  3.943294  0  0  -0.237965  -0.46438  0  3.925451  0
S  S58  1  0.01348732  0.66309488  0.61742326  1  0  1.35769  0  5.61667  0  0  1.250513  0  6.146058  0  0  1.299102  0  6.121735  0  0  0.537532  1.217306  0  6.161301  0
S  S59  1  0.98651877  0.33690582  0.38257777  1  0  1.357823  0  5.616291  0  0  1.250618  0  6.145672  0  0  1.299203  0  6.121345  0  0  0.537569  1.217424  0  6.160914  0
N  N60  1  0.75202334  0.97201782  0.01415760  1  0  -0.295175  0  3.42677  0  0  -0.240096  0  3.68761  0  0  -0.260389  0  3.70102  0  0  -0.300066  -0.226241  0  3.678184  0
N  N61  1  0.24797396  0.02798166  0.98583948  1  0  -0.295074  0  3.426633  0  0  -0.240032  0  3.687404  0  0  -0.260296  0  3.700743  0  0  -0.299982  -0.226173  0  3.677966  0
N  N62  1  0.72788132  0.95976518  0.12258470  1  0  -0.287728  0  3.037293  0  0  -0.273132  0  3.318359  0  0  -0.282407  0  3.334489  0  0  -0.246103  -0.266905  0  3.307581  0
N  N63  1  0.27211869  0.04023525  0.87741032  1  0  -0.287859  0  3.037398  0  0  -0.27321  0  3.318491  0  0  -0.282483  0  3.334624  0  0  -0.246162  -0.266988  0  3.307717  0
O  O64  1  0.18076767  0.69578734  0.52525662  1  0  -0.701852  0  2.010324  0  0  -0.638373  0  2.251444  0  0  -0.660272  0  2.23408  0  0  -0.326138  -0.622779  0  2.262838  0
O  O65  1  0.81925190  0.30420690  0.47475454  1  0  -0.701972  0  2.010248  0  0  -0.63845  0  2.251354  0  0  -0.660345  0  2.233984  0  0  -0.326168  -0.622877  0  2.262762  0
O  O66  1  0.82977629  0.64917457  0.58101179  1  0  -0.704655  0  1.992192  0  0  -0.642475  0  2.228271  0  0  -0.664306  0  2.210441  0  0  -0.333186  -0.626925  0  2.240111  0
O  O67  1  0.17024697  0.35081817  0.41898243  1  0  -0.704741  0  1.991946  0  0  -0.642571  0  2.228042  0  0  -0.664402  0  2.210212  0  0  -0.333206  -0.627018  0  2.23988  0
O  O68  1  0.09167241  0.54973948  0.69321077  1  0  -0.72152  0  1.990401  0  0  -0.661372  0  2.250874  0  0  -0.68414  0  2.235009  0  0  -0.385031  -0.645184  0  2.26055  0
O  O69  1  0.90832474  0.45026041  0.30679919  1  0  -0.721494  0  1.990501  0  0  -0.66135  0  2.251003  0  0  -0.684116  0  2.235142  0  0  -0.385023  -0.645159  0  2.260676  0
O  O70  1  0.70656679  0.13003414  0.83550645  1  0  -0.688157  0  2.049728  0  0  -0.624247  0  2.284738  0  0  -0.649624  0  2.279328  0  0  -0.362636  -0.606503  0  2.287508  0
O  O71  1  0.29343860  0.86996448  0.16449202  1  0  -0.688294  0  2.049463  0  0  -0.624349  0  2.284509  0  0  -0.649731  0  2.279103  0  0  -0.362666  -0.606611  0  2.287295  0
O  O72  1  0.79688686  0.75125883  0.01578435  1  0  -0.648455  0  1.973289  0  0  -0.593165  0  2.210789  0  0  -0.61701  0  2.201665  0  0  -0.368709  -0.5764  0  2.21666  0
O  O73  1  0.20311715  0.24873184  0.98421356  1  0  -0.648247  0  1.973696  0  0  -0.593034  0  2.211155  0  0  -0.616874  0  2.202033  0  0  -0.368608  -0.576278  0  2.217019  0
O  O74  1  0.09496468  0.68056503  0.20235460  1  0  -0.888029  0  1.85305  0  0  -0.828265  0  2.021679  0  0  -0.850633  0  1.990439  0  0  -0.620283  -0.812387  0  2.042698  0
O  O75  1  0.90503714  0.31943478  0.79765096  1  0  -0.888074  0  1.852988  0  0  -0.828335  0  2.0216  0  0  -0.850692  0  1.990386  0  0  -0.620293  -0.812458  0  2.042619  0
O  O76  1  0.58550017  0.74545738  0.43102948  1  0  -0.892199  0  1.742991  0  0  -0.837246  0  1.900192  0  0  -0.856547  0  1.870386  0  0  -0.633238  -0.82352  0  1.921187  0
O  O77  1  0.41451380  0.25455421  0.56896917  1  0  -0.892202  0  1.743061  0  0  -0.837251  0  1.900262  0  0  -0.856551  0  1.870452  0  0  -0.633311  -0.823524  0  1.921253  0
O  O78  1  0.32097359  0.56979516  0.35475219  1  0  -0.872775  0  1.821179  0  0  -0.810581  0  1.983486  0  0  -0.831792  0  1.952906  0  0  -0.600043  -0.795524  0  2.005138  0
O  O79  1  0.67902122  0.43020664  0.64525618  1  0  -0.872886  0  1.820949  0  0  -0.810685  0  1.98326  0  0  -0.831894  0  1.952683  0  0  -0.600095  -0.795623  0  2.004912  0
O  O80  1  0.50453083  0.54904435  0.10987646  1  0  -0.846175  0  1.756993  0  0  -0.792423  0  1.905485  0  0  -0.811212  0  1.876706  0  0  -0.606121  -0.779206  0  1.926356  0
O  O81  1  0.49547376  0.45095245  0.89012703  1  0  -0.846029  0  1.757051  0  0  -0.792296  0  1.905617  0  0  -0.811085  0  1.87684  0  0  -0.606082  -0.77908  0  1.926485  0
