# generated using pymatgen
data_ZnH15C11N2ClO2
_symmetry_space_group_name_H-M   'P 1'
_cell_length_a   10.52511166
_cell_length_b   17.58750171
_cell_length_c   17.58794458
_cell_angle_alpha   119.99790815
_cell_angle_beta   89.99994566
_cell_angle_gamma   90.00002201
_symmetry_Int_Tables_number   1
_chemical_formula_structural   ZnH15C11N2ClO2
_chemical_formula_sum   'Zn6 H90 C66 N12 Cl6 O12'
_cell_volume   2819.58855442
_cell_formula_units_Z   6
loop_
 _symmetry_equiv_pos_site_id
 _symmetry_equiv_pos_as_xyz
  1  'x, y, z'
loop_
 _atom_site_type_symbol
 _atom_site_label
 _atom_site_symmetry_multiplicity
 _atom_site_fract_x
 _atom_site_fract_y
 _atom_site_fract_z
 _atom_site_occupancy
 _atom_site_pbe_bader_charge
 _atom_site_pbe_bader_spin_density
 _atom_site_pbe_cm5_charge
 _atom_site_pbe_ddec_charge
 _atom_site_pbe_ddec_spin_density
 _atom_site_pbe_ddec_sum_bond_order
 _atom_site_pbe_magmom
Zn  Zn0  1  0.87843399  0.07619277  0.53579497  1  1.20042  0  0.613923  0.719962  0  2.481317  0
Zn  Zn1  1  0.71187919  0.53582170  0.45962245  1  1.200385  0  0.613719  0.720325  0  2.481337  0
Zn  Zn2  1  0.54514327  0.45953594  0.92379388  1  1.202295  0  0.614289  0.721251  0  2.480653  0
Zn  Zn3  1  0.37843487  0.92380766  0.46420540  1  1.200412  0  0.613904  0.719954  0  2.481331  0
Zn  Zn4  1  0.21187871  0.46417907  0.54037770  1  1.200374  0  0.613725  0.720359  0  2.481294  0
Zn  Zn5  1  0.04514263  0.54046574  0.07620660  1  1.202293  0  0.614293  0.721262  0  2.480623  0
H  H6  1  0.98573770  0.92592985  0.45604402  1  0.454347  0  0.295071  0.248777  0  0.980773  0
H  H7  1  0.81917108  0.45597422  0.53008372  1  0.466427  0  0.295357  0.249444  0  0.979747  0
H  H8  1  0.65246350  0.53014054  0.07412426  1  0.460091  0  0.295714  0.250417  0  0.978373  0
H  H9  1  0.48573791  0.07407114  0.54395686  1  0.454356  0  0.295069  0.248791  0  0.980768  0
H  H10  1  0.31917076  0.54402630  0.46991547  1  0.466426  0  0.295361  0.249442  0  0.979714  0
H  H11  1  0.15246431  0.46985958  0.92587657  1  0.460074  0  0.295696  0.250404  0  0.978395  0
H  H12  1  0.17869744  0.68916050  0.22313143  1  0.138847  0  0.121474  0.099717  0  1.018622  0
H  H13  1  0.01204608  0.22307782  0.53398216  1  0.149075  0  0.122168  0.100662  0  1.018153  0
H  H14  1  0.84542563  0.53422668  0.31089829  1  0.144072  0  0.121483  0.099771  0  1.01888  0
H  H15  1  0.67869822  0.31083904  0.77686882  1  0.138829  0  0.121461  0.099729  0  1.018641  0
H  H16  1  0.51204575  0.77692215  0.46601664  1  0.14906  0  0.122159  0.100639  0  1.018164  0
H  H17  1  0.34542587  0.46577214  0.68909917  1  0.144067  0  0.121467  0.099735  0  1.018862  0
H  H18  1  0.83306683  0.66716819  0.10191588  1  0.136696  0  0.115251  0.087706  0  1.037121  0
H  H19  1  0.66654464  0.10172089  0.43459358  1  0.125958  0  0.115667  0.088132  0  1.037151  0
H  H20  1  0.50010288  0.43467770  0.33293361  1  0.12274  0  0.114987  0.087078  0  1.036939  0
H  H21  1  0.33306664  0.33283224  0.89808452  1  0.136679  0  0.115252  0.087697  0  1.037143  0
H  H22  1  0.16654534  0.89827955  0.56540692  1  0.125949  0  0.115648  0.088106  0  1.037178  0
H  H23  1  0.00010226  0.56532218  0.66706642  1  0.122743  0  0.114988  0.087062  0  1.036932  0
H  H24  1  0.77763365  0.82381102  0.20777870  1  0.087597  0  0.113581  0.1233  0  0.9902  0
H  H25  1  0.61112772  0.20751560  0.38372577  1  0.083706  0  0.11358  0.123188  0  0.990809  0
H  H26  1  0.44449408  0.38387390  0.17631559  1  0.114757  0  0.113688  0.123979  0  0.989728  0
H  H27  1  0.27763259  0.17619031  0.79222197  1  0.087586  0  0.113585  0.123308  0  0.990241  0
H  H28  1  0.11112733  0.79248460  0.61627387  1  0.083702  0  0.113566  0.123164  0  0.990793  0
H  H29  1  0.94449309  0.61612619  0.82368507  1  0.114755  0  0.113687  0.12396  0  0.989686  0
H  H30  1  0.13978380  0.84612618  0.33390432  1  0.149614  0  0.100653  0.120995  0  1.04756  0
H  H31  1  0.97301268  0.33391354  0.48788976  1  0.129765  0  0.100817  0.121268  0  1.047013  0
H  H32  1  0.80642568  0.48788986  0.15391045  1  0.146358  0  0.101364  0.122209  0  1.046541  0
H  H33  1  0.63978371  0.15387394  0.66609652  1  0.149743  0  0.100648  0.120985  0  1.047536  0
H  H34  1  0.47301142  0.66608550  0.51210852  1  0.129777  0  0.100803  0.121282  0  1.046969  0
H  H35  1  0.30642570  0.51210830  0.84608769  1  0.146403  0  0.101365  0.122246  0  1.0465  0
H  H36  1  0.99948871  0.98463659  0.36304325  1  0.090427  0  0.119521  0.117239  0  0.959092  0
H  H37  1  0.83301331  0.36294958  0.37840936  1  0.096879  0  0.119603  0.117046  0  0.958162  0
H  H38  1  0.66647190  0.37848306  0.01549503  1  0.104123  0  0.119439  0.117297  0  0.958591  0
H  H39  1  0.49948874  0.01536383  0.63695705  1  0.090428  0  0.119526  0.117251  0  0.959087  0
H  H40  1  0.33301091  0.63705141  0.62159161  1  0.09692  0  0.119606  0.117019  0  0.958151  0
H  H41  1  0.16647176  0.62151681  0.98450490  1  0.104119  0  0.119439  0.117288  0  0.958594  0
H  H42  1  0.83483679  0.96331685  0.33748989  1  0.055594  0  0.110812  0.094303  0  0.970886  0
H  H43  1  0.66834617  0.33744172  0.37410031  1  0.065806  0  0.110407  0.093763  0  0.97149  0
H  H44  1  0.50180854  0.37406875  0.03665173  1  0.067573  0  0.110459  0.094718  0  0.970907  0
H  H45  1  0.33483584  0.03668301  0.66250994  1  0.055587  0  0.110801  0.094303  0  0.970873  0
H  H46  1  0.16834472  0.66255824  0.62589840  1  0.065906  0  0.110389  0.093719  0  0.971508  0
H  H47  1  0.00180844  0.62593146  0.96334798  1  0.067574  0  0.110455  0.094707  0  0.970906  0
H  H48  1  0.76718139  0.84119578  0.37008042  1  0.058524  0  0.111503  0.079435  0  0.995795  0
H  H49  1  0.60058430  0.36999048  0.52880160  1  0.080249  0  0.111377  0.079155  0  0.996441  0
H  H50  1  0.43381967  0.52884419  0.15878540  1  0.050268  0  0.111073  0.078753  0  0.997321  0
H  H51  1  0.26718151  0.15880465  0.62992002  1  0.058507  0  0.111482  0.0794  0  0.995833  0
H  H52  1  0.10058308  0.63001006  0.47119771  1  0.080242  0  0.111383  0.079186  0  0.996418  0
H  H53  1  0.93381951  0.47115623  0.84121494  1  0.050273  0  0.111054  0.078698  0  0.99735  0
H  H54  1  0.73400634  0.80117772  0.48121478  1  0.069952  0  0.095146  0.074123  0  0.984821  0
H  H55  1  0.56738172  0.48092785  0.67992980  1  0.069118  0  0.095121  0.074031  0  0.984391  0
H  H56  1  0.40064284  0.67996704  0.19881994  1  0.063618  0  0.094896  0.074321  0  0.984263  0
H  H57  1  0.23400572  0.19882272  0.51878568  1  0.069936  0  0.095148  0.074116  0  0.984834  0
H  H58  1  0.06738162  0.51907146  0.32006963  1  0.069126  0  0.095118  0.074049  0  0.98438  0
H  H59  1  0.90064264  0.32003339  0.80118043  1  0.063628  0  0.094894  0.074314  0  0.984253  0
H  H60  1  0.87610261  0.84643379  0.60702282  1  0.021245  0  0.083121  0.124527  0  1.011965  0
H  H61  1  0.70892509  0.60704270  0.76060603  1  0.019852  0  0.08251  0.12393  0  1.013363  0
H  H62  1  0.54246373  0.76059773  0.15349087  1  0.022588  0  0.082716  0.123882  0  1.012526  0
H  H63  1  0.37610311  0.15356663  0.39297755  1  0.021238  0  0.083124  0.124523  0  1.011974  0
H  H64  1  0.20892504  0.39295717  0.23939387  1  0.019848  0  0.082507  0.123933  0  1.013367  0
H  H65  1  0.04246261  0.23940215  0.84650913  1  0.022592  0  0.082715  0.123877  0  1.012536  0
H  H66  1  0.79433343  0.93945579  0.61720576  1  0.036294  0  0.083065  0.123897  0  1.010381  0
H  H67  1  0.62708564  0.61704388  0.67768707  1  0.036867  0  0.082876  0.123448  0  1.010663  0
H  H68  1  0.46068032  0.67770169  0.06052690  1  0.055536  0  0.083203  0.12394  0  1.010017  0
H  H69  1  0.29433389  0.06054407  0.38279410  1  0.036305  0  0.083055  0.123879  0  1.010395  0
H  H70  1  0.12708545  0.38295624  0.32231378  1  0.036593  0  0.08289  0.123467  0  1.010648  0
H  H71  1  0.96067990  0.32229840  0.93947375  1  0.055519  0  0.0832  0.123938  0  1.01003  0
H  H72  1  0.95527046  0.92325834  0.58526013  1  0.00484  0  0.076685  0.103471  0  1.041456  0
H  H73  1  0.78816327  0.58542682  0.66209268  1  -0.005849  0  0.0769  0.103796  0  1.040991  0
H  H74  1  0.62169427  0.66206175  0.07663676  1  -0.010312  0  0.076552  0.103526  0  1.041072  0
H  H75  1  0.45526992  0.07674176  0.41474053  1  0.004836  0  0.076684  0.103461  0  1.041459  0
H  H76  1  0.28816308  0.41457305  0.33790718  1  -0.00586  0  0.076893  0.103787  0  1.041016  0
H  H77  1  0.12169405  0.33793780  0.92336353  1  -0.010303  0  0.076557  0.103536  0  1.041057  0
H  H78  1  0.01572991  0.78477761  0.42976514  1  -0.012985  0  0.075925  0.100838  0  1.044536  0
H  H79  1  0.84927708  0.42990022  0.64501902  1  0.014214  0  0.07597  0.100914  0  1.04439  0
H  H80  1  0.68243555  0.64508424  0.21524815  1  0.001809  0  0.075861  0.100811  0  1.044621  0
H  H81  1  0.51572906  0.21522227  0.57023488  1  -0.012973  0  0.075927  0.10085  0  1.044526  0
H  H82  1  0.34927696  0.57009898  0.35498146  1  0.01428  0  0.075976  0.100901  0  1.044389  0
H  H83  1  0.18243461  0.35491596  0.78475144  1  0.001826  0  0.075869  0.100831  0  1.044604  0
H  H84  1  0.89018528  0.71979737  0.35987812  1  0.030581  0  0.082648  0.117071  0  1.009111  0
H  H85  1  0.72392257  0.35989031  0.64012063  1  0.021341  0  0.082261  0.116528  0  1.008904  0
H  H86  1  0.55691189  0.64017777  0.28023041  1  0.011552  0  0.082355  0.116884  0  1.008909  0
H  H87  1  0.39018452  0.28020273  0.64012257  1  0.030563  0  0.082649  0.117071  0  1.009067  0
H  H88  1  0.22392153  0.64010923  0.35987960  1  0.021357  0  0.082223  0.116471  0  1.008984  0
H  H89  1  0.05691105  0.35982187  0.71976869  1  0.011545  0  0.082358  0.116904  0  1.008853  0
H  H90  1  0.92522426  0.71586420  0.45660691  1  0.064101  0  0.082126  0.122436  0  1.032801  0
H  H91  1  0.75877631  0.45668145  0.74075745  1  0.059139  0  0.081674  0.121783  0  1.033666  0
H  H92  1  0.59185027  0.74081687  0.28410311  1  0.061805  0  0.081899  0.12217  0  1.033169  0
H  H93  1  0.42522270  0.28413647  0.54339433  1  0.064093  0  0.082119  0.122426  0  1.032812  0
H  H94  1  0.25877727  0.54331809  0.25924276  1  0.059144  0  0.08168  0.121781  0  1.033684  0
H  H95  1  0.09184842  0.25918391  0.71589711  1  0.061825  0  0.081899  0.12217  0  1.033189  0
C  C96  1  0.09080289  0.72177071  0.22319384  1  0.43954  0  0.053471  0.106932  0  3.897927  0
C  C97  1  0.92414854  0.22312860  0.50142502  1  0.437667  0  0.053594  0.106324  0  3.897969  0
C  C98  1  0.75757290  0.50158060  0.27830663  1  0.389505  0  0.053633  0.107092  0  3.899655  0
C  C99  1  0.59080271  0.27822941  0.77680704  1  0.439671  0  0.053442  0.106841  0  3.898033  0
C  C100  1  0.42414927  0.77687159  0.49857443  1  0.437572  0  0.053628  0.106395  0  3.897953  0
C  C101  1  0.25757215  0.49841869  0.72169268  1  0.389495  0  0.053612  0.107108  0  3.899656  0
C  C102  1  0.89760388  0.70975064  0.15455907  1  0.484651  0  0.044545  0.086691  0  3.957085  0
C  C103  1  0.73106653  0.15437630  0.44464461  1  0.461649  0  0.043766  0.086142  0  3.957133  0
C  C104  1  0.56453169  0.44477406  0.29031690  1  0.430617  0  0.044878  0.087807  0  3.955747  0
C  C105  1  0.39760376  0.29025002  0.84544219  1  0.484711  0  0.044551  0.086689  0  3.957111  0
C  C106  1  0.23106626  0.84562446  0.55535552  1  0.461638  0  0.043787  0.086173  0  3.957099  0
C  C107  1  0.06453100  0.55522493  0.70968285  1  0.430281  0  0.044864  0.087823  0  3.955667  0
C  C108  1  0.86791202  0.79685620  0.21388697  1  -0.086416  0  -0.08329  -0.1866  0  3.961401  0
C  C109  1  0.70137092  0.21369603  0.41685832  1  -0.056788  0  -0.083569  -0.187176  0  3.961763  0
C  C110  1  0.53477245  0.41697214  0.20321880  1  -0.050443  0  -0.083585  -0.188078  0  3.959256  0
C  C111  1  0.36791098  0.20314480  0.78611398  1  -0.086475  0  -0.083284  -0.186584  0  3.961438  0
C  C112  1  0.20137057  0.78630417  0.58314127  1  -0.056787  0  -0.083539  -0.187101  0  3.961723  0
C  C113  1  0.03477258  0.58302652  0.79678130  1  -0.050088  0  -0.083562  -0.188015  0  3.959174  0
C  C114  1  0.95312248  0.84773932  0.28155166  1  -0.047009  0  0.011703  0.139568  0  3.945072  0
C  C115  1  0.78650732  0.28144520  0.43375540  1  0.000244  0  0.011664  0.139452  0  3.945874  0
C  C116  1  0.61991173  0.43381932  0.15232790  1  -0.051914  0  0.011397  0.139551  0  3.944521  0
C  C117  1  0.45312246  0.15226078  0.71844899  1  -0.047008  0  0.011714  0.139561  0  3.945112  0
C  C118  1  0.28650601  0.71855499  0.56624413  1  0.000419  0  0.011682  0.139426  0  3.945817  0
C  C119  1  0.11991083  0.56617966  0.84767182  1  -0.051939  0  0.011344  0.139454  0  3.944576  0
C  C120  1  0.06774278  0.80901538  0.28447487  1  0.015317  0  -0.078294  -0.164067  0  3.92242  0
C  C121  1  0.90104384  0.28443128  0.47550150  1  -0.001097  0  -0.078985  -0.16487  0  3.922659  0
C  C122  1  0.73446347  0.47555843  0.19105605  1  0.057239  0  -0.079499  -0.166297  0  3.923755  0
C  C123  1  0.56774264  0.19098441  0.71552635  1  0.015075  0  -0.078249  -0.16401  0  3.922459  0
C  C124  1  0.40104354  0.71556866  0.52449706  1  -0.001103  0  -0.079022  -0.164922  0  3.922596  0
C  C125  1  0.23446355  0.52444030  0.80894271  1  0.057212  0  -0.079456  -0.166268  0  3.923656  0
C  C126  1  0.92133371  0.93927336  0.35358956  1  0.262956  0  -0.064891  -0.092895  0  3.897491  0
C  C127  1  0.75477658  0.35352198  0.41428643  1  0.25095  0  -0.063211  -0.08936  0  3.896377  0
C  C128  1  0.58817722  0.41430438  0.06077979  1  0.240756  0  -0.063252  -0.091447  0  3.897391  0
C  C129  1  0.42133375  0.06072674  0.64641112  1  0.262953  0  -0.064887  -0.092888  0  3.897489  0
C  C130  1  0.25477614  0.64647675  0.58571232  1  0.250793  0  -0.063189  -0.089275  0  3.896319  0
C  C131  1  0.08817808  0.58569582  0.93921987  1  0.240768  0  -0.063234  -0.091417  0  3.897331  0
C  C132  1  0.67412294  0.94465770  0.47871875  1  1.571884  0  0.211365  0.576008  0  4.152998  0
C  C133  1  0.50758864  0.47870592  0.53404992  1  1.57447  0  0.212115  0.578692  0  4.149793  0
C  C134  1  0.34093523  0.53401124  0.05524197  1  1.582347  0  0.210514  0.575437  0  4.153078  0
C  C135  1  0.17412412  0.05534218  0.52128118  1  1.571865  0  0.211392  0.576064  0  4.152928  0
C  C136  1  0.00758642  0.52129429  0.46594978  1  1.574493  0  0.212037  0.578524  0  4.149951  0
C  C137  1  0.84093585  0.46598951  0.94475810  1  1.582314  0  0.210528  0.575388  0  4.152988  0
C  C138  1  0.79387750  0.88822347  0.43856433  1  0.268038  0  -0.001602  -0.04538  0  3.801488  0
C  C139  1  0.62729851  0.43847537  0.55029485  1  0.247848  0  -0.002298  -0.04764  0  3.802803  0
C  C140  1  0.46060328  0.55030072  0.11176583  1  0.274106  0  -0.00174  -0.045968  0  3.804392  0
C  C141  1  0.29387676  0.11177696  0.56143609  1  0.268032  0  -0.001593  -0.045347  0  3.801516  0
C  C142  1  0.12729824  0.56152394  0.44970453  1  0.247881  0  -0.00231  -0.047706  0  3.802889  0
C  C143  1  0.96060207  0.44969937  0.88823482  1  0.274128  0  -0.001724  -0.045893  0  3.804287  0
C  C144  1  0.82445480  0.83291565  0.48215390  1  0.013493  0  -0.092048  0.081575  0  3.867055  0
C  C145  1  0.65778744  0.48205554  0.64918771  1  0.027448  0  -0.091262  0.083968  0  3.864487  0
C  C146  1  0.49108940  0.64921466  0.16705567  1  0.028678  0  -0.091938  0.082063  0  3.866136  0
C  C147  1  0.32445321  0.16708421  0.51784594  1  0.013499  0  -0.092041  0.08161  0  3.867007  0
C  C148  1  0.15778729  0.51794467  0.35081190  1  0.027418  0  -0.091299  0.083835  0  3.864655  0
C  C149  1  0.99109012  0.35078518  0.83294407  1  0.028666  0  -0.091935  0.08207  0  3.866121  0
C  C150  1  0.86494172  0.88881402  0.57813633  1  -0.032991  0  -0.252598  -0.395036  0  3.918461  0
C  C151  1  0.69788962  0.57812317  0.68933036  1  -0.040316  0  -0.252061  -0.394476  0  3.918889  0
C  C152  1  0.53138927  0.68931819  0.11113834  1  -0.054535  0  -0.251594  -0.393951  0  3.91699  0
C  C153  1  0.36494120  0.11118551  0.42186381  1  -0.032992  0  -0.252588  -0.395004  0  3.918432  0
C  C154  1  0.19789043  0.42187638  0.31066988  1  -0.040033  0  -0.252065  -0.394469  0  3.918883  0
C  C155  1  0.03138909  0.31068169  0.88886168  1  -0.054532  0  -0.251592  -0.393954  0  3.91698  0
C  C156  1  0.91974502  0.75955021  0.42886401  1  -0.087761  0  -0.252137  -0.396534  0  3.924561  0
C  C157  1  0.75329613  0.42890886  0.66932416  1  -0.099285  0  -0.251847  -0.396356  0  3.924694  0
C  C158  1  0.58642801  0.66937716  0.24043819  1  -0.077506  0  -0.252011  -0.396662  0  3.923614  0
C  C159  1  0.41974434  0.24045022  0.57113634  1  -0.087743  0  -0.252141  -0.396558  0  3.924492  0
C  C160  1  0.25329510  0.57109011  0.33067548  1  -0.099361  0  -0.251799  -0.396221  0  3.924805  0
C  C161  1  0.08642709  0.33062271  0.75956179  1  -0.077528  0  -0.252023  -0.396723  0  3.923605  0
N  N162  1  0.00635822  0.67219334  0.15968491  1  -1.26507  0  -0.328536  -0.222005  0  3.551969  0
N  N163  1  0.83976178  0.15955588  0.48740962  1  -1.278059  0  -0.328432  -0.221172  0  3.552207  0
N  N164  1  0.67321461  0.48755726  0.32787593  1  -1.252637  0  -0.328324  -0.221351  0  3.552497  0
N  N165  1  0.50635891  0.32780711  0.84031569  1  -1.265084  0  -0.328573  -0.222003  0  3.552022  0
N  N166  1  0.33976158  0.84044399  0.51259021  1  -1.278056  0  -0.328461  -0.221261  0  3.55225  0
N  N167  1  0.17321395  0.51244114  0.67212319  1  -1.252654  0  -0.328323  -0.221391  0  3.552577  0
N  N168  1  0.90126165  0.94294163  0.43905928  1  -1.078427  0  -0.475129  -0.322124  0  3.485204  0
N  N169  1  0.73469599  0.43899417  0.49608254  1  -1.093238  0  -0.476088  -0.324917  0  3.487091  0
N  N170  1  0.56802164  0.49609724  0.05709906  1  -1.078363  0  -0.475686  -0.324883  0  3.487782  0
N  N171  1  0.40126182  0.05705880  0.56094108  1  -1.078427  0  -0.475126  -0.322179  0  3.485225  0
N  N172  1  0.23469658  0.56100626  0.50391792  1  -1.093246  0  -0.47608  -0.324842  0  3.487047  0
N  N173  1  0.06802244  0.50390321  0.94290150  1  -1.078339  0  -0.475672  -0.324844  0  3.487657  0
Cl  Cl174  1  0.88483952  0.12927465  0.68009224  1  -0.660277  0  -0.336115  -0.516382  0  1.131504  0
Cl  Cl175  1  0.71823159  0.68013458  0.55084843  1  -0.663223  0  -0.336165  -0.516576  0  1.131484  0
Cl  Cl176  1  0.55177225  0.55077600  0.87072378  1  -0.662779  0  -0.336331  -0.516942  0  1.131188  0
Cl  Cl177  1  0.38483870  0.87072186  0.31990750  1  -0.660296  0  -0.336104  -0.516376  0  1.131518  0
Cl  Cl178  1  0.21822831  0.31986594  0.44915081  1  -0.663222  0  -0.336182  -0.5166  0  1.13146  0
Cl  Cl179  1  0.05177051  0.44922705  0.12927874  1  -0.662777  0  -0.336334  -0.516943  0  1.131174  0
O  O180  1  0.67926081  0.02737715  0.50907343  1  -1.183176  0  -0.317971  -0.553733  0  2.288127  0
O  O181  1  0.51278579  0.50918402  0.48178780  1  -1.184345  0  -0.318314  -0.55499  0  2.287717  0
O  O182  1  0.34616293  0.48163352  0.97254401  1  -1.193841  0  -0.317358  -0.553203  0  2.289177  0
O  O183  1  0.17926168  0.97262272  0.49092649  1  -1.183199  0  -0.317993  -0.553764  0  2.288088  0
O  O184  1  0.01278441  0.49081530  0.51821166  1  -1.184354  0  -0.31826  -0.554899  0  2.287705  0
O  O185  1  0.84616219  0.51836756  0.02745572  1  -1.19385  0  -0.317387  -0.553191  0  2.289136  0
O  O186  1  0.57602895  0.90253142  0.47729798  1  -1.201959  0  -0.319058  -0.554185  0  2.389042  0
O  O187  1  0.40945189  0.47725707  0.57471022  1  -1.196524  0  -0.319113  -0.554583  0  2.387873  0
O  O188  1  0.24277853  0.57474967  0.09728822  1  -1.199263  0  -0.318764  -0.553674  0  2.387648  0
O  O189  1  0.07602921  0.09746699  0.52270120  1  -1.201965  0  -0.319052  -0.554195  0  2.389018  0
O  O190  1  0.90945241  0.52274312  0.42528924  1  -1.196555  0  -0.319077  -0.554462  0  2.387869  0
O  O191  1  0.74277919  0.42525134  0.90271281  1  -1.199238  0  -0.31876  -0.553644  0  2.387592  0
