# generated using pymatgen
data_Mn3H10(C2O3)4
_symmetry_space_group_name_H-M   'P 1'
_cell_length_a   10.97771580
_cell_length_b   11.71521025
_cell_length_c   15.83660090
_cell_angle_alpha   91.08126967
_cell_angle_beta   90.01631397
_cell_angle_gamma   89.97865244
_symmetry_Int_Tables_number   1
_chemical_formula_structural   Mn3H10(C2O3)4
_chemical_formula_sum   'Mn12 H40 C32 O48'
_cell_volume   2036.32295044
_cell_formula_units_Z   4
loop_
 _symmetry_equiv_pos_site_id
 _symmetry_equiv_pos_as_xyz
  1  'x, y, z'
loop_
 _atom_site_type_symbol
 _atom_site_label
 _atom_site_symmetry_multiplicity
 _atom_site_fract_x
 _atom_site_fract_y
 _atom_site_fract_z
 _atom_site_occupancy
 _atom_site_hle17_ddec_charge
 _atom_site_hle17_ddec_spin_density
 _atom_site_hle17_ddec_sum_bond_order
 _atom_site_hle17_magmom
 _atom_site_hse06_10hf_ddec_charge
 _atom_site_hse06_10hf_ddec_spin_density
 _atom_site_hse06_10hf_ddec_sum_bond_order
 _atom_site_hse06_10hf_magmom
 _atom_site_hse06_ddec_charge
 _atom_site_hse06_ddec_spin_density
 _atom_site_hse06_ddec_sum_bond_order
 _atom_site_hse06_magmom
 _atom_site_pbe_cm5_charge
 _atom_site_pbe_ddec_charge
 _atom_site_pbe_ddec_spin_density
 _atom_site_pbe_ddec_sum_bond_order
 _atom_site_pbe_magmom
Mn  Mn0  1  0.00002002  0.00010995  0.00002349  1  1.229739  4.803159  1.723955  4.695  1.071408  4.717645  2.227712  4.557  1.132065  4.763588  2.152836  4.615  0.598776  1.024035  4.667838  2.282937  4.496
Mn  Mn1  1  0.50010283  0.49920491  0.49969866  1  1.230211  4.799634  1.722178  4.696  1.071662  4.718521  2.225832  4.56  1.132344  4.762765  2.151031  4.617  0.599027  1.024498  4.67259  2.280426  4.503
Mn  Mn2  1  0.95913565  0.73919518  0.86553492  1  1.237875  -4.795756  1.688233  -4.696  1.06513  -4.717237  2.184246  -4.562  1.129207  -4.76054  2.108609  -4.618  0.605105  1.013509  -4.670741  2.240491  -4.505
Mn  Mn3  1  0.45886496  0.76138426  0.63539060  1  1.237523  4.784754  1.685384  4.696  1.064902  4.705136  2.181867  4.56  1.129344  4.749826  2.10581  4.618  0.60512  1.012566  4.656138  2.238913  4.501
Mn  Mn4  1  0.04109904  0.26088191  0.13495767  1  1.237198  -4.792321  1.687796  -4.694  1.063899  -4.70945  2.18522  -4.556  1.128724  -4.756476  2.108755  -4.616  0.604571  1.0109  -4.65645  2.24294  -4.493
Mn  Mn5  1  0.54125822  0.23994789  0.36448158  1  1.23813  -4.788283  1.68467  -4.696  1.065858  -4.708632  2.180399  -4.561  1.129955  -4.753042  2.104672  -4.618  0.605453  1.014265  -4.660409  2.236807  -4.502
Mn  Mn6  1  0.17331005  0.76152792  0.71483733  1  1.2249  -4.779628  1.738326  -4.688  1.065663  -4.700811  2.229567  -4.554  1.126988  -4.745267  2.157153  -4.612  0.599996  1.017235  -4.654133  2.282902  -4.497
Mn  Mn7  1  0.67273809  0.73838701  0.78476965  1  1.22481  -4.785564  1.738728  -4.688  1.06582  -4.706671  2.229925  -4.555  1.127078  -4.751118  2.157606  -4.612  0.600095  1.017483  -4.660204  2.283091  -4.497
Mn  Mn8  1  0.82717048  0.23832932  0.28485497  1  1.224491  4.777803  1.7372  4.687  1.065048  4.698211  2.228861  4.552  1.126506  4.74404  2.156311  4.611  0.599902  1.01632  4.649404  2.282519  4.492
Mn  Mn9  1  0.32691900  0.26136954  0.21503754  1  1.224444  4.777394  1.737206  4.687  1.064728  4.697703  2.229019  4.552  1.126224  4.743572  2.156452  4.611  0.599739  1.01597  4.64865  2.282742  4.492
Mn  Mn10  1  0.00005435  0.50000267  0.99994417  1  1.233907  4.791015  1.78095  4.688  1.079988  4.701508  2.292928  4.548  1.138689  4.750247  2.21633  4.609  0.602391  1.03466  4.647803  2.349395  4.484
Mn  Mn11  1  0.49986014  0.99900209  0.50020410  1  1.234413  -4.793161  1.782264  -4.689  1.080878  -4.707422  2.294175  -4.551  1.13959  -4.754621  2.21774  -4.61  0.602276  1.03553  -4.657767  2.350007  -4.49
H  H12  1  0.09861873  0.02510579  0.74846244  1  0.021264  0.000496  0.901241  0.0  0.031331  0.000408  0.96358  0.0  0.031734  0.000452  0.958477  0.0  0.120117  0.030739  0.000333  0.96773  0.0
H  H13  1  0.59818367  0.47493924  0.75178650  1  0.020842  0.002415  0.901549  0.002  0.031015  0.003448  0.96364  0.002  0.031375  0.002756  0.958618  0.002  0.120071  0.030436  0.00414  0.967729  0.002
H  H14  1  0.90129974  0.97520160  0.25164348  1  0.02129  -0.000602  0.901387  0.0  0.031482  -0.000652  0.9635  0.0  0.031815  -0.000647  0.958462  0.0  0.12051  0.030973  -0.000635  0.96755  0.0
H  H15  1  0.40095965  0.52499280  0.24818679  1  0.021259  -0.000588  0.90152  0.0  0.031516  -0.000577  0.963539  0.0  0.031822  -0.000595  0.958526  0.0  0.120473  0.031033  -0.00052  0.967577  0.0
H  H16  1  0.65128071  0.94189179  0.91425489  1  0.020594  0.000421  0.918226  0.0  0.02964  0.000292  0.98332  0.0  0.030025  0.000373  0.977958  0.0  0.118687  0.02914  0.000178  0.987545  0.0
H  H17  1  0.15146723  0.55770480  0.58624935  1  0.021491  0.002519  0.916629  0.002  0.030275  0.003378  0.981792  0.002  0.030716  0.002738  0.976426  0.002  0.118949  0.029649  0.004037  0.986071  0.002
H  H18  1  0.34886093  0.05850270  0.08584570  1  0.021467  -0.000564  0.918072  0.0  0.030577  -0.000647  0.983041  0.0  0.030922  -0.000669  0.977725  0.0  0.119067  0.030121  -0.000638  0.987197  0.0
H  H19  1  0.84914564  0.44150869  0.41406765  1  0.02207  -0.000589  0.918448  0.0  0.031227  -0.000685  0.983298  0.0  0.031563  -0.000702  0.978019  0.0  0.119308  0.030788  -0.000667  0.98741  0.0
H  H20  1  0.86942662  0.66512225  0.53731637  1  0.140955  -4.1e-05  0.924533  0.0  0.161733  -0.000247  0.977327  0.0  0.164134  -0.000156  0.976332  0.0  0.10106  0.159903  -0.000349  0.978227  0.0
H  H21  1  0.36904938  0.83479703  0.96287137  1  0.141302  0.000324  0.924254  0.0  0.162168  0.000402  0.976838  0.0  0.164554  0.000338  0.975868  0.0  0.101652  0.160321  0.00044  0.977763  0.0
H  H22  1  0.13068142  0.33480131  0.46284061  1  0.140779  -0.000382  0.924512  0.0  0.161739  -0.000468  0.977137  0.0  0.16415  -0.000411  0.976136  0.0  0.101343  0.159907  -0.000517  0.978046  0.0
H  H23  1  0.63077167  0.16507015  0.03697829  1  0.140578  -0.000405  0.924506  0.0  0.161591  -0.000504  0.977115  0.0  0.164023  -0.000438  0.976084  0.0  0.101224  0.159736  -0.000584  0.978051  0.0
H  H24  1  0.73703586  0.68611749  0.60267507  1  0.140677  -0.001132  0.981298  0.0  0.1551  -0.001626  1.048027  -0.001  0.157422  -0.001403  1.048324  -0.001  0.101598  0.153471  -0.001858  1.047852  -0.001
H  H25  1  0.23691513  0.81362816  0.89721616  1  0.140525  -0.000239  0.981142  0.0  0.154361  -0.000484  1.048642  -0.001  0.156732  -0.000269  1.048878  0.0  0.101455  0.152676  -0.00071  1.048537  -0.001
H  H26  1  0.26294921  0.31364670  0.39734131  1  0.14024  0.000929  0.981166  0.0  0.154454  0.001252  1.048277  0.001  0.156821  0.001056  1.048522  0.0  0.101379  0.152768  0.001449  1.048154  0.001
H  H27  1  0.76302614  0.18621772  0.10251882  1  0.140756  0.000908  0.981272  0.0  0.154823  0.00126  1.048397  0.001  0.157177  0.001043  1.048659  0.0  0.101481  0.153168  0.001489  1.048243  0.001
H  H28  1  0.81141593  0.55275689  0.59872738  1  0.153502  -0.000232  0.924887  0.0  0.173235  -0.000549  0.979865  -0.001  0.175784  -0.000436  0.979144  0.0  0.10805  0.171352  -0.000665  0.98051  -0.001
H  H29  1  0.31098309  0.94711936  0.90141713  1  0.153588  -0.000245  0.924562  0.0  0.173433  -0.000399  0.979329  0.0  0.175991  -0.000344  0.978601  0.0  0.108065  0.171554  -0.000462  0.979954  0.0
H  H30  1  0.18874768  0.44711044  0.40141342  1  0.153623  -0.000201  0.924588  0.0  0.17344  -7.3e-05  0.979425  0.0  0.176002  -0.000149  0.978692  0.0  0.10816  0.171558  4.1e-05  0.980059  0.0
H  H31  1  0.68875689  0.05283471  0.09856420  1  0.153505  -0.000195  0.924415  0.0  0.173397  -9.4e-05  0.979178  0.0  0.175944  -0.000159  0.978456  0.0  0.108145  0.171523  3e-06  0.979802  0.0
H  H32  1  0.12537212  0.81136338  0.09173263  1  0.018277  -0.000189  0.909068  0.0  0.027411  -1.9e-05  0.974387  0.0  0.027551  -0.000108  0.969115  0.0  0.119516  0.027176  8.1e-05  0.978452  0.0
H  H33  1  0.62473247  0.68857920  0.40854789  1  0.018448  -0.000272  0.909218  0.0  0.027371  -0.000284  0.974691  0.0  0.027585  -0.000335  0.969347  0.0  0.119367  0.027022  -0.000227  0.978842  0.0
H  H34  1  0.87479426  0.18852241  0.90855438  1  0.018117  -0.000169  0.908737  0.0  0.026806  1.3e-05  0.974425  0.0  0.026952  -7.8e-05  0.969145  0.0  0.119335  0.026583  0.000109  0.978487  0.0
H  H35  1  0.37408652  0.31108907  0.59099997  1  0.017743  -0.001967  0.908207  -0.002  0.026762  -0.002798  0.973605  -0.002  0.026922  -0.002212  0.968348  -0.001  0.119434  0.026516  -0.003401  0.977628  -0.002
H  H36  1  0.73569554  0.48879019  0.95800020  1  0.021561  -0.002189  0.909782  -0.002  0.030696  -0.002793  0.974508  -0.002  0.030334  -0.00223  0.969742  -0.001  0.121522  0.030839  -0.003407  0.978081  -0.002
H  H37  1  0.23541248  0.01118234  0.54172963  1  0.021791  7.7e-05  0.909253  0.0  0.031353  -2.4e-05  0.973374  0.0  0.03108  0.000102  0.968566  0.0  0.121759  0.031388  -0.000157  0.977054  0.0
H  H38  1  0.26429587  0.51098808  0.04185857  1  0.021675  -7e-06  0.909995  0.0  0.031107  0.000117  0.97434  0.0  0.03078  -1.7e-05  0.96956  0.0  0.121588  0.031229  0.000247  0.977923  0.0
H  H39  1  0.76431005  0.98924833  0.45802239  1  0.020424  0.000323  0.909781  0.0  0.030352  0.00016  0.973826  0.0  0.030051  0.000216  0.969002  0.0  0.121067  0.030444  0.000154  0.977451  0.0
H  H40  1  0.27932628  0.44837876  0.76334861  1  0.143705  5e-06  0.918107  0.0  0.165682  2.5e-05  0.970648  0.0  0.167801  3e-05  0.970208  0.0  0.106883  0.164102  1.7e-05  0.971106  0.0
H  H41  1  0.77954420  0.05146646  0.73686433  1  0.143393  6.9e-05  0.918077  0.0  0.165519  -1.5e-05  0.970418  0.0  0.167646  1.9e-05  0.969957  0.0  0.106851  0.163942  -7.5e-05  0.970882  0.0
H  H42  1  0.72073253  0.55152253  0.23660651  1  0.143916  -7.5e-05  0.917467  0.0  0.165862  4.7e-05  0.970076  0.0  0.167972  -1.1e-05  0.969644  0.0  0.106972  0.164326  0.000131  0.970478  0.0
H  H43  1  0.22049372  0.94857929  0.26349506  1  0.143604  -0.000187  0.917106  0.0  0.165526  -0.000487  0.969807  -0.001  0.167637  -0.000375  0.969374  0.0  0.106872  0.163988  -0.000587  0.970213  -0.001
H  H44  1  0.35409225  0.48367809  0.85920664  1  0.144404  -0.000196  0.921171  0.0  0.165057  -0.000275  0.974677  0.0  0.16753  -0.000211  0.973657  0.0  0.105232  0.163189  -0.00032  0.975604  0.0
H  H45  1  0.85431757  0.01604295  0.64106494  1  0.144307  0.000245  0.921272  0.0  0.16497  0.000273  0.974725  0.0  0.167411  0.000253  0.973742  0.0  0.105277  0.163135  0.000271  0.975591  0.0
H  H46  1  0.64586818  0.51624351  0.14077348  1  0.14433  -0.000316  0.921114  0.0  0.164869  -0.00039  0.974798  0.0  0.167306  -0.000338  0.973824  0.0  0.105201  0.163045  -0.000422  0.975653  0.0
H  H47  1  0.14602190  0.98393504  0.35943153  1  0.144184  -0.000191  0.921246  0.0  0.164664  -0.000475  0.974996  0.0  0.167105  -0.000346  0.97401  0.0  0.105114  0.162832  -0.000586  0.975862  0.0
H  H48  1  0.34182723  0.58769777  0.77792115  1  0.135538  -0.000238  0.987044  0.0  0.149191  -0.000472  1.054471  0.0  0.151627  -0.000444  1.054487  0.0  0.098571  0.147492  -0.000463  1.054511  0.0
H  H49  1  0.84189789  0.91201526  0.72231862  1  0.136327  -0.000126  0.986935  0.0  0.149591  -0.000429  1.054742  0.0  0.152074  -0.000174  1.05469  0.0  0.098715  0.14784  -0.000693  1.054855  -0.001
H  H50  1  0.65829079  0.41217802  0.22201962  1  0.135392  0.001096  0.987695  0.0  0.149175  0.001525  1.054973  0.0  0.151615  0.001294  1.054982  0.0  0.098442  0.147474  0.001753  1.055021  0.001
H  H51  1  0.15798064  0.08793016  0.27809700  1  0.135861  0.000407  0.987132  0.0  0.149539  0.000549  1.054494  0.0  0.151968  0.000528  1.054515  0.0  0.098632  0.147852  0.000531  1.054527  0.0
C  C52  1  0.06438612  0.98006587  0.80456061  1  0.618872  -0.000504  3.852685  -0.001  0.544699  -0.001981  4.158583  -0.002  0.580561  -0.000874  4.150913  -0.001  0.175235  0.519031  -0.003203  4.163452  -0.003
C  C53  1  0.56446664  0.51981567  0.69541637  1  0.619486  0.003838  3.851872  0.004  0.545607  0.006967  4.157654  0.006  0.581303  0.005354  4.150126  0.005  0.175788  0.52014  0.008487  4.16233  0.008
C  C54  1  0.93544312  0.01986061  0.19534570  1  0.619119  0.003497  3.851144  0.004  0.545129  0.006845  4.157056  0.007  0.580937  0.005034  4.149432  0.005  0.175642  0.519545  0.008826  4.161778  0.008
C  C55  1  0.43518310  0.48032874  0.30447057  1  0.619657  0.003502  3.849689  0.004  0.545621  0.006783  4.155579  0.006  0.581481  0.004994  4.147897  0.005  0.175726  0.520005  0.008699  4.160403  0.008
C  C56  1  0.74965141  0.92279288  0.92030852  1  0.615145  0.001503  3.853228  0.001  0.542509  0.000576  4.152126  0.0  0.578453  0.00107  4.144932  0.0  0.175727  0.517049  0.000145  4.156234  0.0
C  C57  1  0.24976669  0.57696882  0.57991262  1  0.614355  0.004738  3.852763  0.005  0.542264  0.008403  4.15152  0.008  0.578059  0.006453  4.14451  0.007  0.175849  0.517011  0.01032  4.155485  0.01
C  C58  1  0.25033188  0.07699665  0.07995459  1  0.614199  0.002655  3.851933  0.003  0.541379  0.005623  4.151097  0.005  0.577319  0.004172  4.143986  0.004  0.175638  0.515884  0.007083  4.155142  0.006
C  C59  1  0.75063732  0.42305625  0.41993368  1  0.612956  0.002658  3.8525  0.003  0.539957  0.005551  4.151957  0.005  0.575841  0.004135  4.144889  0.004  0.175131  0.514558  0.006854  4.155943  0.006
C  C60  1  0.90847087  0.68007680  0.66969263  1  0.793602  -0.007546  3.767218  -0.009  0.752949  -0.014766  4.052233  -0.015  0.788973  -0.010855  4.044604  -0.012  0.240597  0.727338  -0.018765  4.056746  -0.019
C  C61  1  0.40850505  0.82000173  0.83058033  1  0.794591  -0.005764  3.765861  -0.007  0.753508  -0.009666  4.051333  -0.01  0.78963  -0.007348  4.043609  -0.008  0.240974  0.727782  -0.012133  4.055927  -0.012
C  C62  1  0.09146134  0.31993712  0.33048683  1  0.794032  0.005839  3.766655  0.006  0.752866  0.009789  4.052323  0.01  0.788984  0.007468  4.044623  0.008  0.240708  0.727107  0.012495  4.056892  0.012
C  C63  1  0.59149082  0.18024108  0.16927372  1  0.794117  0.005708  3.766581  0.006  0.753247  0.00955  4.051643  0.01  0.789323  0.007306  4.043934  0.008  0.240688  0.727555  0.012163  4.05618  0.012
C  C64  1  0.82647048  0.64548766  0.59771674  1  -0.472369  -0.002057  3.663836  -0.002  -0.549378  -0.003145  3.896724  -0.002  -0.55721  -0.002364  3.899136  -0.002  -0.245269  -0.543753  -0.003951  3.895216  -0.003
C  C65  1  0.32622810  0.85440069  0.90240257  1  -0.471763  -0.000315  3.66283  0.0  -0.54844  -0.000797  3.895982  0.0  -0.556298  -0.000546  3.89837  0.0  -0.244742  -0.542769  -0.001059  3.894517  0.0
C  C66  1  0.17358838  0.35438920  0.40240906  1  -0.471797  0.000229  3.662566  0.0  -0.548803  0.000742  3.895744  0.0  -0.556661  0.000443  3.898084  0.0  -0.245137  -0.543155  0.00108  3.894304  0.0
C  C67  1  0.67364758  0.14556376  0.09745393  1  -0.471682  0.000183  3.663691  0.0  -0.548827  0.000693  3.896528  0.0  -0.556714  0.000389  3.898893  0.0  -0.244938  -0.543141  0.001017  3.895043  0.0
C  C68  1  0.08305512  0.75715839  0.04191055  1  0.62463  0.002578  3.846833  0.003  0.550988  0.005342  4.149619  0.006  0.587387  0.00386  4.141023  0.004  0.175681  0.525135  0.007111  4.154893  0.007
C  C69  1  0.58263763  0.74258604  0.45857518  1  0.623879  -0.001916  3.847716  -0.002  0.550322  -0.0011  4.150421  -0.001  0.586935  -0.001236  4.141692  -0.001  0.17476  0.524402  -0.001187  4.155843  -0.001
C  C70  1  0.91727882  0.24282572  0.95825198  1  0.624517  0.002602  3.847683  0.003  0.551555  0.005319  4.149974  0.006  0.587969  0.00385  4.141371  0.004  0.175666  0.5257  0.007036  4.155214  0.007
C  C71  1  0.41730282  0.25705188  0.54143003  1  0.625428  -0.005803  3.84718  -0.006  0.552254  -0.009834  4.149566  -0.009  0.588587  -0.007512  4.141091  -0.007  0.176712  0.526708  -0.012245  4.154628  -0.011
C  C72  1  0.75864102  0.56099061  0.91696630  1  0.627344  -0.004398  3.837179  -0.005  0.553629  -0.008188  4.13876  -0.008  0.590555  -0.006189  4.130163  -0.007  0.178897  0.527613  -0.010348  4.143609  -0.01
C  C73  1  0.25833524  0.93922668  0.58303574  1  0.626842  -0.001875  3.838335  -0.002  0.552994  -0.004746  4.139747  -0.004  0.589835  -0.003454  4.131245  -0.003  0.179057  0.527013  -0.006078  4.144612  -0.005
C  C74  1  0.24132853  0.43897074  0.08306128  1  0.626671  0.001941  3.83798  0.002  0.55289  0.004919  4.139473  0.004  0.58978  0.003547  4.130903  0.003  0.178813  0.52687  0.006287  4.144276  0.005
C  C75  1  0.74115045  0.06123844  0.41679077  1  0.627026  0.000554  3.839857  0.0  0.553048  -0.000563  4.14163  -0.001  0.589987  7.9e-05  4.133067  -0.001  0.178229  0.526973  -0.001109  4.146502  -0.002
C  C76  1  0.17505942  0.55437194  0.84746077  1  0.786346  0.002841  3.778819  0.002  0.747767  0.00239  4.063106  0.002  0.783758  0.002358  4.055503  0.002  0.239577  0.722205  0.002565  4.067513  0.002
C  C77  1  0.67523920  0.94576316  0.65260027  1  0.785746  -0.004968  3.778546  -0.005  0.747045  -0.008165  4.063367  -0.008  0.782943  -0.00622  4.055843  -0.007  0.238823  0.721597  -0.010306  4.067728  -0.01
C  C78  1  0.82493831  0.44564736  0.15236896  1  0.785023  0.004886  3.780316  0.005  0.747131  0.008032  4.063846  0.008  0.782944  0.006131  4.056457  0.007  0.239313  0.721747  0.010138  4.068034  0.01
C  C79  1  0.32504365  0.05448137  0.34745716  1  0.786444  -0.006217  3.779262  -0.007  0.74834  -0.010008  4.063065  -0.01  0.784159  -0.0078  4.055607  -0.008  0.239493  0.722877  -0.01225  4.067434  -0.012
C  C80  1  0.29551290  0.51798563  0.80959034  1  -0.465491  -0.000379  3.657177  0.0  -0.54094  -0.000939  3.886776  -0.001  -0.548681  -0.000786  3.889361  -0.001  -0.241542  -0.535415  -0.001135  3.885157  -0.001
C  C81  1  0.79568931  0.98182945  0.69064530  1  -0.465112  -0.000218  3.656712  0.0  -0.540263  -0.001149  3.886236  0.0  -0.547966  -0.000819  3.888825  0.0  -0.241344  -0.53478  -0.00144  3.884603  0.0
C  C82  1  0.70452587  0.48193368  0.19035438  1  -0.464928  0.000382  3.656805  0.0  -0.54068  0.001338  3.886293  0.0  -0.548328  0.001028  3.888894  0.0  -0.241443  -0.53523  0.001605  3.88459  0.0
C  C83  1  0.20442057  0.01821184  0.30973612  1  -0.465421  -0.001387  3.655914  -0.002  -0.540779  -0.001208  3.885398  -0.001  -0.548453  -0.000798  3.888073  -0.001  -0.241477  -0.535287  -0.001644  3.883658  -0.002
O  O84  1  0.03250048  0.03788547  0.86804987  1  -0.592823  0.023903  2.077088  0.012  -0.533621  0.027334  2.346356  0.011  -0.563177  0.025789  2.332023  0.01  -0.296667  -0.512079  0.028614  2.356097  0.012
O  O85  1  0.53261243  0.46187268  0.63201846  1  -0.591206  0.025613  2.075687  0.014  -0.53219  0.031987  2.344348  0.017  -0.561728  0.029195  2.330222  0.014  -0.29604  -0.510714  0.034532  2.353831  0.019
O  O86  1  0.96763314  0.96171264  0.13212323  1  -0.591532  0.029073  2.075868  0.018  -0.532536  0.036351  2.344645  0.021  -0.562058  0.032658  2.330422  0.018  -0.296291  -0.511005  0.039955  2.354256  0.025
O  O87  1  0.46757287  0.53839699  0.36767697  1  -0.590886  0.028663  2.0754  0.018  -0.531915  0.03585  2.344055  0.021  -0.561421  0.032214  2.329772  0.018  -0.295726  -0.510408  0.039409  2.353619  0.025
O  O88  1  0.06110628  0.87040145  0.79770397  1  -0.669963  -0.056882  2.198008  -0.033  -0.584703  -0.068388  2.496907  -0.038  -0.621244  -0.06318  2.480433  -0.034  -0.306177  -0.557153  -0.073245  2.507653  -0.042
O  O89  1  0.56187906  0.62957521  0.70193192  1  -0.671084  -0.001782  2.197304  -0.001  -0.586127  -0.001267  2.496852  0.0  -0.622642  -0.001475  2.48016  0.0  -0.30676  -0.558348  -0.000865  2.507696  0.001
O  O90  1  0.93814986  0.12962658  0.20169330  1  -0.670598  0.003413  2.197797  0.003  -0.585438  0.005885  2.497173  0.005  -0.622072  0.004819  2.480447  0.004  -0.306813  -0.557558  0.006753  2.508159  0.006
O  O91  1  0.43778166  0.37053268  0.29814126  1  -0.671265  0.002793  2.198008  0.003  -0.58624  0.005292  2.498075  0.005  -0.62292  0.004321  2.481352  0.004  -0.306609  -0.558475  0.006172  2.509078  0.006
O  O92  1  0.81126441  0.98081360  0.97206859  1  -0.593942  0.026977  2.114712  0.014  -0.529778  0.030159  2.3879  0.013  -0.56156  0.02823  2.37548  0.011  -0.29519  -0.506305  0.031829  2.395839  0.014
O  O93  1  0.31114270  0.51934467  0.52783294  1  -0.59312  0.028038  2.11424  0.016  -0.529054  0.033651  2.386677  0.017  -0.560731  0.030673  2.3744  0.015  -0.29475  -0.505752  0.036401  2.394436  0.02
O  O94  1  0.18897304  0.01887813  0.02813908  1  -0.59315  0.030705  2.114131  0.019  -0.529043  0.036781  2.387264  0.02  -0.560776  0.033237  2.374921  0.017  -0.294955  -0.505665  0.040137  2.395203  0.024
O  O95  1  0.68923931  0.48110512  0.47175784  1  -0.592507  0.030488  2.113475  0.019  -0.527868  0.036493  2.38603  0.021  -0.55959  0.032942  2.373754  0.017  -0.294268  -0.504528  0.039906  2.393834  0.024
O  O96  1  0.78949755  0.84137931  0.87219721  1  -0.659158  -0.0558  2.173144  -0.032  -0.574294  -0.067924  2.465046  -0.039  -0.61073  -0.062708  2.449079  -0.034  -0.298897  -0.546606  -0.072505  2.474985  -0.042
O  O97  1  0.28971406  0.65828079  0.62813417  1  -0.659327  0.000174  2.170189  0.0  -0.574976  0.001476  2.462201  0.002  -0.611468  0.000808  2.446086  0.001  -0.299452  -0.547123  0.002209  2.472292  0.003
O  O98  1  0.21005138  0.15795432  0.12838458  1  -0.659094  0.002271  2.171142  0.003  -0.573778  0.004552  2.463127  0.005  -0.610356  0.003699  2.44695  0.005  -0.298885  -0.545783  0.00539  2.473326  0.006
O  O99  1  0.71035004  0.34213565  0.37146986  1  -0.659145  0.002042  2.171487  0.002  -0.574022  0.004255  2.463342  0.005  -0.610507  0.003503  2.447183  0.004  -0.298929  -0.546159  0.005001  2.473434  0.006
O  O100  1  0.86087549  0.70059277  0.74323653  1  -0.716303  -0.056682  2.088708  -0.033  -0.634799  -0.072035  2.367389  -0.043  -0.670596  -0.065452  2.349816  -0.038  -0.301911  -0.60771  -0.078114  2.378736  -0.049
O  O101  1  0.36094687  0.79891954  0.75705195  1  -0.718699  -0.002354  2.091042  -0.001  -0.6362  -0.004467  2.369971  -0.002  -0.672204  -0.003767  2.352229  -0.002  -0.302396  -0.608753  -0.005269  2.38146  -0.003
O  O102  1  0.13904226  0.29894080  0.25700229  1  -0.716979  0.002882  2.08865  0.001  -0.634932  0.004934  2.367815  0.003  -0.670944  0.004166  2.350197  0.002  -0.301994  -0.607468  0.005811  2.379345  0.003
O  O103  1  0.63909907  0.20141850  0.24274449  1  -0.717447  0.002731  2.088755  0.001  -0.635446  0.004736  2.367503  0.002  -0.671338  0.004077  2.349861  0.002  -0.301968  -0.608066  0.005476  2.37889  0.003
O  O104  1  0.02154282  0.68554504  0.65562491  1  -0.65565  -0.0358  2.038444  -0.024  -0.593148  -0.043461  2.297333  -0.029  -0.625007  -0.038107  2.28234  -0.024  -0.30514  -0.569391  -0.048842  2.307143  -0.034
O  O105  1  0.52160437  0.81517245  0.84457426  1  -0.654194  -0.035027  2.037971  -0.023  -0.592083  -0.041141  2.296905  -0.025  -0.623782  -0.036581  2.28188  -0.021  -0.30433  -0.568457  -0.045801  2.306749  -0.03
O  O106  1  0.97836649  0.31503830  0.34446271  1  -0.654926  0.035474  2.0391  0.024  -0.592637  0.041703  2.298334  0.026  -0.624417  0.037079  2.28326  0.021  -0.304777  -0.568919  0.046331  2.308253  0.03
O  O107  1  0.47838691  0.18520866  0.15528170  1  -0.654849  0.035441  2.038484  0.024  -0.592341  0.041593  2.297205  0.026  -0.624131  0.037017  2.28215  0.021  -0.304585  -0.568608  0.046136  2.307097  0.03
O  O108  1  0.02723853  0.81102531  0.98305831  1  -0.660231  -0.002418  2.154047  -0.001  -0.57597  0.000289  2.449885  0.003  -0.611921  4.3e-05  2.430816  0.003  -0.299485  -0.548583  0.000548  2.462427  0.003
O  O109  1  0.52688204  0.68870622  0.51730191  1  -0.657958  0.057006  2.152988  0.032  -0.57463  0.068839  2.448527  0.038  -0.610473  0.063628  2.429616  0.033  -0.298305  -0.547582  0.073544  2.46087  0.042
O  O110  1  0.97330398  0.18909391  0.01707389  1  -0.659636  -0.002417  2.153225  0.0  -0.575719  0.000457  2.448988  0.003  -0.611885  4.8e-05  2.430121  0.003  -0.299141  -0.548171  0.0009  2.461515  0.004
O  O111  1  0.47348108  0.31119380  0.48291023  1  -0.66008  -0.003709  2.153494  -0.003  -0.576362  -0.004185  2.449729  -0.003  -0.61237  -0.003298  2.430689  -0.002  -0.299598  -0.549116  -0.005066  2.462179  -0.004
O  O112  1  0.09372792  0.65114688  0.04659414  1  -0.598652  0.028796  2.08777  0.017  -0.538181  0.035568  2.357157  0.02  -0.568168  0.032229  2.342074  0.017  -0.297576  -0.516168  0.038892  2.367146  0.023
O  O113  1  0.59361692  0.84866877  0.45413058  1  -0.600731  -0.025566  2.089423  -0.013  -0.539923  -0.029363  2.35942  -0.013  -0.570059  -0.027489  2.344157  -0.011  -0.299094  -0.517998  -0.031153  2.369549  -0.014
O  O114  1  0.90650671  0.34881256  0.95345174  1  -0.598841  0.028693  2.088515  0.017  -0.538445  0.035422  2.357606  0.02  -0.568398  0.032083  2.342482  0.017  -0.297881  -0.516446  0.038746  2.367603  0.023
O  O115  1  0.40721719  0.15103662  0.54606540  1  -0.598505  -0.027409  2.090387  -0.015  -0.537905  -0.034818  2.359376  -0.018  -0.567981  -0.031701  2.344471  -0.016  -0.297854  -0.5159  -0.037685  2.369121  -0.021
O  O116  1  0.86874879  0.59801952  0.92270481  1  -0.656291  -0.004848  2.168973  -0.003  -0.572133  -0.005478  2.465377  -0.003  -0.608752  -0.004144  2.446094  -0.002  -0.298093  -0.54418  -0.006985  2.477683  -0.005
O  O117  1  0.36847373  0.90207457  0.57753716  1  -0.656707  0.002132  2.170721  0.0  -0.572552  -0.000495  2.467451  -0.004  -0.609296  -0.000354  2.448264  -0.004  -0.298337  -0.544501  -0.000473  2.479768  -0.004
O  O118  1  0.13118252  0.40198236  0.07748579  1  -0.656481  -0.002558  2.168561  0.0  -0.572394  0.000265  2.465263  0.004  -0.609107  1.1e-05  2.446047  0.004  -0.298372  -0.544254  0.000396  2.477561  0.004
O  O119  1  0.63110493  0.09827343  0.42241034  1  -0.654874  -0.05853  2.166473  -0.033  -0.571893  -0.070412  2.462541  -0.037  -0.60823  -0.065225  2.443461  -0.033  -0.297328  -0.544348  -0.075016  2.474697  -0.041
O  O120  1  0.67712864  0.59838383  0.86933479  1  -0.595489  -0.030396  2.077813  -0.02  -0.535297  -0.036225  2.345134  -0.022  -0.566307  -0.032635  2.330118  -0.019  -0.301023  -0.512241  -0.039666  2.354846  -0.025
O  O121  1  0.17684098  0.90212052  0.63070688  1  -0.594597  -0.031513  2.079392  -0.021  -0.534402  -0.037233  2.346702  -0.023  -0.565355  -0.033421  2.331759  -0.019  -0.300255  -0.511405  -0.040971  2.356335  -0.026
O  O122  1  0.32286093  0.40170791  0.13072234  1  -0.595154  0.031756  2.078604  0.021  -0.534916  0.037582  2.346148  0.023  -0.565892  0.033739  2.331097  0.019  -0.30077  -0.511857  0.04127  2.355891  0.026
O  O123  1  0.82269662  0.09833925  0.36904123  1  -0.597393  0.02865  2.079412  0.017  -0.537035  0.031345  2.347499  0.016  -0.568083  0.029063  2.33235  0.014  -0.302345  -0.513992  0.033497  2.357375  0.017
O  O124  1  0.12840286  0.65087481  0.82492814  1  -0.718681  -0.054221  2.089429  -0.029  -0.636965  -0.066625  2.370879  -0.035  -0.672591  -0.061552  2.352423  -0.031  -0.302116  -0.609796  -0.071172  2.382725  -0.039
O  O125  1  0.62849015  0.84918316  0.67492017  1  -0.719693  0.001099  2.089521  0.0  -0.637946  -0.000872  2.371509  -0.003  -0.673735  -0.000484  2.353107  -0.002  -0.302324  -0.610617  -0.001248  2.383357  -0.003
O  O126  1  0.87161489  0.34906145  0.17471569  1  -0.718662  -0.001169  2.08998  0.0  -0.636727  0.000809  2.370343  0.003  -0.672551  0.0004  2.352129  0.002  -0.302005  -0.609277  0.001186  2.382104  0.003
O  O127  1  0.37156676  0.15101198  0.32491406  1  -0.719544  -0.003977  2.088218  -0.004  -0.637599  -0.00554  2.368748  -0.005  -0.673313  -0.004318  2.350524  -0.004  -0.302314  -0.610302  -0.006832  2.380487  -0.006
O  O128  1  0.12542257  0.48861524  0.89904530  1  -0.647341  0.02817  2.02698  0.014  -0.590027  0.032025  2.283601  0.014  -0.620477  0.029681  2.268422  0.012  -0.30494  -0.567513  0.034223  2.293706  0.016
O  O129  1  0.62567429  0.01168782  0.60109251  1  -0.645581  -0.031729  2.024466  -0.02  -0.588833  -0.03828  2.280862  -0.022  -0.619106  -0.034213  2.265775  -0.018  -0.304111  -0.566534  -0.042333  2.290828  -0.026
O  O130  1  0.87446128  0.51152921  0.10083156  1  -0.646504  0.032101  2.026032  0.02  -0.589449  0.038607  2.282012  0.022  -0.619803  0.034559  2.266984  0.018  -0.304794  -0.567028  0.042582  2.291972  0.026
O  O131  1  0.37492554  0.98861548  0.39887069  1  -0.646944  -0.028824  2.026544  -0.015  -0.590144  -0.034821  2.283016  -0.017  -0.620508  -0.031595  2.267917  -0.014  -0.304855  -0.567671  -0.037839  2.292992  -0.02
