# generated using pymatgen
data_CdH14C18N2(ClO3)2
_symmetry_space_group_name_H-M   'P 1'
_cell_length_a   7.64033985
_cell_length_b   10.81224368
_cell_length_c   11.73817447
_cell_angle_alpha   89.99906958
_cell_angle_beta   90.00054869
_cell_angle_gamma   92.14545248
_symmetry_Int_Tables_number   1
_chemical_formula_structural   CdH14C18N2(ClO3)2
_chemical_formula_sum   'Cd2 H28 C36 N4 Cl4 O12'
_cell_volume   969.00165724
_cell_formula_units_Z   2
loop_
 _symmetry_equiv_pos_site_id
 _symmetry_equiv_pos_as_xyz
  1  'x, y, z'
loop_
 _atom_site_type_symbol
 _atom_site_label
 _atom_site_symmetry_multiplicity
 _atom_site_fract_x
 _atom_site_fract_y
 _atom_site_fract_z
 _atom_site_occupancy
 _atom_site_hle17_bader_spin_density
 _atom_site_hle17_ddec_charge
 _atom_site_hle17_ddec_spin_density
 _atom_site_hle17_ddec_sum_bond_order
 _atom_site_hle17_magmom
 _atom_site_hse06_10hf_bader_spin_density
 _atom_site_hse06_10hf_ddec_charge
 _atom_site_hse06_10hf_ddec_spin_density
 _atom_site_hse06_10hf_ddec_sum_bond_order
 _atom_site_hse06_10hf_magmom
 _atom_site_hse06_bader_spin_density
 _atom_site_hse06_ddec_charge
 _atom_site_hse06_ddec_spin_density
 _atom_site_hse06_ddec_sum_bond_order
 _atom_site_hse06_magmom
 _atom_site_pbe_bader_spin_density
 _atom_site_pbe_cm5_charge
 _atom_site_pbe_ddec_charge
 _atom_site_pbe_ddec_spin_density
 _atom_site_pbe_ddec_sum_bond_order
 _atom_site_pbe_magmom
Cd  Cd0  1  0.74999435  0.75000214  0.22025752  1  0  1.151915  0  1.69406  0  0  0.965094  0  2.154198  0  0  1.017605  0  2.102923  0  0  0.769824  0.927843  0  2.18909  0
Cd  Cd1  1  0.25000587  0.24999769  0.77974792  1  0  1.1519  0  1.694132  0  0  0.9651  0  2.154276  0  0  1.017609  0  2.103  0  0  0.769819  0.927854  0  2.189182  0
H  H2  1  0.87430521  0.98576925  0.16678445  1  0  0.420333  0  0.825077  0  0  0.403402  0  0.878298  0  0  0.411874  0  0.869208  0  0  0.313284  0.39738  0  0.88481  0
H  H3  1  0.62569714  0.51423595  0.16679232  1  0  0.420378  0  0.824983  0  0  0.403406  0  0.878275  0  0  0.411876  0  0.86919  0  0  0.31332  0.397387  0  0.88478  0
H  H4  1  0.12570030  0.01423151  0.83321672  1  0  0.420428  0  0.824938  0  0  0.403496  0  0.878173  0  0  0.411969  0  0.869076  0  0  0.313299  0.397476  0  0.884695  0
H  H5  1  0.37430857  0.48576851  0.83321737  1  0  0.420341  0  0.825084  0  0  0.403385  0  0.878341  0  0  0.411854  0  0.869258  0  0  0.313289  0.397367  0  0.884853  0
H  H6  1  0.05751332  0.91914211  0.18578796  1  0  0.416838  0  0.903024  0  0  0.379844  0  0.977022  0  0  0.391973  0  0.960136  0  0  0.275148  0.371377  0  0.988762  0
H  H7  1  0.44247607  0.58085261  0.18579593  1  0  0.416884  0  0.90295  0  0  0.379871  0  0.976965  0  0  0.392001  0  0.960077  0  0  0.275208  0.371408  0  0.988705  0
H  H8  1  0.94248801  0.08085402  0.81420725  1  0  0.416915  0  0.902916  0  0  0.379886  0  0.976958  0  0  0.392014  0  0.960073  0  0  0.275203  0.371427  0  0.988689  0
H  H9  1  0.55751887  0.41914630  0.81420696  1  0  0.416888  0  0.902957  0  0  0.379856  0  0.976997  0  0  0.391986  0  0.96011  0  0  0.275172  0.371395  0  0.988732  0
H  H10  1  0.08395952  0.54868987  0.42023442  1  0  0.102057  0  0.986103  0  0  0.106903  0  1.060097  0  0  0.110406  0  1.058143  0  0  0.09314  0.104096  0  1.062351  0
H  H11  1  0.41602833  0.95130820  0.42022391  1  0  0.102041  0  0.986122  0  0  0.106853  0  1.06014  0  0  0.110353  0  1.05819  0  0  0.09314  0.104066  0  1.062378  0
H  H12  1  0.91602898  0.45131090  0.57976250  1  0  0.102052  0  0.986082  0  0  0.106917  0  1.060053  0  0  0.110419  0  1.058101  0  0  0.093152  0.10413  0  1.062292  0
H  H13  1  0.58396545  0.04869349  0.57976278  1  0  0.102066  0  0.986146  0  0  0.106927  0  1.060107  0  0  0.110431  0  1.058152  0  0  0.093171  0.104141  0  1.062345  0
H  H14  1  0.91389011  0.91713291  0.63967463  1  0  0.114847  0  0.959269  0  0  0.1225  0  1.026033  0  0  0.126102  0  1.024522  0  0  0.104971  0.119874  0  1.027348  0
H  H15  1  0.58609745  0.58285488  0.63967272  1  0  0.114889  0  0.958989  0  0  0.122505  0  1.025854  0  0  0.126106  0  1.024344  0  0  0.104972  0.11988  0  1.027175  0
H  H16  1  0.08612336  0.08286969  0.36032995  1  0  0.114931  0  0.959284  0  0  0.122582  0  1.026054  0  0  0.126182  0  1.024542  0  0  0.104987  0.119951  0  1.027386  0
H  H17  1  0.41390057  0.41715236  0.36033442  1  0  0.114807  0  0.959144  0  0  0.122444  0  1.025986  0  0  0.126046  0  1.024474  0  0  0.104921  0.119818  0  1.027305  0
H  H18  1  0.90591282  0.91000607  0.42531850  1  0  0.081124  0  0.95346  0  0  0.089936  0  1.019391  0  0  0.091957  0  1.018055  0  0  0.111546  0.08845  0  1.020448  0
H  H19  1  0.59407605  0.58999282  0.42531568  1  0  0.081183  0  0.953447  0  0  0.08998  0  1.019384  0  0  0.092  0  1.01805  0  0  0.111547  0.088483  0  1.020446  0
H  H20  1  0.09408263  0.09000210  0.57468523  1  0  0.081079  0  0.953354  0  0  0.08992  0  1.019279  0  0  0.09194  0  1.017945  0  0  0.111531  0.088436  0  1.020332  0
H  H21  1  0.40591924  0.41001257  0.57468976  1  0  0.081149  0  0.95336  0  0  0.089944  0  1.0193  0  0  0.091963  0  1.017967  0  0  0.111538  0.088459  0  1.020348  0
H  H22  1  0.48308758  0.70696977  0.01280143  1  0  0.085999  0  0.944559  0  0  0.094717  0  1.006384  0  0  0.0973  0  1.003925  0  0  0.118122  0.092776  0  1.00821  0
H  H23  1  0.01689645  0.79302239  0.01280532  1  0  0.085926  0  0.944372  0  0  0.094628  0  1.006241  0  0  0.097274  0  1.003706  0  0  0.11812  0.092666  0  1.008088  0
H  H24  1  0.51692185  0.29303098  0.98719975  1  0  0.085986  0  0.944441  0  0  0.09467  0  1.006309  0  0  0.097254  0  1.003845  0  0  0.118078  0.092716  0  1.008148  0
H  H25  1  0.98312295  0.20696910  0.98720437  1  0  0.086006  0  0.944409  0  0  0.094697  0  1.006298  0  0  0.097304  0  1.003806  0  0  0.118145  0.092734  0  1.008146  0
H  H26  1  0.47350997  0.70202754  0.80017855  1  0  0.08863  0  0.989433  0  0  0.093162  0  1.062664  0  0  0.096406  0  1.06121  0  0  0.095807  0.090864  0  1.063817  0
H  H27  1  0.02646983  0.79795843  0.80018158  1  0  0.088755  0  0.98952  0  0  0.093279  0  1.062721  0  0  0.096524  0  1.061264  0  0  0.09586  0.090984  0  1.063879  0
H  H28  1  0.52648809  0.29798062  0.19982092  1  0  0.088555  0  0.989618  0  0  0.093082  0  1.062832  0  0  0.096322  0  1.061381  0  0  0.095798  0.090789  0  1.063985  0
H  H29  1  0.97354030  0.20203122  0.19982556  1  0  0.088849  0  0.989339  0  0  0.093376  0  1.062529  0  0  0.09662  0  1.061073  0  0  0.095909  0.091083  0  1.063675  0
C  C30  1  0.14255798  0.62982618  0.20683795  1  0  0.66677  0  3.912937  0  0  0.614273  0  4.217719  0  0  0.648236  0  4.209114  0  0  0.204851  0.591159  0  4.222952  0
C  C31  1  0.35741987  0.87016726  0.20683170  1  0  0.666996  0  3.912693  0  0  0.614582  0  4.217371  0  0  0.64855  0  4.208755  0  0  0.205038  0.591471  0  4.222604  0
C  C32  1  0.85743011  0.37016718  0.79315812  1  0  0.66684  0  3.912936  0  0  0.614383  0  4.217689  0  0  0.648349  0  4.209084  0  0  0.204993  0.591274  0  4.222913  0
C  C33  1  0.64257089  0.12982703  0.79315755  1  0  0.666932  0  3.912677  0  0  0.61438  0  4.217569  0  0  0.648343  0  4.208961  0  0  0.204905  0.591269  0  4.222798  0
C  C34  1  0.74999460  0.74999467  0.65691315  1  0  0.102593  0  3.762521  0  0  0.111507  0  3.994611  0  0  0.116957  0  4.014952  0  0  0.013847  0.107497  0  3.980912  0
C  C35  1  0.25001237  0.25000886  0.34309228  1  0  0.102606  0  3.762822  0  0  0.111603  0  3.994802  0  0  0.117027  0  4.015179  0  0  0.013931  0.107598  0  3.981098  0
C  C36  1  0.15778325  0.63680277  0.41997245  1  0  -0.136841  0  3.75322  0  0  -0.169262  0  4.011351  0  0  -0.170666  0  4.030356  0  0  -0.099913  -0.168563  0  3.999608  0
C  C37  1  0.34219680  0.86319624  0.41996706  1  0  -0.136675  0  3.75305  0  0  -0.169048  0  4.011195  0  0  -0.170446  0  4.030198  0  0  -0.099884  -0.168368  0  3.999447  0
C  C38  1  0.84220268  0.36319893  0.58002447  1  0  -0.136817  0  3.75314  0  0  -0.169242  0  4.011272  0  0  -0.170644  0  4.030278  0  0  -0.099882  -0.16856  0  3.999526  0
C  C39  1  0.65779149  0.13680082  0.58002389  1  0  -0.136832  0  3.753165  0  0  -0.169254  0  4.011294  0  0  -0.170659  0  4.0303  0  0  -0.099924  -0.168576  0  3.999548  0
C  C40  1  0.20639274  0.69174644  0.52325741  1  0  0.057793  0  3.83524  0  0  0.061968  0  4.108091  0  0  0.064098  0  4.129429  0  0  -0.001966  0.060447  0  4.093747  0
C  C41  1  0.29359541  0.80825263  0.52325596  1  0  0.057805  0  3.835153  0  0  0.061976  0  4.107991  0  0  0.064108  0  4.129327  0  0  -0.001953  0.060452  0  4.093657  0
C  C42  1  0.79360089  0.30825247  0.47673439  1  0  0.057673  0  3.835354  0  0  0.061875  0  4.108149  0  0  0.064006  0  4.129486  0  0  -0.002092  0.060349  0  4.093812  0
C  C43  1  0.70639586  0.19175091  0.47673670  1  0  0.057753  0  3.835245  0  0  0.061936  0  4.108051  0  0  0.064068  0  4.129388  0  0  -0.002007  0.060415  0  4.093715  0
C  C44  1  0.20081719  0.69366199  0.31619878  1  0  -0.059356  0  3.712569  0  0  -0.043598  0  3.94644  0  0  -0.046776  0  3.965061  0  0  -0.014636  -0.041651  0  3.933969  0
C  C45  1  0.29916120  0.80633511  0.31619739  1  0  -0.059713  0  3.71274  0  0  -0.044016  0  3.94667  0  0  -0.047202  0  3.965288  0  0  -0.014799  -0.042073  0  3.934207  0
C  C46  1  0.79917131  0.30633878  0.68379558  1  0  -0.059442  0  3.712325  0  0  -0.04375  0  3.9463  0  0  -0.046933  0  3.964923  0  0  -0.014727  -0.041812  0  3.933842  0
C  C47  1  0.70082830  0.19366010  0.68379186  1  0  -0.059455  0  3.712228  0  0  -0.04372  0  3.946214  0  0  -0.046901  0  3.964837  0  0  -0.014698  -0.041772  0  3.933753  0
C  C48  1  0.84182869  0.84266169  0.59526176  1  0  -0.162288  0  3.692245  0  0  -0.18093  0  3.944029  0  0  -0.189279  0  3.965069  0  0  -0.085701  -0.175584  0  3.930451  0
C  C49  1  0.65816106  0.65733056  0.59525577  1  0  -0.162174  0  3.691812  0  0  -0.180843  0  3.94368  0  0  -0.189192  0  3.96472  0  0  -0.085697  -0.175511  0  3.930101  0
C  C50  1  0.15817189  0.15734462  0.40474538  1  0  -0.162371  0  3.692432  0  0  -0.181059  0  3.944267  0  0  -0.189397  0  3.965311  0  0  -0.085676  -0.175713  0  3.930679  0
C  C51  1  0.34184460  0.34267297  0.40474797  1  0  -0.162079  0  3.692103  0  0  -0.18079  0  3.943911  0  0  -0.18913  0  3.964959  0  0  -0.085659  -0.175451  0  3.930328  0
C  C52  1  0.83741768  0.83973926  0.47690009  1  0  0.131646  0  3.713714  0  0  0.099994  0  3.967849  0  0  0.106813  0  3.988025  0  0  0.042489  0.096115  0  3.953935  0
C  C53  1  0.66257051  0.66025689  0.47690005  1  0  0.131455  0  3.714209  0  0  0.099858  0  3.968289  0  0  0.106679  0  3.988465  0  0  0.042478  0.095988  0  3.954387  0
C  C54  1  0.16258557  0.16026798  0.52310364  1  0  0.131647  0  3.713548  0  0  0.099968  0  3.967776  0  0  0.106786  0  3.987952  0  0  0.042445  0.096089  0  3.953858  0
C  C55  1  0.33742630  0.33975220  0.52310454  1  0  0.131408  0  3.714128  0  0  0.099868  0  3.968196  0  0  0.106691  0  3.988369  0  0  0.042539  0.095992  0  3.954288  0
C  C56  1  0.60146390  0.72503253  0.96255752  1  0  0.147127  0  3.686776  0  0  0.118018  0  3.931793  0  0  0.12598  0  3.948558  0  0  0.053553  0.11285  0  3.920564  0
C  C57  1  0.89851279  0.77495524  0.96255465  1  0  0.147501  0  3.686506  0  0  0.11837  0  3.931541  0  0  0.126287  0  3.948296  0  0  0.053683  0.113217  0  3.920317  0
C  C58  1  0.39853748  0.27496452  0.03744877  1  0  0.147013  0  3.686646  0  0  0.117943  0  3.931649  0  0  0.125904  0  3.948418  0  0  0.053568  0.112783  0  3.920425  0
C  C59  1  0.10148969  0.22503811  0.03744824  1  0  0.147515  0  3.686548  0  0  0.118357  0  3.93161  0  0  0.126305  0  3.94837  0  0  0.053663  0.113205  0  3.920389  0
C  C60  1  0.59660064  0.72228824  0.84425122  1  0  -0.143027  0  3.699429  0  0  -0.160905  0  3.944788  0  0  -0.16796  0  3.965247  0  0  -0.080399  -0.156585  0  3.931442  0
C  C61  1  0.90338481  0.77770064  0.84424834  1  0  -0.143238  0  3.699829  0  0  -0.161081  0  3.945178  0  0  -0.168139  0  3.965659  0  0  -0.080442  -0.156768  0  3.931837  0
C  C62  1  0.40341297  0.27771714  0.15575847  1  0  -0.142876  0  3.699341  0  0  -0.160741  0  3.944711  0  0  -0.167792  0  3.965166  0  0  -0.080342  -0.156429  0  3.931367  0
C  C63  1  0.09663469  0.22229269  0.15575284  1  0  -0.143526  0  3.699797  0  0  -0.16132  0  3.945124  0  0  -0.168379  0  3.96559  0  0  -0.080486  -0.157003  0  3.931776  0
C  C64  1  0.74999941  0.74999358  0.78260561  1  0  0.100023  0  3.744249  0  0  0.11291  0  3.971778  0  0  0.115622  0  3.994286  0  0  0.013308  0.111449  0  3.956753  0
C  C65  1  0.25001536  0.25000902  0.21739812  1  0  0.100192  0  3.744091  0  0  0.113026  0  3.971625  0  0  0.115747  0  3.994133  0  0  0.013289  0.111563  0  3.956605  0
N  N66  1  0.74998595  0.74999554  0.02075290  1  0  -0.328338  0  3.261117  0  0  -0.25077  0  3.520691  0  0  -0.269972  0  3.537984  0  0  -0.324445  -0.237701  0  3.508696  0
N  N67  1  0.25001925  0.24999966  0.97924998  1  0  -0.328315  0  3.261078  0  0  -0.250735  0  3.520639  0  0  -0.269935  0  3.537919  0  0  -0.324462  -0.237664  0  3.508644  0
N  N68  1  0.74999298  0.74999765  0.41835902  1  0  -0.342336  0  3.258907  0  0  -0.26218  0  3.525779  0  0  -0.282653  0  3.545054  0  0  -0.331192  -0.248053  0  3.511595  0
N  N69  1  0.25000504  0.25000958  0.58164556  1  0  -0.34226  0  3.258809  0  0  -0.262184  0  3.52579  0  0  -0.282653  0  3.545055  0  0  -0.331304  -0.248076  0  3.511655  0
Cl  Cl70  1  0.15816572  0.61506335  0.64884721  1  0  -0.043182  0  1.480126  0  0  -0.020912  0  1.732996  0  0  -0.023214  0  1.728181  0  0  0.044606  -0.019066  0  1.736699  0
Cl  Cl71  1  0.34182701  0.88493725  0.64884235  1  0  -0.043179  0  1.480152  0  0  -0.02089  0  1.732991  0  0  -0.023193  0  1.728176  0  0  0.044638  -0.019046  0  1.736696  0
Cl  Cl72  1  0.84183597  0.38493925  0.35114800  1  0  -0.043093  0  1.480105  0  0  -0.02084  0  1.73297  0  0  -0.023143  0  1.728155  0  0  0.044663  -0.018994  0  1.736665  0
Cl  Cl73  1  0.65817069  0.11506444  0.35114775  1  0  -0.043171  0  1.480085  0  0  -0.0209  0  1.732931  0  0  -0.023202  0  1.728115  0  0  0.044629  -0.01906  0  1.736633  0
O  O74  1  0.97899127  0.61422086  0.19056552  1  0  -0.650973  0  1.987548  0  0  -0.59524  0  2.243277  0  0  -0.622225  0  2.230484  0  0  -0.339852  -0.576051  0  2.251436  0
O  O75  1  0.52099541  0.88577839  0.19056550  1  0  -0.651193  0  1.987186  0  0  -0.595489  0  2.242867  0  0  -0.622479  0  2.230068  0  0  -0.340018  -0.576301  0  2.251031  0
O  O76  1  0.02100347  0.38577435  0.80942628  1  0  -0.651056  0  1.987299  0  0  -0.59532  0  2.242978  0  0  -0.622307  0  2.230183  0  0  -0.33997  -0.576132  0  2.251137  0
O  O77  1  0.47899937  0.11421775  0.80942971  1  0  -0.651174  0  1.987385  0  0  -0.595423  0  2.243136  0  0  -0.622409  0  2.230337  0  0  -0.339954  -0.576237  0  2.2513  0
O  O78  1  0.26031689  0.59363196  0.13964670  1  0  -0.610533  0  1.940752  0  0  -0.561089  0  2.156162  0  0  -0.585643  0  2.145497  0  0  -0.323991  -0.543791  0  2.163194  0
O  O79  1  0.23967003  0.90635430  0.13963749  1  0  -0.610522  0  1.940968  0  0  -0.56111  0  2.156355  0  0  -0.585658  0  2.145674  0  0  -0.324048  -0.543813  0  2.163385  0
O  O80  1  0.73967744  0.40635584  0.86035022  1  0  -0.610474  0  1.941043  0  0  -0.561034  0  2.156452  0  0  -0.585581  0  2.145777  0  0  -0.323965  -0.543736  0  2.163474  0
O  O81  1  0.76032853  0.09363905  0.86035006  1  0  -0.610524  0  1.940851  0  0  -0.561025  0  2.156275  0  0  -0.585578  0  2.145615  0  0  -0.323967  -0.54373  0  2.163298  0
O  O82  1  0.93304617  0.93085964  0.21881613  1  0  -0.848927  0  1.874245  0  0  -0.791081  0  2.087959  0  0  -0.814189  0  2.059661  0  0  -0.581736  -0.77462  0  2.107351  0
O  O83  1  0.56694760  0.56914189  0.21882282  1  0  -0.849011  0  1.874143  0  0  -0.791087  0  2.087966  0  0  -0.814194  0  2.05967  0  0  -0.581821  -0.774627  0  2.107343  0
O  O84  1  0.06695798  0.06914019  0.78118504  1  0  -0.849096  0  1.87413  0  0  -0.791237  0  2.087906  0  0  -0.814345  0  2.059608  0  0  -0.581788  -0.774779  0  2.107295  0
O  O85  1  0.43304759  0.43086165  0.78118261  1  0  -0.848973  0  1.874233  0  0  -0.791054  0  2.088031  0  0  -0.814161  0  2.059735  0  0  -0.581739  -0.774596  0  2.107415  0
