# generated using pymatgen
data_FeH8C4O7
_symmetry_space_group_name_H-M   'P 1'
_cell_length_a   6.94315470
_cell_length_b   10.34922200
_cell_length_c   10.67710166
_cell_angle_alpha   90.00195351
_cell_angle_beta   97.50473587
_cell_angle_gamma   89.99807269
_symmetry_Int_Tables_number   1
_chemical_formula_structural   FeH8C4O7
_chemical_formula_sum   'Fe4 H32 C16 O28'
_cell_volume   760.64455553
_cell_formula_units_Z   4
loop_
 _symmetry_equiv_pos_site_id
 _symmetry_equiv_pos_as_xyz
  1  'x, y, z'
loop_
 _atom_site_type_symbol
 _atom_site_label
 _atom_site_symmetry_multiplicity
 _atom_site_fract_x
 _atom_site_fract_y
 _atom_site_fract_z
 _atom_site_occupancy
 _atom_site_hle17_ddec_charge
 _atom_site_hle17_ddec_spin_density
 _atom_site_hle17_ddec_sum_bond_order
 _atom_site_hle17_magmom
 _atom_site_hse06_10hf_ddec_charge
 _atom_site_hse06_10hf_ddec_spin_density
 _atom_site_hse06_10hf_ddec_sum_bond_order
 _atom_site_hse06_10hf_magmom
 _atom_site_hse06_ddec_charge
 _atom_site_hse06_ddec_spin_density
 _atom_site_hse06_ddec_sum_bond_order
 _atom_site_hse06_magmom
 _atom_site_pbe_cm5_charge
 _atom_site_pbe_ddec_charge
 _atom_site_pbe_ddec_spin_density
 _atom_site_pbe_ddec_sum_bond_order
 _atom_site_pbe_magmom
Fe  Fe0  1  0.93394134  0.60456443  0.19594247  1  1.120335  3.891453  1.901582  3.653  1.009699  3.866497  2.362178  3.65  1.076179  3.892112  2.287668  3.705  0.652401  0.958467  3.845576  2.418003  3.601
Fe  Fe1  1  0.43483399  0.89549607  0.69596284  1  1.119761  3.887548  1.897857  3.65  1.008508  3.861459  2.358399  3.646  1.075782  3.88985  2.284023  3.703  0.650214  0.955974  3.834813  2.413362  3.591
Fe  Fe2  1  0.06514673  0.39550590  0.80400092  1  1.119771  -3.945357  1.897583  -3.65  1.008379  -3.896358  2.358279  -3.646  1.075658  -3.927245  2.283911  -3.703  0.650173  0.955789  -3.871822  2.413238  -3.591
Fe  Fe3  1  0.56609267  0.10455781  0.30408100  1  1.120348  3.891466  1.901344  3.653  1.009732  3.866572  2.361889  3.65  1.076199  3.892151  2.287385  3.705  0.652351  0.958425  3.845668  2.417765  3.601
H  H4  1  0.98653747  0.95443522  0.28596143  1  0.106109  1.4e-05  0.917797  0.0  0.114885  0.000263  0.98371  0.0  0.118254  0.000156  0.980452  0.0  0.11579  0.111841  0.000313  0.986759  0.0
H  H5  1  0.48415879  0.54425524  0.78527166  1  0.105698  6.7e-05  0.918474  0.0  0.114358  0.000106  0.984135  0.0  0.117595  9.1e-05  0.98096  0.0  0.115599  0.111665  0.000121  0.986981  0.0
H  H6  1  0.01588800  0.04420406  0.71468902  1  0.105723  4.8e-05  0.918585  0.0  0.114426  0.000129  0.984226  0.0  0.117663  7.3e-05  0.98105  0.0  0.11557  0.111734  0.00019  0.987056  0.0
H  H7  1  0.51345792  0.45439856  0.21404677  1  0.106001  -0.000101  0.918014  0.0  0.114845  2.3e-05  0.983921  0.0  0.118223  -1e-05  0.980647  0.0  0.115716  0.111782  -1e-06  0.987001  0.0
H  H8  1  0.84084058  0.97647061  0.13675839  1  0.091662  1e-05  0.930749  0.0  0.100391  0.00027  0.999416  0.0  0.103399  0.000157  0.99531  0.0  0.110009  0.097505  0.000382  1.003351  0.0
H  H9  1  0.33881131  0.52512617  0.63550882  1  0.091108  0.000243  0.931244  0.0  0.099427  0.000316  0.999864  0.0  0.102373  0.000231  0.99575  0.0  0.109985  0.096887  0.000445  1.003492  0.0
H  H10  1  0.16112260  0.02517277  0.86450839  1  0.091294  -0.00018  0.931148  0.0  0.09962  -0.000129  0.999751  0.0  0.102562  -0.000111  0.995648  0.0  0.110077  0.097071  -0.000194  1.003382  0.0
H  H11  1  0.65914295  0.47645440  0.36325929  1  0.091692  -3.1e-05  0.930612  0.0  0.100475  0.000165  0.999261  0.0  0.103482  9e-05  0.995159  0.0  0.110043  0.097596  0.000239  1.003183  0.0
H  H12  1  0.27801434  0.88797816  0.18802534  1  0.114634  -0.000442  0.935432  0.0  0.122686  -0.000396  1.000536  0.0  0.125454  -0.00041  0.998237  0.0  0.117203  0.120669  -0.000383  1.002456  0.0
H  H13  1  0.77780510  0.61113753  0.68788467  1  0.11519  0.000294  0.936809  0.0  0.123541  0.00046  1.001399  0.0  0.126341  0.000411  0.999065  0.0  0.117299  0.121358  0.000506  1.003484  0.0
H  H14  1  0.72210191  0.11113363  0.81214165  1  0.115241  -0.000275  0.936802  0.0  0.123511  -0.000413  1.001467  0.0  0.126317  -0.000381  0.99916  0.0  0.117307  0.121344  -0.000437  1.003544  0.0
H  H15  1  0.22199712  0.38796073  0.31197663  1  0.114702  -0.000456  0.935416  0.0  0.122664  -0.000432  1.00052  0.0  0.125433  -0.00043  0.998214  0.0  0.117223  0.120638  -0.000438  1.002451  0.0
H  H16  1  0.16085439  0.89645553  0.02877244  1  0.091595  0.000157  0.924419  0.0  0.101128  0.000293  0.988199  0.001  0.103569  0.000179  0.985224  0.0  0.108809  0.099321  0.0004  0.990669  0.001
H  H17  1  0.65887144  0.60366010  0.52896486  1  0.092419  0.000158  0.921812  0.0  0.102005  0.000302  0.985625  0.001  0.104437  0.000202  0.982648  0.0  0.10877  0.100106  0.000385  0.988214  0.001
H  H18  1  0.84121192  0.10372395  0.97102325  1  0.09233  -0.000241  0.921932  0.0  0.102088  -0.000408  0.985571  -0.001  0.104527  -0.000309  0.982604  0.0  0.108785  0.100192  -0.000504  0.988172  -0.001
H  H19  1  0.33914629  0.39646918  0.47122643  1  0.091624  0.000221  0.924535  0.0  0.101057  0.000403  0.988343  0.001  0.103496  0.00028  0.985367  0.0  0.108749  0.09925  0.000519  0.990815  0.001
H  H20  1  0.02431222  0.67146860  0.44350947  1  0.429477  -0.000149  0.872415  0.0  0.396492  3.2e-05  0.938915  0.0  0.407981  -6.9e-05  0.922424  0.0  0.293488  0.388364  0.000137  0.950569  0.0
H  H21  1  0.52357891  0.82838232  0.94351987  1  0.430026  -0.000155  0.871466  0.0  0.397286  1.7e-05  0.937608  0.0  0.408754  -8.5e-05  0.921161  0.0  0.293801  0.389135  0.00011  0.949252  0.0
H  H22  1  0.97640128  0.32840942  0.55645418  1  0.429995  0.000283  0.8715  0.0  0.397335  0.000159  0.937526  0.0  0.408771  0.000188  0.92111  0.0  0.293821  0.389188  0.000137  0.949176  0.0
H  H23  1  0.47573914  0.17151311  0.05651486  1  0.429581  -0.00031  0.87231  0.0  0.396577  -0.00019  0.93882  0.0  0.408059  -0.000218  0.922337  0.0  0.293574  0.388448  -0.000165  0.950475  0.0
H  H24  1  0.22077839  0.67409758  0.38734756  1  0.429089  -0.000145  0.810917  0.0  0.412573  0.000201  0.86382  0.001  0.42135  3.6e-05  0.854355  0.0  0.320581  0.405972  0.000373  0.871008  0.001
H  H25  1  0.72049749  0.82708445  0.88788724  1  0.429772  -0.000163  0.810892  0.0  0.413199  0.000172  0.863837  0.001  0.422003  1.9e-05  0.854354  0.0  0.32096  0.406625  0.000326  0.870986  0.001
H  H26  1  0.77951273  0.32708778  0.61211737  1  0.429887  0.000111  0.810766  0.0  0.413281  -0.000182  0.863759  -0.001  0.422094  -8.3e-05  0.854265  0.0  0.32094  0.406698  -0.000271  0.870923  -0.001
H  H27  1  0.27927353  0.17411350  0.11268533  1  0.429277  -9.1e-05  0.810925  0.0  0.412771  0.000206  0.863811  0.001  0.421553  9.8e-05  0.85433  0.0  0.320674  0.40616  0.000311  0.87103  0.001
H  H28  1  0.62340886  0.62719638  0.02194800  1  0.418783  -0.000176  0.889696  -0.001  0.386208  7.1e-05  0.957396  0.0  0.397664  -3.3e-05  0.940693  0.0  0.290019  0.378086  0.000187  0.969218  0.0
H  H29  1  0.12354171  0.87243957  0.52232503  1  0.419527  -0.000175  0.888902  -0.001  0.386502  6.7e-05  0.957118  0.0  0.398024  -3.6e-05  0.940339  0.0  0.290118  0.378333  0.00016  0.968989  0.0
H  H30  1  0.37637391  0.37243912  0.97765909  1  0.419483  0.000167  0.88886  0.0  0.38641  -7.4e-05  0.957132  0.0  0.397922  2.4e-05  0.940372  0.0  0.290059  0.378247  -0.000163  0.968996  0.0
H  H31  1  0.87666448  0.12718820  0.47807536  1  0.41907  -0.000192  0.889353  -0.001  0.386342  4.5e-05  0.957291  0.0  0.397827  -5.2e-05  0.940562  0.0  0.290073  0.378212  0.000153  0.96912  0.0
H  H32  1  0.76379158  0.52610419  0.96186378  1  0.424707  0.000304  0.88008  0.001  0.393942  0.000478  0.944128  0.001  0.405097  0.000393  0.927959  0.001  0.290376  0.385945  0.000532  0.955689  0.001
H  H33  1  0.26405857  0.97357408  0.46217795  1  0.424606  0.000207  0.880044  0.001  0.393705  0.000418  0.944359  0.001  0.40491  0.00023  0.928124  0.001  0.290524  0.385545  0.000573  0.956137  0.002
H  H34  1  0.23585987  0.47355933  0.03781545  1  0.424489  -0.000306  0.880202  -0.001  0.393575  -0.000479  0.944533  -0.001  0.404788  -0.000391  0.928285  -0.001  0.290425  0.385409  -0.000551  0.956323  -0.001
H  H35  1  0.73626220  0.02609911  0.53814007  1  0.424837  0.000214  0.879916  0.001  0.394103  0.000428  0.943899  0.001  0.405253  0.000243  0.927735  0.001  0.290467  0.38611  0.000587  0.955454  0.002
C  C36  1  0.72324201  0.83928303  0.25904387  1  0.696582  -0.003663  3.821931  -0.005  0.64497  0.000859  4.130575  0.002  0.682438  0.001066  4.122739  0.003  0.218663  0.616213  -0.002041  4.136468  -0.003
C  C37  1  0.22246514  0.66115238  0.75949296  1  0.69656  -0.005453  3.826199  -0.009  0.643401  -0.005052  4.136539  -0.008  0.680501  -0.00349  4.129103  -0.006  0.219356  0.616417  -0.007206  4.141179  -0.011
C  C38  1  0.27752707  0.16114479  0.74050617  1  0.696571  0.005383  3.826307  0.009  0.643488  0.005057  4.136545  0.008  0.680586  0.003485  4.12911  0.006  0.219365  0.616487  0.007201  4.141186  0.011
C  C39  1  0.77677571  0.33925808  0.24097401  1  0.696287  -0.003651  3.822213  -0.005  0.644834  0.000837  4.130632  0.002  0.682297  0.001053  4.122802  0.003  0.218582  0.616086  -0.002078  4.136517  -0.003
C  C40  1  0.89479906  0.90419726  0.20872935  1  -0.079108  0.001948  3.617939  0.004  -0.138536  0.002615  3.881529  0.004  -0.135952  0.001758  3.88101  0.003  -0.06466  -0.139733  0.003538  3.882468  0.005
C  C41  1  0.39356645  0.59605973  0.70860373  1  -0.077316  0.000717  3.618989  0.002  -0.13497  0.000718  3.879943  0.002  -0.132188  0.000388  3.879567  0.001  -0.063889  -0.136711  0.001169  3.880483  0.003
C  C42  1  0.10640005  0.09606243  0.79136015  1  -0.077697  -0.000577  3.619036  -0.002  -0.135698  -0.000328  3.880107  -0.001  -0.13293  -0.000111  3.879732  -0.001  -0.064128  -0.137401  -0.000668  3.880619  -0.002
C  C43  1  0.60520639  0.40417486  0.29128339  1  -0.078816  0.001808  3.617627  0.004  -0.138578  0.002267  3.88143  0.003  -0.136  0.001509  3.880936  0.002  -0.064673  -0.139788  0.003085  3.882413  0.005
C  C44  1  0.18170004  0.83621170  0.11444206  1  -0.072639  0.001037  3.60251  0.002  -0.126432  0.001338  3.855577  0.002  -0.123874  0.000794  3.856337  0.002  -0.063456  -0.128335  0.001904  3.855305  0.003
C  C45  1  0.68131910  0.66354316  0.61486274  1  -0.074026  0.001162  3.60334  0.002  -0.128165  0.001538  3.856144  0.003  -0.125595  0.001024  3.85687  0.002  -0.06351  -0.130006  0.002058  3.85585  0.003
C  C46  1  0.81864694  0.16356873  0.88510444  1  -0.073849  -0.001132  3.603193  -0.002  -0.12835  -0.00145  3.856035  -0.002  -0.125855  -0.000976  3.856858  -0.002  -0.063617  -0.130214  -0.001879  3.855798  -0.003
C  C47  1  0.31831179  0.33620734  0.38556860  1  -0.072754  0.001089  3.602928  0.002  -0.126145  0.001375  3.855425  0.002  -0.123574  0.000833  3.856181  0.002  -0.06339  -0.128064  0.001987  3.85518  0.003
C  C48  1  0.27844075  0.70984606  0.08568010  1  0.714617  -0.002848  3.805753  -0.004  0.654122  -0.001155  4.116433  -0.001  0.690197  -0.000697  4.106723  -0.001  0.2287  0.628759  -0.001863  4.122186  -0.003
C  C49  1  0.77888683  0.78962258  0.58614939  1  0.713763  -0.002982  3.806278  -0.005  0.652874  -0.001271  4.11739  -0.002  0.688952  -0.000794  4.107646  -0.001  0.227648  0.627255  -0.002241  4.123681  -0.003
C  C50  1  0.72109335  0.28966285  0.91383657  1  0.713781  0.002815  3.806784  0.005  0.652986  0.001173  4.117709  0.002  0.689077  0.00067  4.107981  0.001  0.22781  0.627384  0.00215  4.123978  0.003
C  C51  1  0.22157017  0.20985059  0.41433215  1  0.714648  -0.00294  3.805594  -0.004  0.654072  -0.001282  4.116247  -0.002  0.690147  -0.000806  4.10653  -0.001  0.228779  0.628714  -0.002015  4.121992  -0.003
O  O52  1  0.10274793  0.62275102  0.38668012  1  -0.821249  0.017107  1.871964  0.029  -0.776706  0.0193  2.073866  0.029  -0.800152  0.016501  2.0427  0.025  -0.570033  -0.759146  0.022021  2.096329  0.033
O  O53  1  0.60173887  0.87772430  0.88698576  1  -0.822008  0.017102  1.873463  0.029  -0.77768  0.019183  2.075502  0.029  -0.8012  0.01643  2.044279  0.025  -0.570161  -0.759687  0.021821  2.097563  0.033
O  O54  1  0.89823153  0.37775506  0.61298654  1  -0.822061  -0.017195  1.873312  -0.028  -0.777806  -0.019048  2.075348  -0.028  -0.801259  -0.016435  2.044144  -0.024  -0.57012  -0.759826  -0.021541  2.097399  -0.032
O  O55  1  0.39731920  0.12277505  0.11333128  1  -0.821563  0.016833  1.871933  0.028  -0.777041  0.018857  2.073916  0.028  -0.800474  0.01622  2.042748  0.024  -0.570221  -0.759495  0.021391  2.096405  0.032
O  O56  1  0.76131676  0.60486557  0.01540957  1  -0.851757  0.02173  1.927894  0.036  -0.806624  0.022931  2.138571  0.034  -0.832343  0.019551  2.101294  0.028  -0.589451  -0.787071  0.02617  2.164901  0.039
O  O57  1  0.26144433  0.89487734  0.51582363  1  -0.852715  0.021676  1.92772  0.036  -0.806997  0.022931  2.139662  0.034  -0.832877  0.019439  2.102234  0.028  -0.589322  -0.786997  0.026299  2.165947  0.039
O  O58  1  0.23846224  0.39485496  0.98416919  1  -0.852485  -0.021974  1.927586  -0.036  -0.806714  -0.022994  2.139682  -0.033  -0.832587  -0.019698  2.102243  -0.028  -0.589173  -0.786684  -0.026143  2.165944  -0.038
O  O59  1  0.73875297  0.10486155  0.48460915  1  -0.852102  0.021713  1.927351  0.037  -0.806869  0.022783  2.138169  0.034  -0.832609  0.019328  2.100796  0.028  -0.589597  -0.787341  0.026143  2.164539  0.039
O  O60  1  0.59146174  0.91273597  0.29269565  1  -0.628736  0.03296  2.06827  0.045  -0.571004  0.033285  2.341901  0.04  -0.605685  0.028326  2.326269  0.031  -0.323879  -0.545136  0.038212  2.353727  0.05
O  O61  1  0.09085838  0.58773824  0.79341944  1  -0.628563  -0.032972  2.065647  -0.044  -0.570753  -0.033688  2.340115  -0.04  -0.605706  -0.028885  2.324826  -0.032  -0.323428  -0.544733  -0.038138  2.350437  -0.047
O  O62  1  0.40914963  0.08772856  0.70658755  1  -0.628532  0.032354  2.065882  0.044  -0.570687  0.033238  2.340199  0.04  -0.605615  0.028439  2.324887  0.032  -0.323384  -0.544687  0.03766  2.350551  0.048
O  O63  1  0.90853989  0.41274179  0.20732842  1  -0.628748  0.033098  2.06803  0.045  -0.570978  0.03344  2.341478  0.04  -0.605679  0.028496  2.325876  0.031  -0.323807  -0.545099  0.038357  2.353266  0.05
O  O64  1  0.71890910  0.71743634  0.26496436  1  -0.614963  0.031059  2.053989  0.055  -0.569132  0.029804  2.323166  0.049  -0.602334  0.02462  2.310564  0.039  -0.310232  -0.544092  0.035682  2.331992  0.06
O  O65  1  0.21831658  0.78287666  0.76576053  1  -0.614957  0.022632  2.051998  0.038  -0.568297  0.02035  2.320612  0.029  -0.601621  0.017562  2.308453  0.024  -0.309229  -0.543386  0.023154  2.328844  0.035
O  O66  1  0.28168755  0.28286779  0.73426275  1  -0.61495  -0.022982  2.052137  -0.038  -0.568309  -0.020523  2.320749  -0.029  -0.601648  -0.017715  2.308607  -0.024  -0.309235  -0.543373  -0.023363  2.328961  -0.035
O  O67  1  0.78116247  0.21742558  0.23505613  1  -0.614865  0.031027  2.05436  0.055  -0.569  0.029753  2.323334  0.049  -0.60219  0.024586  2.310732  0.039  -0.310168  -0.543956  0.035614  2.332162  0.06
O  O68  1  0.00047708  0.80461007  0.15595574  1  -0.292089  0.017518  2.515248  0.024  -0.205546  0.020173  2.761737  0.027  -0.22737  0.0177  2.764644  0.022  -0.222305  -0.18926  0.022285  2.759157  0.031
O  O69  1  0.50106007  0.69570478  0.65747286  1  -0.292878  0.017747  2.520169  0.024  -0.206334  0.020327  2.766682  0.027  -0.228377  0.017905  2.769596  0.023  -0.222369  -0.189767  0.0224  2.76367  0.03
O  O70  1  0.99883297  0.19572885  0.84239880  1  -0.293049  -0.017943  2.520204  -0.024  -0.205842  -0.020324  2.766345  -0.027  -0.227848  -0.017951  2.769275  -0.023  -0.222253  -0.189284  -0.022363  2.763336  -0.03
O  O71  1  0.49953508  0.30458876  0.34405770  1  -0.292306  0.017487  2.515072  0.024  -0.205741  0.020061  2.761414  0.027  -0.227596  0.017623  2.76436  0.022  -0.2223  -0.189418  0.022142  2.758826  0.031
O  O72  1  0.20888856  0.60549571  0.12579604  1  -0.642233  0.022098  2.076927  0.039  -0.577455  0.021137  2.332708  0.033  -0.610368  0.017746  2.318284  0.027  -0.303637  -0.55221  0.024834  2.34099  0.04
O  O73  1  0.71009508  0.89413623  0.62642244  1  -0.642073  0.022231  2.078221  0.04  -0.577235  0.021284  2.334363  0.034  -0.610008  0.017795  2.319692  0.028  -0.303971  -0.552694  0.024954  2.34389  0.041
O  O74  1  0.78988992  0.39416588  0.87356144  1  -0.641989  -0.022441  2.078239  -0.039  -0.577122  -0.021298  2.334339  -0.033  -0.609894  -0.017943  2.319658  -0.027  -0.303989  -0.552575  -0.024793  2.343865  -0.04
O  O75  1  0.29110943  0.10549733  0.37420757  1  -0.642129  0.022217  2.076812  0.04  -0.577427  0.02127  2.332701  0.034  -0.610336  0.017746  2.318278  0.028  -0.303647  -0.552195  0.025139  2.340987  0.041
O  O76  1  0.42309612  0.71534243  0.02597519  1  -0.634706  0.000177  2.057084  0.001  -0.565588  9e-05  2.277798  0.001  -0.593401  -0.000122  2.26824  0.0  -0.298538  -0.546079  0.000393  2.284315  0.001
O  O77  1  0.92337493  0.78377800  0.52626890  1  -0.633989  0.000142  2.055029  0.001  -0.564519  7.7e-05  2.276036  0.001  -0.592289  -0.000141  2.266422  0.001  -0.298228  -0.545388  0.000211  2.28281  0.001
O  O78  1  0.57663991  0.28383023  0.97374864  1  -0.634032  -0.000472  2.055518  -0.001  -0.564618  -0.000361  2.276516  0.0  -0.592368  -0.000243  2.266882  0.0  -0.298269  -0.545503  -0.000386  2.283302  -0.001
O  O79  1  0.07692112  0.21535409  0.47404693  1  -0.634717  0.000337  2.056943  0.001  -0.565577  0.000239  2.277754  0.001  -0.593385  6.7e-05  2.268185  0.0  -0.298603  -0.546072  0.000527  2.284271  0.001
