# generated using pymatgen
data_HgH7C7Br2NO2
_symmetry_space_group_name_H-M   'P 1'
_cell_length_a   8.09353927
_cell_length_b   10.22277305
_cell_length_c   13.68157932
_cell_angle_alpha   68.77108646
_cell_angle_beta   84.71872982
_cell_angle_gamma   78.32324390
_symmetry_Int_Tables_number   1
_chemical_formula_structural   HgH7C7Br2NO2
_chemical_formula_sum   'Hg4 H28 C28 Br8 N4 O8'
_cell_volume   1033.12141680
_cell_formula_units_Z   4
loop_
 _symmetry_equiv_pos_site_id
 _symmetry_equiv_pos_as_xyz
  1  'x, y, z'
loop_
 _atom_site_type_symbol
 _atom_site_label
 _atom_site_symmetry_multiplicity
 _atom_site_fract_x
 _atom_site_fract_y
 _atom_site_fract_z
 _atom_site_occupancy
 _atom_site_hle17_bader_spin_density
 _atom_site_hle17_ddec_charge
 _atom_site_hle17_ddec_spin_density
 _atom_site_hle17_ddec_sum_bond_order
 _atom_site_hle17_magmom
 _atom_site_hse06_10hf_bader_spin_density
 _atom_site_hse06_10hf_ddec_charge
 _atom_site_hse06_10hf_ddec_spin_density
 _atom_site_hse06_10hf_ddec_sum_bond_order
 _atom_site_hse06_10hf_magmom
 _atom_site_hse06_bader_spin_density
 _atom_site_hse06_ddec_charge
 _atom_site_hse06_ddec_spin_density
 _atom_site_hse06_ddec_sum_bond_order
 _atom_site_hse06_magmom
 _atom_site_pbe_bader_spin_density
 _atom_site_pbe_cm5_charge
 _atom_site_pbe_ddec_charge
 _atom_site_pbe_ddec_spin_density
 _atom_site_pbe_ddec_sum_bond_order
 _atom_site_pbe_magmom
Hg  Hg0  1  0.38849254  0.32366155  0.42754245  1  0  0.644841  0  2.086297  0  0  0.512254  0  2.582269  0  0  0.56078  0  2.550277  0  0  0.408925  0.479291  0  2.604282  0
Hg  Hg1  1  0.61151263  0.67634816  0.57244700  1  0  0.644842  0  2.086301  0  0  0.512263  0  2.582254  0  0  0.560785  0  2.550267  0  0  0.4089  0.479301  0  2.604266  0
Hg  Hg2  1  0.88144738  0.35574893  0.45687638  1  0  0.623307  0  2.153821  0  0  0.50785  0  2.6419  0  0  0.552006  0  2.6149  0  0  0.392653  0.477938  0  2.661109  0
Hg  Hg3  1  0.11855154  0.64425547  0.54311115  1  0  0.623329  0  2.153855  0  0  0.507864  0  2.64197  0  0  0.552018  0  2.61497  0  0  0.39264  0.477954  0  2.661181  0
H  H4  1  0.91574716  0.53558827  0.08125157  1  0  0.10172  0  0.961306  0  0  0.109341  0  1.028051  0  0  0.1123  0  1.025553  0  0  0.104946  0.107219  0  1.02979  0
H  H5  1  0.08424783  0.46440542  0.91874266  1  0  0.101741  0  0.96135  0  0  0.10945  0  1.027994  0  0  0.112391  0  1.025522  0  0  0.104965  0.107323  0  1.02974  0
H  H6  1  0.71907991  0.36650032  0.16002904  1  0  0.102416  0  0.953519  0  0  0.111672  0  1.014121  0  0  0.115013  0  1.012842  0  0  0.098034  0.109348  0  1.015098  0
H  H7  1  0.28091233  0.63349440  0.83997017  1  0  0.102373  0  0.953514  0  0  0.111637  0  1.014109  0  0  0.114985  0  1.012814  0  0  0.098052  0.109322  0  1.015088  0
H  H8  1  0.82424532  0.12931150  0.29782269  1  0  0.088954  0  0.959451  0  0  0.098111  0  1.022552  0  0  0.101637  0  1.019834  0  0  0.086339  0.095613  0  1.02444  0
H  H9  1  0.17575115  0.87068639  0.70217985  1  0  0.089  0  0.959416  0  0  0.098131  0  1.022554  0  0  0.101656  0  1.019834  0  0  0.086326  0.095631  0  1.024444  0
H  H10  1  0.11946934  0.06552128  0.35237139  1  0  0.104993  0  0.978515  0  0  0.112995  0  1.04501  0  0  0.11666  0  1.043693  0  0  0.083256  0.110234  0  1.04653  0
H  H11  1  0.88052381  0.93448621  0.64762876  1  0  0.104979  0  0.978477  0  0  0.113012  0  1.04494  0  0  0.116676  0  1.043626  0  0  0.083262  0.11025  0  1.04646  0
H  H12  1  0.43628143  0.27700956  0.22803592  1  0  0.323462  0  0.904598  0  0  0.309537  0  0.960341  0  0  0.316802  0  0.954875  0  0  0.29815  0.304383  0  0.964173  0
H  H13  1  0.56371366  0.72299473  0.77196498  1  0  0.323469  0  0.904529  0  0  0.309539  0  0.960287  0  0  0.316804  0  0.954819  0  0  0.298129  0.304386  0  0.96412  0
H  H14  1  0.39635254  0.11705687  0.31575691  1  0  0.315888  0  0.892462  0  0  0.301547  0  0.955249  0  0  0.308395  0  0.95039  0  0  0.289174  0.296715  0  0.958655  0
H  H15  1  0.60364255  0.88294742  0.68424400  1  0  0.315797  0  0.892604  0  0  0.301545  0  0.955277  0  0  0.308359  0  0.950458  0  0  0.289197  0.296738  0  0.958656  0
H  H16  1  0.24770715  0.69617890  0.02271574  1  0  0.397563  0  0.895482  0  0  0.364262  0  0.976151  0  0  0.377257  0  0.962627  0  0  0.303781  0.355137  0  0.985645  0
H  H17  1  0.75230003  0.30382114  0.97728495  1  0  0.397519  0  0.895489  0  0  0.364262  0  0.976105  0  0  0.377256  0  0.962582  0  0  0.303781  0.355137  0  0.985598  0
H  H18  1  0.82781560  0.76769750  0.02702529  1  0  0.098056  0  0.959838  0  0  0.107938  0  1.023286  0  0  0.111108  0  1.019925  0  0  0.102942  0.105603  0  1.025801  0
H  H19  1  0.17219290  0.23229081  0.97297699  1  0  0.098011  0  0.959929  0  0  0.107913  0  1.023347  0  0  0.111083  0  1.019989  0  0  0.10296  0.105577  0  1.025862  0
H  H20  1  0.02145494  0.93636602  0.93970821  1  0  0.094277  0  0.96829  0  0  0.105164  0  1.028062  0  0  0.108098  0  1.027991  0  0  0.097221  0.103078  0  1.028333  0
H  H21  1  0.97855464  0.06362868  0.06029378  1  0  0.094328  0  0.968177  0  0  0.105212  0  1.02795  0  0  0.108149  0  1.027869  0  0  0.097236  0.103125  0  1.028223  0
H  H22  1  0.91500598  0.16254119  0.79179471  1  0  0.083643  0  0.956302  0  0  0.094892  0  1.017358  0  0  0.098167  0  1.014017  0  0  0.086449  0.092494  0  1.01993  0
H  H23  1  0.08499637  0.83745242  0.20820940  1  0  0.083589  0  0.956308  0  0  0.094893  0  1.01731  0  0  0.09817  0  1.013965  0  0  0.086482  0.092495  0  1.019885  0
H  H24  1  0.62466636  0.21261248  0.73136224  1  0  0.096053  0  0.986425  0  0  0.103564  0  1.056974  0  0  0.106966  0  1.05581  0  0  0.0774  0.100969  0  1.058326  0
H  H25  1  0.37533965  0.78737582  0.26864017  1  0  0.09599  0  0.986479  0  0  0.103528  0  1.057005  0  0  0.106927  0  1.055844  0  0  0.077374  0.100934  0  1.058359  0
H  H26  1  0.35568010  0.14773007  0.75403166  1  0  0.313568  0  0.91171  0  0  0.300565  0  0.974796  0  0  0.306851  0  0.969944  0  0  0.287009  0.296006  0  0.97844  0
H  H27  1  0.64432471  0.85226352  0.24597525  1  0  0.313494  0  0.911776  0  0  0.300489  0  0.974859  0  0  0.306775  0  0.970008  0  0  0.286997  0.295924  0  0.978512  0
H  H28  1  0.31538288  0.98616680  0.84643275  1  0  0.327567  0  0.921471  0  0  0.313204  0  0.979173  0  0  0.32029  0  0.973557  0  0  0.299372  0.308206  0  0.98305  0
H  H29  1  0.68461822  0.01382681  0.15357289  1  0  0.327508  0  0.921502  0  0  0.313143  0  0.979224  0  0  0.320229  0  0.97361  0  0  0.299352  0.308141  0  0.983108  0
H  H30  1  0.50492306  0.59681432  0.08586418  1  0  0.393279  0  0.897429  0  0  0.362484  0  0.975576  0  0  0.375173  0  0.961813  0  0  0.301547  0.353627  0  0.985073  0
H  H31  1  0.49507416  0.40318567  0.91414142  1  0  0.393283  0  0.897476  0  0  0.362497  0  0.975617  0  0  0.375185  0  0.961854  0  0  0.301552  0.35364  0  0.985114  0
C  C32  1  0.24036649  0.50235874  0.11975735  1  0  0.676653  0  3.793832  0  0  0.619152  0  4.097211  0  0  0.655237  0  4.086313  0  0  0.228615  0.59451  0  4.104432  0
C  C33  1  0.75962958  0.49764133  0.88023732  1  0  0.676626  0  3.793882  0  0  0.619099  0  4.097302  0  0  0.655183  0  4.086404  0  0  0.228672  0.594459  0  4.104519  0
C  C34  1  0.12927821  0.39750834  0.16995129  1  0  -0.203426  0  3.751173  0  0  -0.182451  0  3.991352  0  0  -0.197461  0  4.016476  0  0  -0.035703  -0.172866  0  3.974741  0
C  C35  1  0.87071542  0.60249176  0.83003984  1  0  -0.203445  0  3.751381  0  0  -0.182392  0  3.991518  0  0  -0.197403  0  4.01664  0  0  -0.035655  -0.172805  0  3.974902  0
C  C36  1  0.95953526  0.43216057  0.14046870  1  0  -0.025619  0  3.724135  0  0  -0.056507  0  3.982525  0  0  -0.05219  0  4.001388  0  0  -0.08162  -0.058555  0  3.96913  0
C  C37  1  0.04045632  0.56783738  0.85952530  1  0  -0.025833  0  3.724276  0  0  -0.056823  0  3.982672  0  0  -0.052492  0  4.001537  0  0  -0.081746  -0.058877  0  3.969293  0
C  C38  1  0.84937126  0.33758790  0.18489532  1  0  -0.091153  0  3.767271  0  0  -0.108913  0  4.030187  0  0  -0.114989  0  4.051828  0  0  -0.10772  -0.105033  0  4.01507  0
C  C39  1  0.15062259  0.66241113  0.81509608  1  0  -0.091018  0  3.767282  0  0  -0.108778  0  4.030159  0  0  -0.114851  0  4.051807  0  0  -0.107707  -0.104911  0  4.015051  0
C  C40  1  0.90822374  0.20552566  0.26145857  1  0  -0.033981  0  3.777702  0  0  -0.050299  0  4.032071  0  0  -0.047669  0  4.051317  0  0  -0.092857  -0.05122  0  4.018201  0
C  C41  1  0.09177408  0.79447758  0.73853955  1  0  -0.034026  0  3.777836  0  0  -0.050346  0  4.032209  0  0  -0.047718  0  4.051456  0  0  -0.092851  -0.051265  0  4.018342  0
C  C42  1  0.07517690  0.16900389  0.29278233  1  0  -0.190497  0  3.741575  0  0  -0.203152  0  3.990545  0  0  -0.21256  0  4.014081  0  0  -0.11125  -0.196984  0  3.974517  0
C  C43  1  0.92482295  0.83100149  0.70721512  1  0  -0.190591  0  3.741649  0  0  -0.203259  0  3.990619  0  0  -0.212669  0  4.014159  0  0  -0.111271  -0.197088  0  3.974588  0
C  C44  1  0.18862154  0.26267245  0.24706226  1  0  0.290076  0  3.779768  0  0  0.277426  0  4.025052  0  0  0.288197  0  4.049069  0  0  0.091144  0.270161  0  4.008622  0
C  C45  1  0.81137460  0.73733295  0.75293318  1  0  0.290304  0  3.779813  0  0  0.27761  0  4.025105  0  0  0.288385  0  4.049111  0  0  0.091216  0.270345  0  4.008681  0
C  C46  1  0.51038243  0.78524062  0.98175458  1  0  0.666937  0  3.792562  0  0  0.61046  0  4.094332  0  0  0.646334  0  4.085245  0  0  0.227123  0.586229  0  4.099747  0
C  C47  1  0.48962194  0.21475513  0.01824885  1  0  0.666964  0  3.792387  0  0  0.610533  0  4.094143  0  0  0.646405  0  4.085058  0  0  0.227115  0.586301  0  4.099558  0
C  C48  1  0.61670907  0.89109828  0.92904351  1  0  -0.232085  0  3.752841  0  0  -0.209877  0  3.994262  0  0  -0.227311  0  4.019369  0  0  -0.042203  -0.19816  0  3.977016  0
C  C49  1  0.38330448  0.10889537  0.07095709  1  0  -0.231935  0  3.752308  0  0  -0.209828  0  3.993808  0  0  -0.227276  0  4.018909  0  0  -0.042179  -0.198103  0  3.976568  0
C  C50  1  0.78425703  0.86532969  0.96208513  1  0  -0.030349  0  3.74804  0  0  -0.059681  0  4.003695  0  0  -0.053581  0  4.022645  0  0  -0.085916  -0.063498  0  3.990748  0
C  C51  1  0.21574827  0.13466180  0.03791866  1  0  -0.030376  0  3.747975  0  0  -0.059691  0  4.003668  0  0  -0.053593  0  4.022619  0  0  -0.085973  -0.063508  0  3.990717  0
C  C52  1  0.89227046  0.95990663  0.91364740  1  0  -0.118035  0  3.79007  0  0  -0.131558  0  4.047731  0  0  -0.139822  0  4.070379  0  0  -0.112489  -0.126295  0  4.032587  0
C  C53  1  0.10774254  0.04008382  0.08635335  1  0  -0.118098  0  3.790288  0  0  -0.131635  0  4.047981  0  0  -0.139898  0  4.070629  0  0  -0.112497  -0.126371  0  4.032838  0
C  C54  1  0.83233242  0.08598515  0.83077081  1  0  -0.007879  0  3.774768  0  0  -0.027921  0  4.030755  0  0  -0.021909  0  4.047724  0  0  -0.089598  -0.031717  0  4.019273  0
C  C55  1  0.16766893  0.91400739  0.16923364  1  0  -0.007814  0  3.774753  0  0  -0.027903  0  4.030755  0  0  -0.02189  0  4.047723  0  0  -0.089615  -0.031698  0  4.019274  0
C  C56  1  0.66885303  0.11492664  0.79656081  1  0  -0.211985  0  3.729258  0  0  -0.226607  0  3.984056  0  0  -0.23647  0  4.004593  0  0  -0.119569  -0.220014  0  3.970142  0
C  C57  1  0.33114435  0.88506697  0.20344428  1  0  -0.211943  0  3.728934  0  0  -0.226599  0  3.983733  0  0  -0.236469  0  4.004259  0  0  -0.119577  -0.22  0  3.969828  0
C  C58  1  0.55675892  0.01851724  0.84344269  1  0  0.33406  0  3.808962  0  0  0.31881  0  4.05972  0  0  0.333813  0  4.078925  0  0  0.108368  0.308848  0  4.045991  0
C  C59  1  0.44324935  0.98147213  0.15655859  1  0  0.334143  0  3.808588  0  0  0.318956  0  4.059324  0  0  0.333992  0  4.078484  0  0  0.10851  0.308974  0  4.045621  0
Br  Br60  1  0.16805241  0.54809477  0.35509270  1  0  -0.336916  0  1.341504  0  0  -0.272684  0  1.69355  0  0  -0.296862  0  1.675551  0  0  -0.154452  -0.256307  0  1.706804  0
Br  Br61  1  0.83192808  0.45190324  0.64489381  1  0  -0.336892  0  1.34151  0  0  -0.272636  0  1.693513  0  0  -0.296805  0  1.675501  0  0  -0.154445  -0.256259  0  1.706762  0
Br  Br62  1  0.63471796  0.13923168  0.51955282  1  0  -0.357152  0  1.222051  0  0  -0.301276  0  1.564916  0  0  -0.321492  0  1.545434  0  0  -0.180216  -0.287615  0  1.579896  0
Br  Br63  1  0.36529473  0.86081618  0.48046118  1  0  -0.357268  0  1.222089  0  0  -0.301351  0  1.564876  0  0  -0.321567  0  1.545404  0  0  -0.180247  -0.287691  0  1.579848  0
Br  Br64  1  0.66091804  0.54858190  0.34702561  1  0  -0.358906  0  1.170145  0  0  -0.304265  0  1.493123  0  0  -0.325705  0  1.475647  0  0  -0.186188  -0.289985  0  1.50649  0
Br  Br65  1  0.33903527  0.45143722  0.65298225  1  0  -0.358857  0  1.170191  0  0  -0.304233  0  1.493197  0  0  -0.325681  0  1.475742  0  0  -0.186182  -0.289952  0  1.50656  0
Br  Br66  1  0.11592332  0.16518652  0.55770799  1  0  -0.324667  0  1.209351  0  0  -0.263702  0  1.537636  0  0  -0.285398  0  1.520255  0  0  -0.166092  -0.248989  0  1.551309  0
Br  Br67  1  0.88409948  0.83484448  0.44228440  1  0  -0.32468  0  1.209348  0  0  -0.263727  0  1.537655  0  0  -0.285428  0  1.520282  0  0  -0.166054  -0.249014  0  1.551323  0
N  N68  1  0.35463025  0.22453280  0.28278578  1  0  -0.631528  0  3.153024  0  0  -0.579067  0  3.3877  0  0  -0.602523  0  3.388884  0  0  -0.583905  -0.562583  0  3.386196  0
N  N69  1  0.64536193  0.77547366  0.71721031  1  0  -0.631525  0  3.153054  0  0  -0.579141  0  3.387733  0  0  -0.602559  0  3.388973  0  0  -0.583946  -0.562686  0  3.38619  0
N  N70  1  0.39953990  0.04732639  0.80338288  1  0  -0.659677  0  3.134962  0  0  -0.625394  0  3.361208  0  0  -0.646459  0  3.361435  0  0  -0.590482  -0.610357  0  3.360487  0
N  N71  1  0.60046634  0.95266084  0.19662053  1  0  -0.659596  0  3.135001  0  0  -0.625298  0  3.361182  0  0  -0.646373  0  3.361398  0  0  -0.590516  -0.610246  0  3.360482  0
O  O72  1  0.16247781  0.63041198  0.06277223  1  0  -0.535304  0  2.12183  0  0  -0.479709  0  2.346514  0  0  -0.503103  0  2.333707  0  0  -0.317491  -0.463565  0  2.355226  0
O  O73  1  0.83752321  0.36958809  0.93722438  1  0  -0.535228  0  2.121772  0  0  -0.479704  0  2.346509  0  0  -0.503098  0  2.333702  0  0  -0.317504  -0.463559  0  2.355219  0
O  O74  1  0.39816371  0.47196854  0.13024663  1  0  -0.593021  0  1.998162  0  0  -0.537376  0  2.217863  0  0  -0.559792  0  2.206826  0  0  -0.294167  -0.522072  0  2.225224  0
O  O75  1  0.60183626  0.52803042  0.86975471  1  0  -0.592977  0  1.998139  0  0  -0.537339  0  2.217885  0  0  -0.55975  0  2.206844  0  0  -0.294212  -0.522043  0  2.225251  0
O  O76  1  0.35962128  0.79994283  0.95658137  1  0  -0.594758  0  2.016327  0  0  -0.532282  0  2.234213  0  0  -0.555206  0  2.224878  0  0  -0.289946  -0.516641  0  2.240437  0
O  O77  1  0.64038931  0.20005294  0.04341955  1  0  -0.594785  0  2.016145  0  0  -0.532357  0  2.234055  0  0  -0.555278  0  2.224715  0  0  -0.289976  -0.516716  0  2.240279  0
O  O78  1  0.58329576  0.66986815  0.05794457  1  0  -0.540339  0  2.113232  0  0  -0.488474  0  2.337843  0  0  -0.510551  0  2.323824  0  0  -0.330554  -0.47311  0  2.346985  0
O  O79  1  0.41670440  0.33012970  0.94206218  1  0  -0.540439  0  2.113253  0  0  -0.488572  0  2.337831  0  0  -0.510648  0  2.323813  0  0  -0.330598  -0.473205  0  2.346968  0
