# generated using pymatgen
data_CoH23C28N3O4
_symmetry_space_group_name_H-M   'P 1'
_cell_length_a   8.14560184
_cell_length_b   15.06014956
_cell_length_c   23.26545853
_cell_angle_alpha   94.79082690
_cell_angle_beta   90.01450964
_cell_angle_gamma   105.70021811
_symmetry_Int_Tables_number   1
_chemical_formula_structural   CoH23C28N3O4
_chemical_formula_sum   'Co4 H92 C112 N12 O16'
_cell_volume   2737.20684422
_cell_formula_units_Z   4
loop_
 _symmetry_equiv_pos_site_id
 _symmetry_equiv_pos_as_xyz
  1  'x, y, z'
loop_
 _atom_site_type_symbol
 _atom_site_label
 _atom_site_symmetry_multiplicity
 _atom_site_fract_x
 _atom_site_fract_y
 _atom_site_fract_z
 _atom_site_occupancy
 _atom_site_pbe_bader_charge
 _atom_site_pbe_bader_spin_density
 _atom_site_pbe_cm5_charge
 _atom_site_pbe_ddec_charge
 _atom_site_pbe_ddec_spin_density
 _atom_site_pbe_ddec_sum_bond_order
 _atom_site_pbe_magmom
Co  Co0  1  0.37268823  0.94506898  0.50195694  1  1.187811  2.600678  0.612992  0.758131  2.82227  2.761496  2.584
Co  Co1  1  0.42757260  0.05503343  0.99796406  1  1.189237  2.600957  0.613373  0.758511  2.822819  2.760572  2.584
Co  Co2  1  0.62740084  0.05493300  0.49807366  1  1.189306  2.600841  0.613149  0.758434  2.822567  2.761945  2.584
Co  Co3  1  0.57218870  0.94510606  0.00201443  1  1.187844  2.600766  0.612925  0.757545  2.822181  2.762098  2.584
H  H4  1  0.82017062  0.34416015  0.69001716  1  0.022216  -1.3e-05  0.101754  0.102352  -2.2e-05  1.007602  0.0
H  H5  1  0.47588309  0.65558671  0.80982945  1  0.027882  -8e-06  0.101574  0.102162  -1.7e-05  1.007646  0.0
H  H6  1  0.17990629  0.65578071  0.30996595  1  0.022376  -1.3e-05  0.101597  0.102087  -2.2e-05  1.008094  0.0
H  H7  1  0.52404132  0.34440268  0.19017512  1  0.028249  -7e-06  0.101547  0.102032  -1.7e-05  1.007864  0.0
H  H8  1  0.98227037  0.92643273  0.57814737  1  0.138144  0.000375  0.110625  0.120512  0.000151  1.015793  0.0
H  H9  1  0.05572413  0.07313555  0.92173016  1  0.129828  0.000373  0.110545  0.120169  0.000151  1.016567  0.0
H  H10  1  0.01783725  0.07350817  0.42184349  1  0.137995  0.000376  0.110545  0.120324  0.000152  1.016025  0.0
H  H11  1  0.94408472  0.92684128  0.07824881  1  0.130893  0.000372  0.110513  0.120179  0.00015  1.01629  0.0
H  H12  1  0.48788969  0.75330831  0.61624747  1  0.078449  0.000422  0.104094  0.104468  0.000216  1.003846  0.0
H  H13  1  0.73497031  0.24660856  0.88382481  1  0.083092  0.000425  0.103424  0.103519  0.000217  1.005006  0.0
H  H14  1  0.51215839  0.24666084  0.38371263  1  0.078141  0.000422  0.103951  0.104179  0.000216  1.004183  0.0
H  H15  1  0.26498474  0.75344706  0.11612434  1  0.08296  0.000424  0.103471  0.103429  0.000217  1.005089  0.0
H  H16  1  0.11849876  0.84668953  0.64516538  1  0.118541  0.000204  0.11165  0.12702  9.6e-05  0.986771  0.0
H  H17  1  0.27166933  0.15287973  0.85472920  1  0.089358  0.00021  0.111803  0.126741  9.6e-05  0.985852  0.0
H  H18  1  0.88152629  0.15322373  0.35483734  1  0.118992  0.000205  0.111727  0.127112  9.6e-05  0.986873  0.0
H  H19  1  0.72820926  0.84708680  0.14526944  1  0.088625  0.00021  0.111838  0.126741  9.6e-05  0.985685  0.0
H  H20  1  0.87694869  0.43183165  0.60260842  1  0.072234  8e-06  0.095995  0.090834  3e-06  1.030396  0.0
H  H21  1  0.44414279  0.56806922  0.89732908  1  0.082256  5e-06  0.096509  0.091071  2e-06  1.030435  0.0
H  H22  1  0.12312698  0.56810919  0.39736867  1  0.073046  8e-06  0.095874  0.090585  3e-06  1.03029  0.0
H  H23  1  0.55587266  0.43191321  0.10266438  1  0.08222  5e-06  0.096425  0.090958  2e-06  1.030386  0.0
H  H24  1  0.93383817  0.87838025  0.75234360  1  0.078049  0.00013  0.104283  0.116107  5.6e-05  1.003728  0.0
H  H25  1  0.05545704  0.12128738  0.74759324  1  0.078051  0.000128  0.104333  0.116362  5.5e-05  1.003391  0.0
H  H26  1  0.06592306  0.12152103  0.24761163  1  0.077973  0.000129  0.104519  0.11641  5.6e-05  1.003675  0.0
H  H27  1  0.94462568  0.87863073  0.25241103  1  0.076744  0.000128  0.104235  0.116148  5.5e-05  1.003715  0.0
H  H28  1  0.62545210  0.67067575  0.68316098  1  0.071238  0.000166  0.102342  0.107066  8.5e-05  1.022868  0.0
H  H29  1  0.95516585  0.32919541  0.81690495  1  0.038348  0.000169  0.102236  0.106862  8.5e-05  1.023257  0.0
H  H30  1  0.37451940  0.32925811  0.31680156  1  0.071778  0.000166  0.102322  0.107124  8.5e-05  1.023262  0.0
H  H31  1  0.04488544  0.67085134  0.18307254  1  0.038998  0.000169  0.102191  0.10682  8.4e-05  1.023407  0.0
H  H32  1  0.10325811  0.97336734  0.83494962  1  0.077566  0.000396  0.104038  0.105965  0.00018  1.024829  0.0
H  H33  1  0.12980682  0.02648675  0.66490765  1  0.084641  0.000393  0.103943  0.105422  0.00018  1.025038  0.0
H  H34  1  0.89636071  0.02661003  0.16499499  1  0.077429  0.000397  0.103843  0.105907  0.00018  1.024794  0.0
H  H35  1  0.87045925  0.97345430  0.33511803  1  0.080611  0.000393  0.104042  0.105549  0.00018  1.025185  0.0
H  H36  1  0.35919490  0.76321648  0.85464746  1  0.077517  0.000299  0.102157  0.106543  0.000164  1.016392  0.0
H  H37  1  0.59579983  0.23681738  0.64525203  1  0.07007  0.000302  0.102316  0.107537  0.000166  1.015289  0.0
H  H38  1  0.64077017  0.23694257  0.14537461  1  0.076562  0.0003  0.102263  0.106703  0.000165  1.016712  0.0
H  H39  1  0.40431220  0.76321576  0.35478407  1  0.11257  0.000294  0.102145  0.107434  0.000165  1.014973  0.0
H  H40  1  0.19293668  0.66700576  0.77122959  1  0.054344  0.000137  0.096145  0.100837  6.6e-05  1.058089  0.0
H  H41  1  0.52581313  0.33291099  0.72871835  1  0.079738  0.000133  0.096539  0.102113  6.6e-05  1.057438  0.0
H  H42  1  0.80715965  0.33306473  0.22879858  1  0.053794  0.000138  0.096108  0.100808  6.7e-05  1.058532  0.0
H  H43  1  0.47421311  0.66709789  0.27131045  1  0.079727  0.000133  0.09655  0.102034  6.6e-05  1.057657  0.0
H  H44  1  0.22502998  0.74512689  0.53688830  1  0.09267  0.001079  0.115616  0.089156  0.000338  1.008456  0.001
H  H45  1  0.48015737  0.25498521  0.96293948  1  0.106649  0.001064  0.11579  0.088982  0.000333  1.007757  0.001
H  H46  1  0.77508665  0.25481481  0.46313096  1  0.092764  0.00108  0.115467  0.088869  0.000338  1.008609  0.001
H  H47  1  0.51962847  0.74505604  0.03705319  1  0.104858  0.001063  0.115732  0.088773  0.000333  1.008028  0.001
H  H48  1  0.45467190  0.61302877  0.47225118  1  0.018743  1.4e-05  0.089187  0.057049  1e-06  0.981384  0.0
H  H49  1  0.84195912  0.38682162  0.02781077  1  0.021421  1.2e-05  0.089485  0.057428  1e-06  0.981672  0.0
H  H50  1  0.54538674  0.38692466  0.52775752  1  0.017738  1.4e-05  0.089062  0.056982  1e-06  0.981218  0.0
H  H51  1  0.15802618  0.61322814  0.97222620  1  0.023232  1.2e-05  0.089512  0.057338  1e-06  0.982017  0.0
H  H52  1  0.63805119  0.66475888  0.51756541  1  0.057134  -0.0  0.10164  0.084063  -2.6e-05  0.999914  0.0
H  H53  1  0.97342756  0.33528906  0.98233196  1  0.054623  -7e-06  0.10176  0.084823  -3e-05  0.999895  0.0
H  H54  1  0.36201372  0.33520216  0.48244455  1  0.056597  -0.0  0.101667  0.08425  -2.6e-05  0.999947  0.0
H  H55  1  0.02658016  0.66478835  0.01769786  1  0.053081  -6e-06  0.101638  0.084692  -3e-05  0.999529  0.0
H  H56  1  0.65357825  0.61231952  0.39288708  1  0.021852  1.8e-05  0.093093  0.064732  1e-05  0.991122  0.0
H  H57  1  0.04209321  0.38781143  0.10706388  1  0.024412  1.8e-05  0.093352  0.064885  1.1e-05  0.991161  0.0
H  H58  1  0.34653835  0.38764914  0.60712328  1  0.019242  1.8e-05  0.093099  0.065052  1e-05  0.990906  0.0
H  H59  1  0.95789953  0.61228266  0.89298100  1  0.025362  1.7e-05  0.093105  0.064513  1.1e-05  0.991314  0.0
H  H60  1  0.79576887  0.54150359  0.39637198  1  0.065641  -9e-05  0.105898  0.087563  -7.9e-05  0.989942  0.0
H  H61  1  0.25507891  0.45861147  0.10345416  1  0.044458  -0.000107  0.105474  0.086693  -9.2e-05  0.989924  0.0
H  H62  1  0.20433604  0.45845888  0.60364752  1  0.069352  -9e-05  0.106028  0.087778  -7.9e-05  0.989764  0.0
H  H63  1  0.74492583  0.54146734  0.89657918  1  0.043947  -0.000107  0.105326  0.086481  -9.2e-05  0.989937  0.0
H  H64  1  0.56007531  0.54174832  0.58287697  1  0.035182  1.1e-05  0.087444  0.05542  5e-06  1.000277  0.0
H  H65  1  0.01763819  0.45836094  0.91709661  1  0.025408  1.3e-05  0.087424  0.054951  7e-06  1.000975  0.0
H  H66  1  0.43998978  0.45821065  0.41713160  1  0.036144  1.1e-05  0.087226  0.054944  5e-06  1.000237  0.0
H  H67  1  0.98232277  0.54170888  0.08293969  1  0.024312  1.3e-05  0.087447  0.055196  7e-06  1.000966  0.0
H  H68  1  0.38423927  0.58911999  0.57324160  1  0.020472  -2e-06  0.099926  0.074606  -1.3e-05  0.98587  0.0
H  H69  1  0.79450692  0.41086470  0.92690231  1  0.018499  -1.3e-05  0.100204  0.075467  -2.1e-05  0.984705  0.0
H  H70  1  0.61583008  0.41083275  0.42676793  1  0.020219  -2e-06  0.099877  0.074452  -1.3e-05  0.98589  0.0
H  H71  1  0.20545512  0.58920238  0.07314030  1  0.018276  -1.3e-05  0.100219  0.075442  -2.1e-05  0.984836  0.0
H  H72  1  0.05406445  0.90255823  0.42589998  1  0.110564  0.001022  0.12112  0.098146  0.000309  1.007022  0.001
H  H73  1  0.15149426  0.09750091  0.07381305  1  0.116326  0.001032  0.121168  0.098283  0.000312  1.008155  0.001
H  H74  1  0.94607731  0.09739937  0.57411281  1  0.109291  0.001026  0.120969  0.098162  0.00031  1.006791  0.001
H  H75  1  0.84825810  0.90255689  0.92616372  1  0.146707  0.001019  0.121163  0.098184  0.000311  1.008108  0.001
H  H76  1  0.81317623  0.76788333  0.38858766  1  0.110801  0.000484  0.099798  0.10685  0.000168  1.058663  0.0
H  H77  1  0.04550046  0.23214361  0.11119031  1  0.075931  0.000488  0.099981  0.106746  0.000167  1.058128  0.0
H  H78  1  0.18694480  0.23208192  0.61143370  1  0.109927  0.000484  0.099616  0.106744  0.000168  1.058658  0.0
H  H79  1  0.95437757  0.76794207  0.88883049  1  0.075449  0.000488  0.099877  0.106476  0.000166  1.058504  0.0
H  H80  1  0.94162962  0.60371164  0.61206979  1  0.086396  -7e-06  0.101222  0.108142  -2.4e-05  1.022419  0.0
H  H81  1  0.33698503  0.39623104  0.88799134  1  0.087561  -1.3e-05  0.100885  0.107768  -2.7e-05  1.023142  0.0
H  H82  1  0.05845917  0.39623826  0.38792153  1  0.087197  -7e-06  0.101202  0.108158  -2.4e-05  1.02253  0.0
H  H83  1  0.66311322  0.60375003  0.11200721  1  0.08769  -1.3e-05  0.10084  0.107921  -2.7e-05  1.022925  0.0
H  H84  1  0.98737050  0.60302540  0.50540016  1  0.0687  0.000667  0.104222  0.110083  0.00027  1.011802  0.0
H  H85  1  0.38477789  0.39710362  0.99447256  1  0.060664  0.000615  0.104408  0.110692  0.000245  1.01227  0.0
H  H86  1  0.01271127  0.39693498  0.49461622  1  0.07017  0.000667  0.104411  0.110387  0.00027  1.011572  0.0
H  H87  1  0.61515931  0.60297516  0.00555433  1  0.060795  0.000613  0.104334  0.110876  0.000245  1.012432  0.0
H  H88  1  0.86921563  0.60021568  0.79520295  1  0.071729  1e-06  0.1013  0.105278  -5e-06  1.029919  0.0
H  H89  1  0.26918665  0.39934806  0.70477389  1  0.069262  -3e-06  0.101635  0.105196  -9e-06  1.030786  0.0
H  H90  1  0.13090775  0.39972728  0.20478285  1  0.070338  1e-06  0.101256  0.105195  -5e-06  1.029884  0.0
H  H91  1  0.73088455  0.60063784  0.29522105  1  0.068714  -3e-06  0.101657  0.105278  -9e-06  1.030826  0.0
H  H92  1  0.80885401  0.42944560  0.78627759  1  0.033278  1e-06  0.098867  0.094213  0.0  1.004091  0.0
H  H93  1  0.37949829  0.57009196  0.71357808  1  0.046936  3e-06  0.099182  0.094686  2e-06  1.004457  0.0
H  H94  1  0.19128829  0.57050082  0.21371055  1  0.033632  1e-06  0.098892  0.094297  0.0  1.003997  0.0
H  H95  1  0.62049474  0.42988983  0.28642781  1  0.047701  3e-06  0.099218  0.094769  2e-06  1.00421  0.0
C  C96  1  0.72613637  0.84508252  0.59348427  1  0.007541  0.010061  -0.021679  -0.046678  0.005402  3.989657  0.008
C  C97  1  0.88106970  0.15456448  0.90642625  1  -0.038212  0.01012  -0.02267  -0.047442  0.005405  3.989778  0.008
C  C98  1  0.27394595  0.15485692  0.40648717  1  -0.053589  0.010091  -0.021891  -0.047171  0.005404  3.989392  0.008
C  C99  1  0.11880710  0.84544758  0.09353566  1  -0.039546  0.010115  -0.022433  -0.047474  0.005402  3.989885  0.008
C  C100  1  0.84459793  0.41926706  0.69398529  1  -0.037342  -0.000526  -0.101219  -0.106998  -0.000564  4.01958  0.0
C  C101  1  0.42523281  0.58047441  0.80590498  1  -0.02105  -0.000523  -0.10077  -0.106195  -0.000561  4.019148  0.0
C  C102  1  0.15545672  0.58067103  0.30599595  1  -0.037805  -0.000527  -0.100811  -0.106584  -0.000565  4.01963  0.0
C  C103  1  0.57473667  0.41951428  0.19409698  1  -0.021482  -0.000522  -0.100557  -0.105858  -0.00056  4.01921  0.0
C  C104  1  0.90387353  0.87101041  0.60146690  1  -0.046583  -0.002557  -0.080099  -0.077862  -0.002963  3.969245  -0.002
C  C105  1  0.03274575  0.12854261  0.89839318  1  -0.026541  -0.00257  -0.079184  -0.076696  -0.002963  3.967068  -0.002
C  C106  1  0.09618096  0.12892490  0.39851248  1  0.020372  -0.002582  -0.079969  -0.077046  -0.002967  3.968043  -0.002
C  C107  1  0.96713207  0.87145430  0.10158685  1  -0.02975  -0.002563  -0.079377  -0.076665  -0.002956  3.966955  -0.002
C  C108  1  0.87914853  0.75419153  0.66846549  1  0.302733  -0.004029  0.093261  0.181444  -0.004469  4.042526  -0.003
C  C109  1  0.12500457  0.24546788  0.83146428  1  0.295238  -0.004031  0.092872  0.180191  -0.004464  4.045233  -0.003
C  C110  1  0.12087404  0.24573890  0.33150461  1  0.302559  -0.004037  0.093032  0.181342  -0.004476  4.044185  -0.003
C  C111  1  0.87494686  0.75453384  0.16850698  1  0.295292  -0.004023  0.093113  0.180303  -0.004454  4.045304  -0.003
C  C112  1  0.33852092  0.92702441  0.90206994  1  1.507159  -0.009001  0.207598  0.565499  -0.012199  4.179276  -0.009
C  C113  1  0.41157401  0.07295001  0.59785452  1  1.525007  -0.009109  0.207582  0.56544  -0.012257  4.181407  -0.009
C  C114  1  0.66117395  0.07311234  0.09791829  1  1.512088  -0.009016  0.207614  0.565098  -0.012213  4.176674  -0.009
C  C115  1  0.58862917  0.92705676  0.40216300  1  1.523797  -0.009086  0.207993  0.56617  -0.012218  4.182057  -0.009
C  C116  1  0.62598638  0.77191682  0.62232803  1  -0.042181  -0.00239  -0.083357  -0.076593  -0.002785  3.994035  -0.001
C  C117  1  0.85424082  0.22782601  0.87764795  1  -0.046232  -0.002414  -0.082693  -0.0756  -0.002811  3.994672  -0.001
C  C118  1  0.37405988  0.22800942  0.37763411  1  -0.02679  -0.002398  -0.083238  -0.076013  -0.002793  3.994114  -0.001
C  C119  1  0.14570440  0.77221238  0.12232051  1  -0.093407  -0.002406  -0.082717  -0.075418  -0.002802  3.994166  -0.001
C  C120  1  0.98033409  0.82583981  0.63872716  1  -0.053708  0.001623  -0.090338  -0.177492  0.000633  3.986891  0.001
C  C121  1  0.15441919  0.17376491  0.86116269  1  -0.011044  0.001623  -0.090713  -0.176539  0.000636  3.984846  0.001
C  C122  1  0.01970766  0.17408233  0.36124594  1  -0.063525  0.001625  -0.090325  -0.177946  0.000634  3.986786  0.001
C  C123  1  0.84548711  0.82622022  0.13881285  1  -0.007363  0.00162  -0.090855  -0.176602  0.000634  3.984375  0.001
C  C124  1  0.87805180  0.46867976  0.64507803  1  -0.02713  0.000122  -0.0962  -0.074336  4.7e-05  4.044331  0.0
C  C125  1  0.40891454  0.53115000  0.85484903  1  -0.045814  0.000123  -0.096952  -0.074916  4.6e-05  4.044159  0.0
C  C126  1  0.12201577  0.53126455  0.35490140  1  -0.026632  0.000123  -0.096106  -0.073859  4.7e-05  4.043961  0.0
C  C127  1  0.59111949  0.46883522  0.14514758  1  -0.046373  0.000122  -0.096906  -0.074801  4.6e-05  4.044254  0.0
C  C128  1  0.02814926  0.85305102  0.77420840  1  -0.082223  0.001366  -0.101312  -0.188888  0.000524  3.986053  0.001
C  C129  1  0.17501967  0.14674145  0.72570187  1  -0.070168  0.001365  -0.10148  -0.189609  0.000524  3.986496  0.001
C  C130  1  0.97165743  0.14690432  0.22576214  1  -0.08061  0.001366  -0.101405  -0.188882  0.000524  3.986655  0.001
C  C131  1  0.82509119  0.85322310  0.27431730  1  -0.075726  0.00136  -0.101392  -0.189365  0.000523  3.986888  0.001
C  C132  1  0.64389918  0.89721537  0.55653728  1  1.523262  -0.011467  0.21394  0.568581  -0.015322  4.175891  -0.01
C  C133  1  0.74674060  0.10259533  0.94344937  1  1.529879  -0.011505  0.213738  0.567492  -0.015321  4.176054  -0.01
C  C134  1  0.35620273  0.10273866  0.44344910  1  1.524382  -0.011488  0.213891  0.568189  -0.015338  4.17612  -0.01
C  C135  1  0.25306775  0.89748113  0.05652151  1  1.532594  -0.011484  0.214144  0.567709  -0.015306  4.176256  -0.01
C  C136  1  0.70177153  0.72639487  0.65949803  1  -0.026495  0.001615  -0.095166  -0.177451  0.000644  3.995597  0.001
C  C137  1  0.97555283  0.27332954  0.84047218  1  0.002967  0.001612  -0.094314  -0.176315  0.000644  3.995564  0.001
C  C138  1  0.29825016  0.27353624  0.34047082  1  -0.040499  0.001614  -0.095021  -0.177687  0.000644  3.99692  0.001
C  C139  1  0.02443967  0.72669783  0.15950731  1  0.050966  0.001609  -0.094318  -0.176291  0.000643  3.995824  0.001
C  C140  1  0.12349820  0.90652554  0.82054294  1  0.006495  -0.001803  -0.083122  -0.072786  -0.002192  3.987737  -0.001
C  C141  1  0.21684009  0.09337175  0.67931803  1  -0.010652  -0.001826  -0.082932  -0.071742  -0.002217  3.990789  -0.001
C  C142  1  0.87623483  0.09347890  0.17941728  1  0.007701  -0.001812  -0.083223  -0.073488  -0.002198  3.987651  -0.001
C  C143  1  0.78334393  0.90659423  0.32071154  1  -0.008504  -0.001816  -0.082844  -0.071753  -0.002208  3.991848  -0.001
C  C144  1  0.24285258  0.87438056  0.85018270  1  -0.041573  0.010334  -0.031836  -0.062405  0.005549  4.008693  0.008
C  C145  1  0.36833895  0.12556399  0.64969391  1  -0.047771  0.010366  -0.032062  -0.063077  0.005546  4.011133  0.008
C  C146  1  0.75692305  0.12569183  0.14980644  1  -0.044792  0.010341  -0.031794  -0.061606  0.005552  4.007622  0.008
C  C147  1  0.63183226  0.87442549  0.35032701  1  -0.050925  0.010368  -0.032197  -0.06336  0.005545  4.011887  0.008
C  C148  1  0.91527310  0.61322633  0.70456277  1  0.294337  2.2e-05  0.092527  0.183495  -9.8e-05  4.030745  0.0
C  C149  1  0.30207950  0.38649886  0.79542828  1  0.277168  2.3e-05  0.092072  0.184306  -9.7e-05  4.029406  0.0
C  C150  1  0.08477851  0.38672285  0.29542422  1  0.294286  2.2e-05  0.092602  0.184191  -9.8e-05  4.030214  0.0
C  C151  1  0.69798551  0.61349675  0.20457060  1  0.276776  2.3e-05  0.092066  0.18422  -9.7e-05  4.029378  0.0
C  C152  1  0.05109357  0.76567445  0.75576479  1  0.35165  -0.003114  0.099034  0.196742  -0.003431  4.033267  -0.002
C  C153  1  0.28541629  0.23411360  0.74417623  1  0.352842  -0.00313  0.099105  0.197799  -0.003444  4.031871  -0.002
C  C154  1  0.94882388  0.23430106  0.24422916  1  0.352811  -0.00312  0.098912  0.196572  -0.003438  4.033072  -0.002
C  C155  1  0.71464615  0.76587443  0.25583042  1  0.357964  -0.003118  0.098846  0.197827  -0.003433  4.031855  -0.002
C  C156  1  0.26619187  0.78768103  0.83141662  1  0.052016  -0.001798  -0.088274  -0.080978  -0.002105  4.014015  -0.001
C  C157  1  0.47837958  0.21227081  0.66847546  1  -0.000149  -0.001793  -0.088049  -0.081934  -0.002104  4.012854  -0.001
C  C158  1  0.73373404  0.21242673  0.16858772  1  0.038765  -0.0018  -0.088409  -0.081469  -0.002106  4.014844  -0.001
C  C159  1  0.52173490  0.78773043  0.33154564  1  -0.03762  -0.001782  -0.087964  -0.081744  -0.002095  4.012732  -0.001
C  C160  1  0.17300812  0.73410024  0.78496571  1  -0.065733  0.001365  -0.108526  -0.203135  0.000542  4.027071  0.001
C  C161  1  0.43884589  0.26580163  0.71495984  1  -0.044894  0.00138  -0.108975  -0.204317  0.000548  4.025867  0.001
C  C162  1  0.82697531  0.26595562  0.21504106  1  -0.05284  0.001368  -0.108419  -0.202939  0.000544  4.027579  0.001
C  C163  1  0.56123563  0.73419752  0.28505728  1  -0.043393  0.001377  -0.108843  -0.204332  0.000547  4.026441  0.001
C  C164  1  0.12933572  0.74663056  0.50445581  1  0.492087  0.000662  0.046663  0.088782  -0.000179  3.957484  0.001
C  C165  1  0.38293126  0.25346132  0.99535140  1  0.47269  0.000645  0.046779  0.089418  -0.000196  3.956759  0.001
C  C166  1  0.87078996  0.25331944  0.49556045  1  0.515029  0.000644  0.046667  0.088599  -0.000179  3.957317  0.001
C  C167  1  0.61686571  0.74659239  0.00463977  1  0.474024  0.00064  0.04693  0.089988  -0.000197  3.956298  0.001
C  C168  1  0.55119614  0.59808686  0.50107427  1  0.279336  1e-05  -0.070059  -0.073124  -1e-05  3.940224  0.0
C  C169  1  0.95320760  0.40189957  0.99890742  1  0.267676  4e-06  -0.070641  -0.074658  -8e-06  3.94197  0.0
C  C170  1  0.44885177  0.40187212  0.49893644  1  0.280826  1e-05  -0.069984  -0.073499  -1e-05  3.940586  0.0
C  C171  1  0.04678369  0.59817442  0.00113253  1  0.264678  4e-06  -0.070357  -0.073973  -9e-06  3.941405  0.0
C  C172  1  0.88193540  0.67392805  0.44375180  1  -0.022751  -0.001045  0.009624  0.139841  -0.001205  3.962756  -0.001
C  C173  1  0.20838948  0.32615870  0.05607594  1  -0.046705  -0.001063  0.00949  0.13941  -0.00122  3.963862  -0.001
C  C174  1  0.11816460  0.32603441  0.55626426  1  -0.022811  -0.001047  0.009306  0.139351  -0.001206  3.963258  -0.001
C  C175  1  0.79153824  0.67392077  0.94395012  1  -0.030952  -0.001061  0.009425  0.138879  -0.001219  3.964147  -0.001
C  C176  1  0.74031756  0.59048878  0.42228978  1  0.302572  5.4e-05  -0.060592  -0.109736  -3e-06  3.970828  0.0
C  C177  1  0.15048150  0.40959846  0.07759124  1  0.31943  5.6e-05  -0.060839  -0.108871  -9e-06  3.972165  0.0
C  C178  1  0.25977721  0.40946814  0.57772598  1  0.301415  5.4e-05  -0.060692  -0.110056  -3e-06  3.971157  0.0
C  C179  1  0.84949836  0.59047969  0.92244980  1  0.30167  5.6e-05  -0.06021  -0.107451  -8e-06  3.970764  0.0
C  C180  1  0.46225778  0.54799226  0.55120002  1  0.293767  -0.0  -0.069037  -0.076853  -1.7e-05  3.975537  0.0
C  C181  1  0.91381950  0.45203185  0.94886422  1  0.304465  -1.5e-05  -0.069628  -0.077299  -2.7e-05  3.976743  0.0
C  C182  1  0.53781015  0.45196253  0.44880489  1  0.29217  -0.0  -0.06866  -0.07598  -1.7e-05  3.974865  0.0
C  C183  1  0.08614726  0.54803730  0.05117677  1  0.307796  -1.5e-05  -0.069825  -0.077907  -2.7e-05  3.976966  0.0
C  C184  1  0.03491786  0.83466196  0.44199056  1  0.510674  -0.000186  0.05616  0.113222  -0.001008  3.906334  0.0
C  C185  1  0.20032042  0.16541138  0.05775595  1  0.504024  -0.000237  0.056364  0.112819  -0.001048  3.907956  0.0
C  C186  1  0.96518231  0.16530330  0.55803295  1  0.510855  -0.00019  0.056382  0.113227  -0.001011  3.906208  0.0
C  C187  1  0.79946807  0.83465483  0.94224405  1  0.474446  -0.000229  0.056257  0.113094  -0.001047  3.907991  0.0
C  C188  1  0.90171545  0.75926810  0.42143345  1  -0.055632  0.00241  -0.087  -0.185481  0.001134  3.940448  0.002
C  C189  1  0.14260683  0.24079934  0.07834519  1  -0.038429  0.002437  -0.087283  -0.184446  0.001143  3.939337  0.002
C  C190  1  0.09842087  0.24069090  0.57858329  1  -0.054095  0.002411  -0.086931  -0.185351  0.001135  3.939702  0.002
C  C191  1  0.85724424  0.75927661  0.92166736  1  -0.039736  0.002433  -0.087364  -0.184382  0.001142  3.940008  0.002
C  C192  1  0.91423010  0.56501478  0.65013846  1  -0.041733  -0.000408  -0.101085  -0.186045  -0.000441  3.992894  0.0
C  C193  1  0.34876989  0.43480012  0.84985636  1  -0.038266  -0.00042  -0.100287  -0.185878  -0.000454  3.991556  0.0
C  C194  1  0.08582488  0.43492887  0.34984952  1  -0.042896  -0.00041  -0.101066  -0.186368  -0.000442  3.993088  0.0
C  C195  1  0.65130220  0.56518511  0.15014069  1  -0.038609  -0.000419  -0.100265  -0.186036  -0.000452  3.991594  0.0
C  C196  1  0.99931432  0.66823335  0.48639403  1  -0.051844  0.002653  -0.088844  -0.191751  0.001288  3.975727  0.002
C  C197  1  0.33139980  0.33185464  0.01343007  1  -0.026333  0.00267  -0.089101  -0.193086  0.0013  3.976907  0.002
C  C198  1  0.00077408  0.33173537  0.51363009  1  -0.078355  0.002671  -0.088819  -0.191585  0.001288  3.975876  0.002
C  C199  1  0.66849344  0.66821234  0.98658974  1  -0.02206  0.002668  -0.089112  -0.193639  0.0013  3.977351  0.002
C  C200  1  0.87449533  0.56319091  0.75329087  1  -0.009011  -0.000408  -0.095917  -0.172713  -0.000429  3.985252  0.0
C  C201  1  0.31154002  0.43645630  0.74666372  1  -0.001284  -0.00039  -0.095807  -0.171902  -0.000411  3.98531  0.0
C  C202  1  0.12557632  0.43674926  0.24669307  1  -0.009385  -0.000408  -0.096062  -0.173144  -0.00043  3.984673  0.0
C  C203  1  0.68851450  0.56353307  0.25333268  1  0.082064  -0.000387  -0.095842  -0.171899  -0.00041  3.985557  0.0
C  C204  1  0.84096283  0.46714614  0.74791268  1  -0.036315  0.000114  -0.093143  -0.069628  4.2e-05  4.036248  0.0
C  C205  1  0.37399315  0.53248784  0.75197848  1  -0.051175  0.000119  -0.093839  -0.07067  4.7e-05  4.036572  0.0
C  C206  1  0.15915333  0.53279956  0.25206940  1  -0.034611  0.000114  -0.093067  -0.069492  4.2e-05  4.035437  0.0
C  C207  1  0.62602685  0.46749878  0.24802164  1  -0.133559  0.000117  -0.094043  -0.071046  4.7e-05  4.036591  0.0
N  N208  1  0.14723268  0.82877952  0.48280498  1  -1.223593  0.049166  -0.31415  -0.203714  0.027696  3.477011  0.038
N  N209  1  0.31852130  0.17129604  0.01697188  1  -1.208728  0.049266  -0.314612  -0.203738  0.027769  3.477209  0.038
N  N210  1  0.85288844  0.17117118  0.51721390  1  -1.221983  0.049187  -0.313966  -0.203426  0.027701  3.476645  0.038
N  N211  1  0.68121603  0.82875626  0.98301406  1  -1.20998  0.049196  -0.314182  -0.203643  0.027732  3.476487  0.038
N  N212  1  0.95438955  0.71112587  0.70929242  1  -1.258027  -0.0015  -0.255983  -0.15833  -0.001355  3.680062  -0.001
N  N213  1  0.24340434  0.28860241  0.79069705  1  -1.246446  -0.001507  -0.256184  -0.160052  -0.001373  3.681679  -0.001
N  N214  1  0.04561962  0.28882192  0.29069406  1  -1.256931  -0.001502  -0.255812  -0.158351  -0.001359  3.68068  -0.001
N  N215  1  0.75664184  0.71140219  0.20929930  1  -1.247521  -0.001502  -0.256084  -0.160155  -0.001368  3.681669  -0.001
N  N216  1  0.64935447  0.54242310  0.46943411  1  -1.024692  0.000107  -0.34655  -0.151084  4.5e-05  3.490181  0.0
N  N217  1  0.10720772  0.45762238  0.03047473  1  -0.994766  9.2e-05  -0.345003  -0.150157  4e-05  3.488709  0.0
N  N218  1  0.35071205  0.45753380  0.53057649  1  -1.024672  0.000107  -0.34636  -0.151051  4.5e-05  3.490624  0.0
N  N219  1  0.89277040  0.54245230  0.96956398  1  -0.994201  9.2e-05  -0.345481  -0.15124  4e-05  3.489938  0.0
O  O220  1  0.73641987  0.97242858  0.53911319  1  -1.135889  0.08736  -0.298774  -0.515013  0.045335  2.394784  0.078
O  O221  1  0.76398518  0.02746405  0.96100395  1  -1.132929  0.087232  -0.298492  -0.51433  0.045334  2.396068  0.078
O  O222  1  0.26364994  0.02756923  0.46091633  1  -1.135954  0.087369  -0.298632  -0.514811  0.045342  2.394713  0.078
O  O223  1  0.23581518  0.97264796  0.03902381  1  -1.13558  0.087122  -0.299144  -0.515033  0.045276  2.395304  0.078
O  O224  1  0.30681062  0.00254349  0.92182627  1  -1.13014  0.095702  -0.307698  -0.5135  0.050165  2.331599  0.082
O  O225  1  0.30442718  0.99741011  0.57806157  1  -1.135192  0.095773  -0.30782  -0.513129  0.050148  2.331502  0.082
O  O226  1  0.69271429  0.99754552  0.07817019  1  -1.131562  0.09577  -0.307742  -0.513092  0.050206  2.330685  0.082
O  O227  1  0.69582870  0.00256701  0.42198105  1  -1.133394  0.095714  -0.307896  -0.513399  0.050119  2.33143  0.082
O  O228  1  0.48433407  0.86554453  0.54496107  1  -1.141836  0.089891  -0.305611  -0.522322  0.046847  2.37752  0.08
O  O229  1  0.61884771  0.13430837  0.95493135  1  -1.129744  0.090085  -0.305521  -0.521531  0.046908  2.377208  0.08
O  O230  1  0.51578751  0.13437275  0.45500834  1  -1.142378  0.089906  -0.305771  -0.522069  0.04686  2.377752  0.08
O  O231  1  0.38091016  0.86574576  0.04499279  1  -1.129782  0.090115  -0.305322  -0.521268  0.046903  2.37806  0.08
O  O232  1  0.44666842  0.89253828  0.92522962  1  -1.140129  0.079453  -0.309089  -0.538592  0.04053  2.381681  0.074
O  O233  1  0.55431112  0.10749158  0.57477405  1  -1.141336  0.079568  -0.308689  -0.538196  0.040543  2.384192  0.074
O  O234  1  0.55318994  0.10768973  0.07473030  1  -1.141971  0.079497  -0.309302  -0.538843  0.040561  2.379849  0.074
O  O235  1  0.44583095  0.89254275  0.42521312  1  -1.141259  0.079489  -0.309155  -0.538835  0.040501  2.384178  0.074
