# generated using pymatgen
data_CdH5C7(IN2)2
_symmetry_space_group_name_H-M   'P 1'
_cell_length_a   7.52184544
_cell_length_b   10.23132051
_cell_length_c   14.66223157
_cell_angle_alpha   76.84303074
_cell_angle_beta   83.85976363
_cell_angle_gamma   88.62771175
_symmetry_Int_Tables_number   1
_chemical_formula_structural   CdH5C7(IN2)2
_chemical_formula_sum   'Cd4 H20 C28 I8 N16'
_cell_volume   1092.45855430
_cell_formula_units_Z   4
loop_
 _symmetry_equiv_pos_site_id
 _symmetry_equiv_pos_as_xyz
  1  'x, y, z'
loop_
 _atom_site_type_symbol
 _atom_site_label
 _atom_site_symmetry_multiplicity
 _atom_site_fract_x
 _atom_site_fract_y
 _atom_site_fract_z
 _atom_site_occupancy
 _atom_site_pbe_bader_spin_density
 _atom_site_pbe_cm5_charge
 _atom_site_pbe_ddec_charge
 _atom_site_pbe_ddec_spin_density
 _atom_site_pbe_ddec_sum_bond_order
 _atom_site_pbe_magmom
Cd  Cd0  1  0.44359466  0.75288350  0.72318198  1  0  0.46656  0.565951  0  2.566086  0
Cd  Cd1  1  0.55640634  0.24711647  0.27681782  1  0  0.466547  0.565921  0  2.566131  0
Cd  Cd2  1  0.93777451  0.91576563  0.72997044  1  0  0.476985  0.566968  0  2.595508  0
Cd  Cd3  1  0.06222382  0.08423434  0.27002882  1  0  0.476991  0.567009  0  2.595417  0
H  H4  1  0.24240031  0.40511839  0.49229466  1  0  0.305025  0.269606  0  0.976861  0
H  H5  1  0.75760069  0.59488159  0.50770514  1  0  0.305032  0.26964  0  0.976841  0
H  H6  1  0.26558560  0.87559949  0.49231153  1  0  0.284258  0.249309  0  1.018136  0
H  H7  1  0.73441672  0.12440149  0.50768872  1  0  0.284255  0.249278  0  1.018181  0
H  H8  1  0.61979295  0.58638994  0.90411962  1  0  0.098321  0.073491  0  1.042059  0
H  H9  1  0.38020670  0.41361204  0.09587926  1  0  0.098289  0.073435  0  1.042053  0
H  H10  1  0.67617013  0.34892979  0.98930666  1  0  0.087744  0.104015  0  1.058647  0
H  H11  1  0.32383086  0.65107320  0.01069199  1  0  0.087752  0.103993  0  1.058669  0
H  H12  1  0.59844174  0.16092988  0.91564343  1  0  0.09281  0.102176  0  1.017155  0
H  H13  1  0.40156193  0.83907011  0.08435622  1  0  0.092815  0.102186  0  1.017098  0
H  H14  1  0.47219080  0.21748922  0.76051099  1  0  0.106009  0.125686  0  1.005738  0
H  H15  1  0.52781016  0.78251476  0.23948955  1  0  0.106022  0.125703  0  1.005636  0
H  H16  1  0.03010345  0.56400781  0.25172175  1  0  0.103507  0.123789  0  1.006362  0
H  H17  1  0.96990155  0.43598816  0.74828120  1  0  0.103458  0.123747  0  1.006331  0
H  H18  1  0.90097949  0.60082766  0.09731842  1  0  0.091547  0.102998  0  1.025116  0
H  H19  1  0.09902285  0.39916528  0.90268513  1  0  0.091555  0.103005  0  1.025181  0
H  H20  1  0.82718184  0.83598614  0.01440786  1  0  0.088679  0.10258  0  1.054359  0
H  H21  1  0.17281651  0.16400680  0.98559386  1  0  0.08868  0.102613  0  1.054308  0
H  H22  1  0.88863290  0.02582324  0.09014831  1  0  0.100278  0.074258  0  1.035745  0
H  H23  1  0.11136146  0.97417272  0.90984974  1  0  0.100272  0.07422  0  1.035749  0
C  C24  1  0.58711952  0.50103454  0.87579065  1  0  0.041574  0.096918  0  3.930129  0
C  C25  1  0.41288011  0.49897045  0.12420911  1  0  0.04158  0.096872  0  3.929937  0
C  C26  1  0.61850893  0.36950842  0.92235986  1  0  -0.084956  -0.115161  0  3.951093  0
C  C27  1  0.38149068  0.63049857  0.07763960  1  0  -0.084944  -0.115047  0  3.951002  0
C  C28  1  0.57678232  0.26545992  0.88108681  1  0  -0.069718  -0.017959  0  3.952256  0
C  C29  1  0.42321600  0.73454105  0.11891297  1  0  -0.069729  -0.017988  0  3.95234  0
C  C30  1  0.50617995  0.29601053  0.79494607  1  0  -0.078517  -0.143014  0  3.915967  0
C  C31  1  0.49382104  0.70399246  0.20505189  1  0  -0.078521  -0.143018  0  3.915943  0
C  C32  1  0.47590172  0.43090099  0.75308922  1  0  0.120424  0.160745  0  3.989057  0
C  C33  1  0.52409925  0.56910300  0.24691063  1  0  0.120416  0.160705  0  3.989096  0
C  C34  1  0.39676677  0.46810746  0.66387855  1  0  0.21478  0.229121  0  4.034642  0
C  C35  1  0.60323420  0.53189552  0.33612215  1  0  0.21476  0.229094  0  4.034634  0
C  C36  1  0.28695532  0.58251351  0.54260705  1  0  0.238795  0.246846  0  4.005434  0
C  C37  1  0.71304568  0.41748647  0.45739274  1  0  0.238792  0.246871  0  4.005442  0
C  C38  1  0.22248536  0.67976556  0.46519814  1  0  0.231418  0.226135  0  4.050557  0
C  C39  1  0.77751430  0.32023441  0.53480105  1  0  0.231375  0.226065  0  4.050535  0
C  C40  1  0.11043802  0.76158537  0.33794044  1  0  0.217691  0.242522  0  4.030966  0
C  C41  1  0.88956294  0.23841861  0.66206009  1  0  0.21769  0.24254  0  4.030972  0
C  C42  1  0.02972929  0.77591524  0.24964466  1  0  0.121391  0.160392  0  3.984634  0
C  C43  1  0.97027037  0.22408373  0.75035537  1  0  0.121401  0.160261  0  3.984813  0
C  C44  1  0.99695229  0.66452142  0.21347811  1  0  -0.075812  -0.13507  0  3.90373  0
C  C45  1  0.00304737  0.33547553  0.78652360  1  0  -0.07579  -0.134925  0  3.903721  0
C  C46  1  0.92510379  0.68593730  0.12766497  1  0  -0.070926  -0.01982  0  3.949502  0
C  C47  1  0.07489587  0.31405865  0.87233757  1  0  -0.070926  -0.019841  0  3.949684  0
C  C48  1  0.88536879  0.81645384  0.08123492  1  0  -0.085412  -0.119057  0  3.954439  0
C  C49  1  0.11463088  0.18353909  0.91876878  1  0  -0.085392  -0.119106  0  3.95439  0
C  C50  1  0.91961836  0.92181711  0.12249820  1  0  0.043778  0.100476  0  3.933935  0
C  C51  1  0.08037866  0.07817784  0.87750192  1  0  0.043738  0.100532  0  3.933815  0
I  I52  1  0.09757682  0.69522112  0.85661011  1  0  -0.207761  -0.387423  0  1.525379  0
I  I53  1  0.90241083  0.30477379  0.14339118  1  0  -0.20775  -0.38741  0  1.525416  0
I  I54  1  0.59274613  0.89192542  0.85533727  1  0  -0.210846  -0.390828  0  1.511638  0
I  I55  1  0.40725352  0.10807455  0.14466260  1  0  -0.210849  -0.390832  0  1.511606  0
I  I56  1  0.30650453  0.99156978  0.61610962  1  0  -0.187645  -0.35261  0  1.72715  0
I  I57  1  0.69349646  0.00843019  0.38389018  1  0  -0.187646  -0.352594  0  1.727112  0
I  I58  1  0.81285474  0.75131680  0.61356898  1  0  -0.225063  -0.389059  0  1.626694  0
I  I59  1  0.18714627  0.24868318  0.38642945  1  0  -0.225067  -0.389059  0  1.626677  0
N  N60  1  0.51527503  0.53106166  0.79348798  1  0  -0.328192  -0.236826  0  3.510753  0
N  N61  1  0.48472594  0.46893931  0.20651303  1  0  -0.328166  -0.236746  0  3.51061  0
N  N62  1  0.35653735  0.59694660  0.62018011  1  0  -0.328688  -0.372269  0  3.299383  0
N  N63  1  0.64346365  0.40305439  0.37981816  1  0  -0.328707  -0.372277  0  3.299321  0
N  N64  1  0.35571253  0.37600590  0.61748187  1  0  -0.208124  -0.210711  0  3.114467  0
N  N65  1  0.64428846  0.62399508  0.38251778  1  0  -0.208127  -0.210686  0  3.114513  0
N  N66  1  0.28681759  0.45011444  0.54189199  1  0  -0.248265  -0.107985  0  3.678727  0
N  N67  1  0.71318340  0.54988654  0.45810765  1  0  -0.248238  -0.108028  0  3.678704  0
N  N68  1  0.14998453  0.64278568  0.39533733  1  0  -0.326138  -0.396521  0  3.19091  0
N  N69  1  0.85001511  0.35721730  0.60466207  1  0  -0.326117  -0.396485  0  3.190843  0
N  N70  1  0.22723767  0.81531102  0.44941198  1  0  -0.244517  -0.086142  0  3.645645  0
N  N71  1  0.77276599  0.18468996  0.55058752  1  0  -0.244496  -0.08612  0  3.645756  0
N  N72  1  0.15538657  0.86877453  0.36916910  1  0  -0.22178  -0.196381  0  3.286944  0
N  N73  1  0.84461443  0.13122544  0.63083070  1  0  -0.221745  -0.1963  0  3.286861  0
N  N74  1  0.99185569  0.90218455  0.20432186  1  0  -0.329228  -0.247208  0  3.503464  0
N  N75  1  0.00813996  0.09781441  0.79567769  1  0  -0.329196  -0.247165  0  3.503491  0
