# generated using pymatgen
data_Cu2H3C5N11O2
_symmetry_space_group_name_H-M   'P 1'
_cell_length_a   7.93705244
_cell_length_b   11.83356691
_cell_length_c   11.88348876
_cell_angle_alpha   90.00124875
_cell_angle_beta   100.75263374
_cell_angle_gamma   89.99881471
_symmetry_Int_Tables_number   1
_chemical_formula_structural   Cu2H3C5N11O2
_chemical_formula_sum   'Cu8 H12 C20 N44 O8'
_cell_volume   1096.54313926
_cell_formula_units_Z   4
loop_
 _symmetry_equiv_pos_site_id
 _symmetry_equiv_pos_as_xyz
  1  'x, y, z'
loop_
 _atom_site_type_symbol
 _atom_site_label
 _atom_site_symmetry_multiplicity
 _atom_site_fract_x
 _atom_site_fract_y
 _atom_site_fract_z
 _atom_site_occupancy
 _atom_site_hle17_ddec_charge
 _atom_site_hle17_ddec_spin_density
 _atom_site_hle17_ddec_sum_bond_order
 _atom_site_hle17_magmom
 _atom_site_hse06_10hf_ddec_charge
 _atom_site_hse06_10hf_ddec_spin_density
 _atom_site_hse06_10hf_ddec_sum_bond_order
 _atom_site_hse06_10hf_magmom
 _atom_site_hse06_ddec_charge
 _atom_site_hse06_ddec_spin_density
 _atom_site_hse06_ddec_sum_bond_order
 _atom_site_hse06_magmom
 _atom_site_pbe_cm5_charge
 _atom_site_pbe_ddec_charge
 _atom_site_pbe_ddec_spin_density
 _atom_site_pbe_ddec_sum_bond_order
 _atom_site_pbe_magmom
Cu  Cu0  1  0.81463780  0.91052583  0.27072663  1  0.797301  0.555646  1.906034  0.37  0.810858  0.700769  2.314867  0.525  0.902951  0.809858  2.241984  0.628  0.765603  0.761207  0.618028  2.363653  0.454
Cu  Cu1  1  0.18541009  0.41061288  0.22925117  1  0.797216  -0.555643  1.905983  -0.37  0.810744  -0.700774  2.314829  -0.525  0.902908  -0.809894  2.241924  -0.628  0.76541  0.761008  -0.617992  2.36374  -0.454
Cu  Cu2  1  0.18636813  0.08988086  0.73079004  1  0.795262  -0.527907  1.9068  -0.355  0.810164  -0.69743  2.314927  -0.526  0.905974  -0.813639  2.239635  -0.635  0.762934  0.757999  -0.600791  2.365459  -0.445
Cu  Cu3  1  0.81366081  0.58995520  0.76917694  1  0.795195  0.527918  1.907067  0.355  0.810382  0.697436  2.314814  0.526  0.906068  0.813654  2.239704  0.635  0.76296  0.758118  0.600803  2.365453  0.444
Cu  Cu4  1  0.99987781  0.49975577  0.49985594  1  0.805676  -0.758482  1.941011  -0.504  0.801838  -0.847994  2.325644  -0.635  0.885724  -0.93073  2.26567  -0.725  0.770131  0.752296  -0.778956  2.367637  -0.569
Cu  Cu5  1  0.00005203  0.99979238  0.00023849  1  0.805876  0.758398  1.941283  0.504  0.80238  0.847938  2.325566  0.634  0.886251  0.930703  2.265601  0.725  0.770368  0.753072  0.778838  2.36722  0.569
Cu  Cu6  1  0.99876236  0.99892478  0.49871028  1  0.79278  0.535343  2.019829  0.356  0.829032  0.708149  2.419472  0.531  0.922254  0.81597  2.341155  0.633  0.776812  0.779296  0.61502  2.467436  0.452
Cu  Cu7  1  0.00136039  0.49900762  0.00121739  1  0.793028  -0.535313  2.019411  -0.356  0.829333  -0.708115  2.418978  -0.531  0.922534  -0.81593  2.340635  -0.633  0.776852  0.779548  -0.614967  2.466973  -0.452
H  H8  1  0.72845292  0.31072433  0.50981192  1  0.112205  -0.000986  0.947075  -0.002  0.116133  -0.000975  1.013476  -0.002  0.119593  -0.000717  1.010785  -0.001  0.130257  0.113299  -0.001158  1.015907  -0.002
H  H9  1  0.27143298  0.81081711  0.99020908  1  0.112275  0.00098  0.946981  0.002  0.116308  0.000975  1.013182  0.002  0.119772  0.000716  1.01048  0.001  0.130311  0.113466  0.001157  1.015606  0.002
H  H10  1  0.27113365  0.68885589  0.48956800  1  0.112754  -0.000498  0.946814  -0.002  0.115574  -0.00022  1.014334  -0.001  0.118773  -0.000145  1.011887  -0.001  0.130088  0.113091  -0.000272  1.016436  -0.001
H  H11  1  0.72873252  0.18897946  0.01043356  1  0.112397  0.000497  0.947143  0.002  0.115537  0.000219  1.014419  0.001  0.118738  0.000144  1.011965  0.001  0.130125  0.113051  0.000271  1.016531  0.001
H  H12  1  0.42282465  0.29021921  0.40410633  1  0.103146  -0.001145  0.989005  -0.001  0.104144  -0.001141  1.061132  -0.001  0.107971  -0.000887  1.05743  -0.001  0.124013  0.100957  -0.001317  1.06436  -0.002
H  H13  1  0.57706852  0.79023636  0.09587301  1  0.103224  0.001142  0.988755  0.001  0.104209  0.001141  1.060997  0.001  0.108035  0.000886  1.057303  0.001  0.123949  0.101011  0.001316  1.064257  0.002
H  H14  1  0.57641588  0.70976749  0.59561547  1  0.103928  0.000309  0.989837  0.0  0.104914  0.0006  1.061971  0.0  0.108413  0.000517  1.058672  0.0  0.124441  0.102096  0.000628  1.064783  0.0
H  H15  1  0.42348180  0.20982892  0.90432324  1  0.1038  -0.000307  0.989951  0.0  0.1047  -0.000601  1.062224  0.0  0.108203  -0.000518  1.05892  0.0  0.124301  0.101888  -0.000628  1.065023  0.0
H  H16  1  0.45991101  0.59823159  0.23891054  1  0.123353  -0.001273  0.916329  -0.002  0.128024  -0.001184  0.98205  -0.002  0.131689  -0.000794  0.978381  -0.001  0.134961  0.125176  -0.001493  0.984862  -0.002
H  H17  1  0.54017042  0.09826283  0.26109766  1  0.12313  0.001265  0.916622  0.002  0.127928  0.001184  0.982255  0.002  0.131587  0.000794  0.978591  0.001  0.135001  0.125086  0.001493  0.985064  0.002
H  H18  1  0.53968191  0.40175933  0.76095573  1  0.123135  -0.000426  0.916904  0.0  0.127906  -0.000171  0.982526  0.0  0.131576  -1.7e-05  0.978841  0.0  0.135143  0.125064  -0.000375  0.985334  0.0
H  H19  1  0.46035806  0.90175682  0.73910762  1  0.12321  0.000432  0.916824  0.0  0.12807  0.00017  0.982385  0.0  0.131769  1.7e-05  0.978677  0.0  0.1353  0.125212  0.000374  0.98523  0.0
C  C20  1  0.66838632  0.37398394  0.44865402  1  0.104301  0.002296  3.601689  0.002  0.078736  -0.001367  3.853018  -0.001  0.083632  -0.000307  3.866057  0.0  0.069639  0.075186  -0.002245  3.845712  -0.002
C  C21  1  0.33153017  0.87404156  0.05139399  1  0.104229  -0.002277  3.60229  -0.002  0.07899  0.001362  3.853343  0.001  0.083848  0.000299  3.866404  0.0  0.069677  0.075466  0.002243  3.846027  0.002
C  C22  1  0.33110466  0.62577121  0.55096381  1  0.104216  0.01125  3.60106  0.011  0.079274  0.003405  3.852785  0.004  0.084195  0.004692  3.865982  0.006  0.069736  0.075712  0.002174  3.845176  0.003
C  C23  1  0.66879615  0.12583950  0.94908122  1  0.104752  -0.011218  3.601279  -0.011  0.079279  -0.003403  3.853324  -0.004  0.084192  -0.004689  3.866528  -0.006  0.069765  0.075716  -0.002175  3.845745  -0.003
C  C24  1  0.49913723  0.36368327  0.39094369  1  0.109265  -0.00328  3.605994  -0.004  0.080155  -0.00241  3.858596  -0.003  0.08728  -0.001244  3.870684  -0.001  0.066686  0.075268  -0.003351  3.852022  -0.004
C  C25  1  0.50078343  0.86371024  0.10908443  1  0.10932  0.00328  3.605627  0.004  0.079987  0.002412  3.858355  0.003  0.087087  0.001249  3.870458  0.001  0.066973  0.075124  0.003353  3.851757  0.004
C  C26  1  0.50023022  0.63625272  0.60880670  1  0.109201  -0.014555  3.605176  -0.014  0.079899  -0.00574  3.857347  -0.007  0.086942  -0.006426  3.869758  -0.008  0.06671  0.075124  -0.005197  3.850448  -0.006
C  C27  1  0.49968193  0.13629420  0.89121389  1  0.109222  0.014513  3.605738  0.014  0.079935  0.005739  3.858249  0.007  0.086995  0.006423  3.870638  0.008  0.066888  0.075159  0.005195  3.851363  0.006
C  C28  1  0.80132130  0.64503876  0.34539161  1  0.620959  0.003597  3.917011  0.006  0.580407  -0.001414  4.213247  0.0  0.618922  -0.001145  4.206583  0.0  0.208181  0.554813  -0.001747  4.216293  0.0
C  C29  1  0.19866897  0.14509607  0.15467512  1  0.62089  -0.003601  3.917295  -0.006  0.580409  0.001414  4.213415  0.0  0.618944  0.001145  4.206766  0.0  0.208087  0.554821  0.001748  4.216486  0.0
C  C30  1  0.19853769  0.35492343  0.65475048  1  0.62061  0.004743  3.917618  0.007  0.580021  -0.00038  4.213944  0.001  0.618596  -0.000296  4.20733  0.001  0.208518  0.554399  -0.000661  4.216932  0.002
C  C31  1  0.80142128  0.85496246  0.84534376  1  0.620531  -0.004745  3.916684  -0.007  0.57986  0.000383  4.213194  -0.001  0.618438  0.000297  4.206563  -0.001  0.208197  0.554244  0.000662  4.216207  -0.002
C  C32  1  0.51923156  0.53413959  0.29939563  1  0.098901  -0.002457  3.600853  -0.002  0.061671  -0.00236  3.852227  -0.002  0.068762  -0.001551  3.865978  -0.001  0.073309  0.057047  -0.003021  3.844417  -0.002
C  C33  1  0.48079235  0.03415595  0.20066035  1  0.098818  0.002459  3.600762  0.002  0.061267  0.002361  3.852405  0.002  0.068359  0.001555  3.866144  0.001  0.07305  0.056643  0.003025  3.844605  0.002
C  C34  1  0.48041128  0.46589274  0.70050975  1  0.099166  -0.010166  3.603305  -0.009  0.061489  -0.002827  3.855235  -0.003  0.068928  -0.003848  3.868456  -0.004  0.073189  0.056564  -0.002309  3.84795  -0.002
C  C35  1  0.51956668  0.96589750  0.79958336  1  0.099367  0.010128  3.602227  0.009  0.061638  0.002836  3.8541  0.003  0.069057  0.00385  3.867348  0.004  0.073193  0.056707  0.00231  3.846832  0.002
C  C36  1  0.68790997  0.54523462  0.35749279  1  0.057694  0.000839  3.693644  0.001  0.066999  -0.001964  3.930452  -0.002  0.066481  -0.001069  3.946587  -0.001  0.12018  0.066482  -0.002645  3.920645  -0.002
C  C37  1  0.31207376  0.04526809  0.14261138  1  0.05831  -0.00082  3.692573  -0.001  0.067805  0.001965  3.929418  0.002  0.067259  0.001068  3.945532  0.001  0.120683  0.06728  0.002642  3.919661  0.002
C  C38  1  0.31175212  0.45471997  0.64241079  1  0.057272  0.01056  3.694203  0.011  0.066851  0.003699  3.931489  0.005  0.066467  0.004933  3.947287  0.006  0.119751  0.066132  0.00275  3.922007  0.004
C  C39  1  0.68819905  0.95473804  0.85773004  1  0.057616  -0.010524  3.693576  -0.011  0.067085  -0.003712  3.930914  -0.005  0.066688  -0.004937  3.946716  -0.006  0.11982  0.066361  -0.002759  3.921463  -0.004
N  N40  1  0.28824450  0.81600587  0.33212204  1  -0.278209  0.146521  2.339089  0.155  -0.292053  0.087843  2.559593  0.099  -0.300223  0.079847  2.571173  0.094  -0.134226  -0.287469  0.08925  2.552033  0.097
N  N41  1  0.71179834  0.31613657  0.16776729  1  -0.277856  -0.146536  2.339174  -0.155  -0.291835  -0.087857  2.559693  -0.099  -0.300016  -0.079868  2.571272  -0.094  -0.134232  -0.287231  -0.089253  2.552114  -0.097
N  N42  1  0.71082864  0.18227888  0.66689875  1  -0.276907  -0.014064  2.337715  -0.016  -0.292671  -0.007096  2.558264  -0.009  -0.303395  -0.006608  2.571494  -0.008  -0.131889  -0.285094  -0.005788  2.548619  -0.007
N  N43  1  0.28912626  0.68247776  0.83301039  1  -0.276809  0.01419  2.33802  0.016  -0.292497  0.007144  2.558475  0.009  -0.303173  0.006641  2.571644  0.008  -0.131722  -0.284921  0.005841  2.548831  0.007
N  N44  1  0.17305201  0.87157756  0.34555843  1  0.402858  -0.035019  4.108855  -0.051  0.453363  -0.005285  4.404923  -0.015  0.475565  -0.011171  4.437682  -0.022  0.098649  0.439893  0.000188  4.383883  -0.009
N  N45  1  0.82701508  0.37168860  0.15433345  1  0.403056  0.035008  4.109533  0.051  0.453617  0.005286  4.405438  0.015  0.475825  0.011175  4.438194  0.022  0.099058  0.440136  -0.000191  4.384394  0.009
N  N46  1  0.82720864  0.12784885  0.65361513  1  0.405441  0.005608  4.099704  0.008  0.45612  0.002123  4.396483  0.004  0.478483  0.002535  4.431969  0.004  0.1018  0.44255  0.001467  4.372454  0.003
N  N47  1  0.17281180  0.62798543  0.84629016  1  0.405239  -0.00566  4.100052  -0.008  0.455888  -0.002135  4.396908  -0.004  0.478237  -0.002546  4.432417  -0.004  0.101395  0.442316  -0.001475  4.372862  -0.003
N  N48  1  0.05373284  0.93238520  0.35606230  1  -0.54735  0.10636  2.960153  0.124  -0.586083  0.07449  3.347174  0.094  -0.640654  0.056707  3.356973  0.077  -0.369171  -0.557471  0.080133  3.345334  0.096
N  N49  1  0.94636344  0.43246222  0.14384380  1  -0.547828  -0.106289  2.96056  -0.124  -0.586563  -0.074467  3.347516  -0.094  -0.641133  -0.056698  3.357296  -0.077  -0.369651  -0.557937  -0.080101  3.34569  -0.096
N  N50  1  0.94873396  0.06925945  0.64231253  1  -0.542712  -0.014467  2.942308  -0.017  -0.58439  -0.006611  3.330215  -0.009  -0.6417  -0.004634  3.342355  -0.007  -0.364576  -0.552931  -0.005971  3.325711  -0.008
N  N51  1  0.05136239  0.56932109  0.85758675  1  -0.542618  0.014608  2.941648  0.018  -0.584411  0.006679  3.329529  0.009  -0.641693  0.004685  3.341706  0.007  -0.364325  -0.552953  0.006039  3.325068  0.008
N  N52  1  0.96976654  0.18947886  0.38649395  1  -0.314772  -0.15741  2.408969  -0.166  -0.360384  -0.075933  2.680012  -0.084  -0.380201  -0.061029  2.691147  -0.071  -0.169228  -0.347336  -0.084696  2.67195  -0.091
N  N53  1  0.03037037  0.68941872  0.11348362  1  -0.314678  0.157388  2.409231  0.166  -0.360167  0.075932  2.680203  0.084  -0.379956  0.061039  2.691299  0.071  -0.169043  -0.347121  0.084687  2.672152  0.091
N  N54  1  0.03103879  0.81107569  0.61287184  1  -0.322743  0.140087  2.414244  0.149  -0.365486  0.070982  2.683715  0.08  -0.384657  0.059495  2.694197  0.07  -0.173175  -0.354107  0.072812  2.676947  0.079
N  N55  1  0.96903071  0.31102263  0.88709232  1  -0.32281  -0.140148  2.413454  -0.149  -0.365577  -0.07099  2.682894  -0.08  -0.384756  -0.059489  2.693393  -0.07  -0.17296  -0.354173  -0.072838  2.676119  -0.079
N  N56  1  0.03789445  0.27538499  0.37720423  1  0.393099  0.042835  4.140291  0.06  0.448572  0.007435  4.453606  0.017  0.471137  0.009573  4.492133  0.018  0.084104  0.434997  0.003882  4.426491  0.013
N  N57  1  0.96216331  0.77530440  0.12277026  1  0.392801  -0.042835  4.140642  -0.06  0.448232  -0.007434  4.453948  -0.017  0.470801  -0.009572  4.492442  -0.018  0.08395  0.434651  -0.003884  4.426851  -0.013
N  N58  1  0.96254840  0.72520844  0.62195103  1  0.395356  -0.036942  4.144464  -0.053  0.450708  -0.005996  4.454221  -0.014  0.473355  -0.008611  4.492095  -0.017  0.084058  0.437163  -0.00228  4.428491  -0.01
N  N59  1  0.03744119  0.22513102  0.87800714  1  0.395566  0.036975  4.144375  0.053  0.450935  0.005995  4.454179  0.014  0.473578  0.008612  4.492087  0.017  0.083841  0.437396  0.002281  4.428485  0.01
N  N60  1  0.10547591  0.36655394  0.37273936  1  -0.530135  -0.105913  2.754749  -0.124  -0.593307  -0.053486  3.130891  -0.069  -0.643838  -0.03458  3.146784  -0.049  -0.326347  -0.562172  -0.063299  3.121522  -0.077
N  N61  1  0.89451411  0.86645073  0.12723527  1  -0.530093  0.105782  2.755656  0.124  -0.593289  0.053436  3.131881  0.069  -0.643786  0.034538  3.147764  0.049  -0.326456  -0.562222  0.063257  3.122515  0.077
N  N62  1  0.89417715  0.63434794  0.62624922  1  -0.53481  0.092325  2.760523  0.106  -0.595529  0.047669  3.13495  0.06  -0.645695  0.031192  3.149868  0.042  -0.327469  -0.565501  0.052373  3.127078  0.062
N  N63  1  0.10573908  0.13423652  0.87370368  1  -0.534939  -0.092484  2.760728  -0.106  -0.59568  -0.047743  3.135161  -0.06  -0.645898  -0.031253  3.15009  -0.042  -0.327468  -0.565701  -0.052447  3.127296  -0.062
N  N64  1  0.75711537  0.97268667  0.41978202  1  -0.546542  0.091504  2.904036  0.106  -0.583405  0.066034  3.290314  0.083  -0.637102  0.048803  3.302548  0.066  -0.35866  -0.553349  0.073289  3.285823  0.087
N  N65  1  0.24299767  0.47276958  0.08019015  1  -0.546513  -0.091476  2.903932  -0.106  -0.583354  -0.066034  3.290258  -0.083  -0.637069  -0.048804  3.302495  -0.066  -0.358463  -0.55327  -0.073287  3.285752  -0.087
N  N66  1  0.24014084  0.02802594  0.57983322  1  -0.537728  0.020865  2.88721  0.024  -0.575982  0.004671  3.272682  0.005  -0.631837  0.00195  3.287233  0.002  -0.35161  -0.54428  0.006315  3.266142  0.007
N  N67  1  0.75998077  0.52810863  0.92013148  1  -0.538034  -0.020806  2.887792  -0.024  -0.576276  -0.004646  3.273174  -0.005  -0.632118  -0.001935  3.287776  -0.002  -0.351751  -0.544553  -0.006287  3.266649  -0.007
N  N68  1  0.66631502  0.92267511  0.47517513  1  0.39304  -0.031415  4.133866  -0.046  0.435907  -0.003773  4.4417  -0.014  0.456638  -0.0094  4.476843  -0.02  0.096935  0.42287  0.001472  4.418974  -0.007
N  N69  1  0.33378265  0.42275636  0.02478310  1  0.392485  0.031396  4.134174  0.046  0.435271  0.003767  4.442133  0.014  0.456004  0.009392  4.47729  0.02  0.096494  0.422239  -0.001479  4.419382  0.007
N  N70  1  0.33281572  0.07678850  0.52481896  1  0.38891  -0.008245  4.13058  -0.012  0.431935  -0.000677  4.438822  -0.002  0.452827  -0.000838  4.476344  -0.002  0.095916  0.418916  -0.000337  4.413981  -0.002
N  N71  1  0.66727391  0.57687287  0.97512424  1  0.389209  0.008213  4.130914  0.012  0.4322  0.000668  4.439234  0.002  0.453085  0.000828  4.476743  0.002  0.09587  0.419183  0.000335  4.414381  0.002
N  N72  1  0.57761897  0.87953043  0.52946560  1  -0.274373  0.140194  2.405325  0.148  -0.279197  0.087955  2.636569  0.098  -0.286162  0.080431  2.647866  0.094  -0.129667  -0.274553  0.090066  2.628964  0.097
N  N73  1  0.42245271  0.37961364  0.97046916  1  -0.274071  -0.140163  2.405639  -0.148  -0.278747  -0.087931  2.636794  -0.098  -0.28573  -0.080404  2.648109  -0.094  -0.129399  -0.274096  -0.090049  2.629177  -0.097
N  N74  1  0.42202677  0.11977854  0.47078514  1  -0.272316  0.026553  2.403762  0.028  -0.27794  0.006155  2.634777  0.007  -0.287363  0.004272  2.647864  0.005  -0.127822  -0.271218  0.007604  2.625522  0.008
N  N75  1  0.57801204  0.61986855  0.02912390  1  -0.2723  -0.026452  2.403686  -0.028  -0.277955  -0.006108  2.634743  -0.007  -0.287361  -0.004232  2.647832  -0.005  -0.127643  -0.271244  -0.007567  2.625493  -0.008
N  N76  1  0.76057668  0.46464300  0.43090253  1  -0.250551  -0.068009  3.356488  -0.079  -0.209703  -0.049795  3.635708  -0.063  -0.229997  -0.04098  3.654101  -0.054  -0.329769  -0.198942  -0.054073  3.62628  -0.066
N  N77  1  0.23936173  0.96469217  0.06919898  1  -0.251071  0.068009  3.357383  0.079  -0.210697  0.049806  3.636951  0.063  -0.23094  0.04099  3.655282  0.054  -0.330311  -0.200001  0.054082  3.627559  0.066
N  N78  1  0.23899981  0.53512398  0.56887332  1  -0.249404  -0.076169  3.356767  -0.089  -0.209163  -0.052601  3.636244  -0.067  -0.229271  -0.044395  3.654352  -0.059  -0.329507  -0.198431  -0.056403  3.62699  -0.069
N  N79  1  0.76091337  0.03516861  0.93124035  1  -0.249757  0.076125  3.35704  0.089  -0.20921  0.052597  3.636421  0.067  -0.229309  0.044391  3.654526  0.059  -0.329625  -0.198529  0.056397  3.627191  0.069
N  N80  1  0.42594646  0.44300139  0.31684866  1  -0.241363  -0.0335  3.288654  -0.039  -0.189667  -0.036351  3.575009  -0.046  -0.210599  -0.033017  3.589042  -0.044  -0.318304  -0.179295  -0.03688  3.568938  -0.045
N  N81  1  0.57403121  0.94300533  0.18317569  1  -0.241129  0.033472  3.288308  0.039  -0.189277  0.036332  3.574712  0.046  -0.210165  0.032995  3.58873  0.044  -0.318232  -0.178918  0.036864  3.568612  0.045
N  N82  1  0.57355664  0.55706136  0.68302314  1  -0.242098  0.042753  3.295137  0.05  -0.191088  0.040255  3.582941  0.051  -0.212168  0.038177  3.596357  0.051  -0.31977  -0.180842  0.038734  3.577603  0.048
N  N83  1  0.42639469  0.05707601  0.81701248  1  -0.242609  -0.042745  3.295231  -0.05  -0.19142  -0.040276  3.583026  -0.051  -0.212531  -0.038193  3.596422  -0.051  -0.32016  -0.181188  -0.03875  3.577697  -0.048
O  O84  1  0.73296833  0.73013050  0.29352267  1  -0.574347  -0.021296  2.039881  -0.024  -0.546211  -0.009832  2.296058  -0.012  -0.580674  -0.005277  2.287158  -0.006  -0.302025  -0.52153  -0.015299  2.300654  -0.018
O  O85  1  0.26700305  0.23017871  0.20655948  1  -0.574051  0.021299  2.040067  0.024  -0.546078  0.009836  2.296513  0.012  -0.58053  0.005276  2.287528  0.006  -0.30169  -0.521383  0.01531  2.301118  0.018
O  O86  1  0.26689611  0.27029817  0.70743217  1  -0.571386  -0.023725  2.041622  -0.029  -0.544609  -0.010034  2.298349  -0.014  -0.579379  -0.004252  2.28917  -0.006  -0.300694  -0.519401  -0.017065  2.303051  -0.022
O  O87  1  0.73304698  0.77032599  0.79269110  1  -0.571659  0.023736  2.041329  0.029  -0.544879  0.010042  2.298163  0.014  -0.579637  0.004261  2.289013  0.006  -0.300577  -0.519599  0.017075  2.302749  0.022
O  O88  1  0.96007547  0.63315586  0.39149825  1  -0.561092  -0.093646  2.017075  -0.117  -0.541993  -0.05926  2.290426  -0.083  -0.584246  -0.044484  2.285259  -0.066  -0.313514  -0.514746  -0.067466  2.294461  -0.091
O  O89  1  0.03993458  0.13325323  0.10848488  1  -0.561268  0.09372  2.017216  0.117  -0.54234  0.059314  2.290774  0.083  -0.584545  0.04453  2.285434  0.066  -0.313782  -0.51512  0.067509  2.294788  0.091
O  O90  1  0.03989945  0.36636605  0.60801383  1  -0.560966  -0.09791  2.01613  -0.121  -0.541856  -0.061472  2.289016  -0.085  -0.584016  -0.045703  2.283645  -0.066  -0.314244  -0.514888  -0.070376  2.293421  -0.093
O  O91  1  0.96008776  0.86645375  0.89197229  1  -0.560695  0.097823  2.015877  0.12  -0.541714  0.061403  2.288957  0.084  -0.583867  0.045648  2.283577  0.066  -0.314103  -0.51478  0.070306  2.293311  0.093
