# generated using pymatgen
data_NiH16C22N3O5
_symmetry_space_group_name_H-M   'P 1'
_cell_length_a   11.69523531
_cell_length_b   11.69524830
_cell_length_c   16.72725088
_cell_angle_alpha   76.79511507
_cell_angle_beta   76.79486673
_cell_angle_gamma   84.95193701
_symmetry_Int_Tables_number   1
_chemical_formula_structural   NiH16C22N3O5
_chemical_formula_sum   'Ni4 H64 C88 N12 O20'
_cell_volume   2166.99204419
_cell_formula_units_Z   4
loop_
 _symmetry_equiv_pos_site_id
 _symmetry_equiv_pos_as_xyz
  1  'x, y, z'
loop_
 _atom_site_type_symbol
 _atom_site_label
 _atom_site_symmetry_multiplicity
 _atom_site_fract_x
 _atom_site_fract_y
 _atom_site_fract_z
 _atom_site_occupancy
 _atom_site_pbe_bader_charge
 _atom_site_pbe_bader_spin_density
 _atom_site_pbe_cm5_charge
 _atom_site_pbe_ddec_charge
 _atom_site_pbe_ddec_spin_density
 _atom_site_pbe_ddec_sum_bond_order
 _atom_site_pbe_magmom
Ni  Ni0  1  0.06490989  0.43809393  0.14622836  1  1.160028  1.559312  0.645811  0.776413  1.773692  2.498447  1.544
Ni  Ni1  1  0.56190732  0.93508958  0.35377197  1  1.160037  1.55934  0.645782  0.776369  1.773737  2.49842  1.544
Ni  Ni2  1  0.93508968  0.56190548  0.85377153  1  1.160055  1.559369  0.64582  0.776459  1.773782  2.498327  1.544
Ni  Ni3  1  0.43809577  0.06491060  0.64622783  1  1.160029  1.559297  0.645814  0.776394  1.773669  2.498415  1.544
H  H4  1  0.69613509  0.23202105  0.40780873  1  0.104292  0.000596  0.11022  0.111452  0.000393  1.039853  0.0
H  H5  1  0.76797929  0.30387242  0.09219048  1  0.104218  0.000597  0.110209  0.11144  0.000393  1.039821  0.0
H  H6  1  0.30387062  0.76798081  0.59219038  1  0.104252  0.000597  0.1102  0.111418  0.000393  1.039813  0.0
H  H7  1  0.23201939  0.69612966  0.90781032  1  0.104252  0.000596  0.110212  0.111451  0.000393  1.039811  0.0
H  H8  1  0.84762872  0.07435181  0.61934912  1  0.101479  0.000663  0.106088  0.111017  0.000445  1.01184  0.0
H  H9  1  0.92564738  0.15237335  0.88065152  1  0.101461  0.000663  0.106099  0.111025  0.000445  1.011861  0.0
H  H10  1  0.15237349  0.92564928  0.38065127  1  0.101461  0.000663  0.106089  0.111029  0.000445  1.011826  0.0
H  H11  1  0.07435043  0.84762700  0.11934970  1  0.101442  0.000663  0.10607  0.111016  0.000445  1.011832  0.0
H  H12  1  0.06225970  0.26195501  0.38659617  1  0.121951  0.000352  0.105548  0.111749  0.000224  1.032971  0.0
H  H13  1  0.73804788  0.93774472  0.11340524  1  0.122033  0.000352  0.10555  0.111763  0.000224  1.032988  0.0
H  H14  1  0.93774161  0.73804874  0.61340513  1  0.121992  0.000352  0.105551  0.111752  0.000224  1.032953  0.0
H  H15  1  0.26195081  0.06225560  0.88659465  1  0.122015  0.000352  0.105548  0.111751  0.000224  1.032963  0.0
H  H16  1  0.19481223  0.24448047  0.43641379  1  0.098921  0.000933  0.107298  0.112367  0.000439  1.032933  0.0
H  H17  1  0.75551888  0.80518878  0.06358794  1  0.099291  0.000933  0.107275  0.112347  0.000439  1.032937  0.0
H  H18  1  0.80518910  0.75551977  0.56358748  1  0.09887  0.000933  0.107282  0.112366  0.000439  1.032927  0.0
H  H19  1  0.24448069  0.19481063  0.93641255  1  0.098907  0.000933  0.107278  0.112358  0.000439  1.032939  0.0
H  H20  1  0.37115726  0.19463362  0.49536798  1  0.134133  0.002398  0.122725  0.101882  0.000903  1.011765  0.002
H  H21  1  0.80536471  0.62884368  0.00463301  1  0.134146  0.002397  0.122692  0.101862  0.000902  1.011764  0.002
H  H22  1  0.62884408  0.80536486  0.50463297  1  0.134157  0.002398  0.122704  0.10188  0.000903  1.011746  0.002
H  H23  1  0.19463486  0.37115573  0.99536688  1  0.134155  0.002398  0.122702  0.101861  0.000903  1.011765  0.002
H  H24  1  0.18992832  0.97267753  0.70684804  1  0.113859  0.002309  0.117889  0.087231  0.000803  1.014714  0.001
H  H25  1  0.02731962  0.81007243  0.79315232  1  0.113963  0.002307  0.117864  0.087248  0.000802  1.014643  0.001
H  H26  1  0.81007390  0.02732093  0.29315218  1  0.113885  0.002309  0.11787  0.087212  0.000803  1.014707  0.001
H  H27  1  0.97267908  0.18992702  0.20684771  1  0.113955  0.002308  0.117874  0.087217  0.000803  1.014699  0.001
H  H28  1  0.00361763  0.01088782  0.65706013  1  0.102584  0.001168  0.107503  0.113921  0.000554  1.009681  0.0
H  H29  1  0.98911035  0.99638200  0.84294036  1  0.102717  0.001168  0.107502  0.113937  0.000555  1.009637  0.0
H  H30  1  0.99638370  0.98911154  0.34294008  1  0.102574  0.001168  0.107489  0.113923  0.000555  1.009673  0.0
H  H31  1  0.01088923  0.00361741  0.15705953  1  0.102697  0.001168  0.107495  0.113949  0.000554  1.009643  0.0
H  H32  1  0.28094502  0.23478397  0.15668195  1  0.104772  0.000857  0.117152  0.11013  0.000269  1.013068  0.001
H  H33  1  0.76522103  0.71905566  0.34331461  1  0.106207  0.000857  0.117187  0.110183  0.000269  1.013033  0.001
H  H34  1  0.71905632  0.76521363  0.84331735  1  0.104836  0.000857  0.11715  0.110102  0.000269  1.012993  0.001
H  H35  1  0.23477942  0.28094460  0.65668560  1  0.106218  0.000857  0.117185  0.110189  0.000269  1.013028  0.001
H  H36  1  0.40996233  0.22433017  0.27801362  1  0.168308  0.000969  0.128286  0.144441  0.000454  1.018742  0.001
H  H37  1  0.77567366  0.59004106  0.22198130  1  0.168114  0.000969  0.128275  0.144421  0.000454  1.018785  0.001
H  H38  1  0.59003813  0.77566833  0.72198568  1  0.168302  0.000969  0.128286  0.144459  0.000454  1.018683  0.001
H  H39  1  0.22432503  0.40995926  0.77801919  1  0.168112  0.000968  0.128271  0.144408  0.000454  1.018765  0.001
H  H40  1  0.21515397  0.54996908  0.24398659  1  0.142691  0.000543  0.138413  0.109333  3.8e-05  0.99312  0.0
H  H41  1  0.45003208  0.78484407  0.25601393  1  0.142728  0.000543  0.13844  0.109356  3.8e-05  0.99308  0.0
H  H42  1  0.78484299  0.45002690  0.75601308  1  0.142847  0.000542  0.13842  0.109371  3.7e-05  0.993045  0.0
H  H43  1  0.54996749  0.21515623  0.74398642  1  0.142736  0.000543  0.13844  0.109369  3.8e-05  0.993085  0.0
H  H44  1  0.21813475  0.52163589  0.39482533  1  0.088421  3.7e-05  0.106655  0.114144  2e-06  0.995009  0.0
H  H45  1  0.47836351  0.78186475  0.10517400  1  0.088441  3.7e-05  0.106648  0.11415  2e-06  0.994991  0.0
H  H46  1  0.78186395  0.47836355  0.60517350  1  0.088453  3.7e-05  0.106643  0.114139  2e-06  0.994979  0.0
H  H47  1  0.52163431  0.21813384  0.89482631  1  0.088435  3.7e-05  0.10667  0.114191  2e-06  0.994954  0.0
H  H48  1  0.30261119  0.57217919  0.50245550  1  0.059618  -0.0  0.100186  0.101797  -3.2e-05  1.028165  0.0
H  H49  1  0.42781883  0.69738750  0.99754493  1  0.059687  -1e-06  0.100194  0.101839  -3.2e-05  1.028119  0.0
H  H50  1  0.69738749  0.42782112  0.49754259  1  0.059383  -1e-06  0.100185  0.101814  -3.2e-05  1.028149  0.0
H  H51  1  0.57217898  0.30261197  0.00245583  1  0.059636  -0.0  0.100181  0.101815  -3.2e-05  1.028132  0.0
H  H52  1  0.63078777  0.39835172  0.40823431  1  0.073107  7e-06  0.099713  0.094453  -2.7e-05  1.060234  0.0
H  H53  1  0.60164598  0.36921118  0.09176643  1  0.073086  7e-06  0.099705  0.094452  -2.7e-05  1.060234  0.0
H  H54  1  0.36921092  0.60164772  0.59176512  1  0.073076  7e-06  0.099694  0.094415  -2.7e-05  1.060265  0.0
H  H55  1  0.39835535  0.63078906  0.90823365  1  0.073084  7e-06  0.099704  0.094436  -2.7e-05  1.060257  0.0
H  H56  1  0.54499204  0.34523252  0.30323369  1  0.116573  0.000347  0.112933  0.128568  0.000207  1.028451  0.0
H  H57  1  0.65476695  0.45500952  0.19676520  1  0.117029  0.000347  0.112948  0.12857  0.000207  1.028461  0.0
H  H58  1  0.45500666  0.65476604  0.69676588  1  0.116559  0.000347  0.112927  0.128583  0.000207  1.028393  0.0
H  H59  1  0.34523261  0.54499165  0.80323501  1  0.117005  0.000346  0.112937  0.12855  0.000207  1.028455  0.0
H  H60  1  0.88744679  0.45275500  0.07108848  1  0.646911  0.000548  0.289928  0.382173  0.000648  0.95633  0.0
H  H61  1  0.54724491  0.11255300  0.42891208  1  0.646907  0.000548  0.289929  0.382176  0.000648  0.956325  0.0
H  H62  1  0.11255278  0.54724530  0.92891187  1  0.646907  0.000548  0.289938  0.382179  0.000648  0.956319  0.0
H  H63  1  0.45275466  0.88744729  0.57108827  1  0.646907  0.000548  0.289927  0.382169  0.000648  0.956336  0.0
H  H64  1  0.85013983  0.42448847  0.17453670  1  0.646334  -0.000155  0.282149  0.359983  -0.00015  1.00051  0.0
H  H65  1  0.57550941  0.14986097  0.32546404  1  0.646341  -0.000155  0.282153  0.359997  -0.00015  1.000496  0.0
H  H66  1  0.14986062  0.57551092  0.82546425  1  0.646359  -0.000155  0.282139  0.359978  -0.00015  1.000525  0.0
H  H67  1  0.42449016  0.85013933  0.67453571  1  0.646343  -0.000155  0.28213  0.359966  -0.000149  1.000554  0.0
C  C68  1  0.89387048  0.33170618  0.30297913  1  1.566645  -0.000619  0.201216  0.553807  -0.00113  4.223854  -0.001
C  C69  1  0.66829465  0.10613407  0.19702035  1  1.567256  -0.000618  0.201208  0.553718  -0.00113  4.224069  -0.001
C  C70  1  0.10613261  0.66829400  0.69702067  1  1.56727  -0.000619  0.201194  0.553742  -0.001131  4.223944  -0.001
C  C71  1  0.33170579  0.89386619  0.80297807  1  1.567131  -0.000617  0.201252  0.553872  -0.001129  4.223941  -0.001
C  C72  1  0.88077157  0.25699050  0.39045062  1  0.002027  0.007364  -0.0202  -0.033479  0.004225  4.007067  0.006
C  C73  1  0.74301178  0.11923408  0.10954776  1  0.001983  0.007364  -0.020123  -0.03326  0.004225  4.006953  0.006
C  C74  1  0.11923149  0.74301319  0.60954742  1  0.002035  0.007364  -0.020037  -0.033241  0.004224  4.007043  0.006
C  C75  1  0.25698689  0.88076800  0.89045185  1  0.002016  0.007365  -0.020095  -0.033303  0.004225  4.006941  0.006
C  C76  1  0.77228018  0.21410272  0.43629864  1  -0.019065  -0.000688  -0.074383  -0.111257  -0.001229  3.948138  0.0
C  C77  1  0.78589996  0.22772269  0.06370201  1  -0.018882  -0.000689  -0.07442  -0.111399  -0.00123  3.948077  0.0
C  C78  1  0.22772112  0.78590192  0.56370133  1  -0.018884  -0.000689  -0.074444  -0.111424  -0.00123  3.948065  0.0
C  C79  1  0.21409960  0.77227849  0.93629879  1  -0.018877  -0.000689  -0.074412  -0.111378  -0.001229  3.948133  0.0
C  C80  1  0.76146391  0.14964939  0.51894622  1  -0.045777  0.004666  -0.016663  -0.027982  0.002843  3.99311  0.003
C  C81  1  0.85035449  0.23853843  0.98105265  1  -0.04599  0.004667  -0.016667  -0.027871  0.002843  3.992972  0.003
C  C82  1  0.23853738  0.85035612  0.48105241  1  -0.045928  0.004666  -0.016644  -0.027734  0.002843  3.992867  0.003
C  C83  1  0.14964508  0.76146186  0.01894710  1  -0.04592  0.004667  -0.016663  -0.027812  0.002843  3.992901  0.003
C  C84  1  0.86048959  0.12392604  0.55457008  1  0.000173  -0.003168  -0.072647  -0.12185  -0.003637  3.898884  -0.002
C  C85  1  0.87607548  0.13951333  0.94542891  1  5.5e-05  -0.00317  -0.072664  -0.121887  -0.00364  3.898906  -0.002
C  C86  1  0.13951260  0.87607593  0.44542958  1  -8.7e-05  -0.00317  -0.072656  -0.121896  -0.003639  3.898959  -0.002
C  C87  1  0.12392497  0.86048693  0.05457130  1  2.7e-05  -0.003168  -0.07265  -0.121907  -0.003638  3.898902  -0.002
C  C88  1  0.97175741  0.16170192  0.50777166  1  -0.057317  0.0013  -0.011183  0.04749  0.000435  4.003159  0.001
C  C89  1  0.83829953  0.02824270  0.99222829  1  -0.057234  0.001302  -0.011167  0.047532  0.000435  4.003258  0.001
C  C90  1  0.02824126  0.83830104  0.49222900  1  -0.057152  0.001301  -0.011148  0.047506  0.000435  4.00326  0.001
C  C91  1  0.16170004  0.97175759  0.00777146  1  -0.057213  0.001301  -0.011137  0.047532  0.000435  4.003398  0.001
C  C92  1  0.97920168  0.22929164  0.42597328  1  -0.118902  -0.002437  -0.077247  -0.123025  -0.002716  3.915548  -0.002
C  C93  1  0.77071031  0.02080231  0.07402823  1  -0.118886  -0.002438  -0.077292  -0.123145  -0.002717  3.915579  -0.002
C  C94  1  0.02080051  0.77071121  0.57402862  1  -0.118886  -0.002438  -0.077324  -0.123136  -0.002718  3.915714  -0.002
C  C95  1  0.22928925  0.97919886  0.92597198  1  -0.118907  -0.002437  -0.077298  -0.123104  -0.002717  3.915629  -0.002
C  C96  1  0.64252011  0.11347126  0.56911083  1  1.545253  -0.003609  0.199871  0.555299  -0.005218  4.176666  -0.005
C  C97  1  0.88653058  0.35748058  0.93088876  1  1.545164  -0.003611  0.199868  0.555214  -0.005219  4.17661  -0.005
C  C98  1  0.35748121  0.88653073  0.43088896  1  1.545101  -0.003609  0.199826  0.555074  -0.005218  4.176694  -0.005
C  C99  1  0.11346812  0.64251887  0.06911127  1  1.545104  -0.003609  0.199862  0.555208  -0.005218  4.176571  -0.005
C  C100  1  0.07964746  0.13342906  0.54154709  1  -0.01838  -0.008251  0.012675  0.113673  -0.009052  3.97539  -0.005
C  C101  1  0.86657193  0.92035542  0.95845489  1  -0.018349  -0.008255  0.012697  0.113638  -0.009057  3.975422  -0.005
C  C102  1  0.92035562  0.86657201  0.45845436  1  -0.018331  -0.008254  0.012685  0.1137  -0.009055  3.975385  -0.005
C  C103  1  0.13342853  0.07964397  0.04154547  1  -0.018352  -0.008252  0.012676  0.113652  -0.009053  3.975493  -0.005
C  C104  1  0.18720116  0.18325321  0.49680192  1  -0.02213  0.006383  -0.081714  -0.170217  0.003537  3.93116  0.005
C  C105  1  0.81674639  0.81280065  0.00319956  1  -0.022348  0.006384  -0.081686  -0.170206  0.003537  3.931017  0.005
C  C106  1  0.81280017  0.81674792  0.50319980  1  -0.021912  0.006384  -0.081723  -0.170298  0.003537  3.931036  0.005
C  C107  1  0.18325318  0.18719876  0.99680033  1  -0.021958  0.006384  -0.081711  -0.170272  0.003537  3.931043  0.005
C  C108  1  0.28759599  0.15609604  0.52905128  1  0.476016  -0.005006  0.049448  0.099549  -0.005653  3.931707  -0.003
C  C109  1  0.84390344  0.71240464  0.97094984  1  0.475845  -0.00501  0.049502  0.099623  -0.005657  3.931615  -0.003
C  C110  1  0.71240446  0.84390423  0.47094953  1  0.47585  -0.005008  0.049486  0.099628  -0.005656  3.931607  -0.003
C  C111  1  0.15609613  0.28759565  0.02904991  1  0.475849  -0.005007  0.04952  0.099681  -0.005655  3.931644  -0.003
C  C112  1  0.18614753  0.03252028  0.64712209  1  0.492857  -0.005602  0.045467  0.092762  -0.00638  3.961624  -0.004
C  C113  1  0.96747753  0.81385353  0.85287861  1  0.492845  -0.005607  0.045462  0.092725  -0.006384  3.961516  -0.004
C  C114  1  0.81385381  0.96747821  0.35287886  1  0.492846  -0.005605  0.0455  0.092851  -0.006382  3.961673  -0.004
C  C115  1  0.03252116  0.18614679  0.14712128  1  0.492861  -0.005603  0.045485  0.092833  -0.006381  3.961589  -0.004
C  C116  1  0.08200678  0.05549914  0.61881186  1  -0.076095  0.00606  -0.084742  -0.180524  0.003336  3.9582  0.005
C  C117  1  0.94450114  0.91799300  0.88118942  1  -0.076138  0.006061  -0.084754  -0.180544  0.003336  3.958138  0.005
C  C118  1  0.91799278  0.94450291  0.38118940  1  -0.076131  0.006061  -0.084726  -0.18057  0.003336  3.958192  0.005
C  C119  1  0.05549756  0.08200644  0.11881061  1  -0.076128  0.006061  -0.084742  -0.180594  0.003336  3.958095  0.005
C  C120  1  0.28685422  0.29967688  0.19240735  1  0.387463  0.001153  -0.003208  -0.030444  0.000135  4.002514  0.001
C  C121  1  0.70032491  0.71314735  0.30759026  1  0.386069  0.001152  -0.00323  -0.03054  0.000135  4.00264  0.001
C  C122  1  0.71314625  0.70031987  0.80759223  1  0.387428  0.001151  -0.003182  -0.030332  0.000134  4.00248  0.001
C  C123  1  0.29967466  0.28685294  0.69241009  1  0.386073  0.001153  -0.003225  -0.030558  0.000136  4.002599  0.001
C  C124  1  0.35192387  0.29294684  0.25194230  1  0.279624  0.002866  0.003828  -0.095797  0.001697  3.878158  0.002
C  C125  1  0.70705744  0.64807492  0.24805466  1  0.279697  0.002866  0.003811  -0.095809  0.001697  3.878175  0.002
C  C126  1  0.64807484  0.70705085  0.74805801  1  0.279728  0.002865  0.003827  -0.095826  0.001697  3.87809  0.002
C  C127  1  0.29294213  0.35192449  0.75194523  1  0.279687  0.002866  0.003825  -0.095758  0.001697  3.8781  0.002
C  C128  1  0.24991946  0.46329447  0.23608267  1  0.979691  0.000176  0.144375  0.102529  -0.000893  3.887856  0.001
C  C129  1  0.53670817  0.75008042  0.26391595  1  0.979723  0.000176  0.144361  0.102513  -0.000894  3.887742  0.001
C  C130  1  0.75007924  0.53670321  0.76391645  1  0.979495  0.000176  0.144366  0.102494  -0.000894  3.88783  0.001
C  C131  1  0.46329140  0.24991987  0.73608380  1  0.979739  0.000176  0.144336  0.102453  -0.000893  3.887824  0.001
C  C132  1  0.37571379  0.42912747  0.34206000  1  0.253759  0.001131  0.089785  0.158128  0.000692  4.036824  0.001
C  C133  1  0.57087283  0.62428569  0.15793884  1  0.253749  0.001131  0.089798  0.15818  0.000692  4.036758  0.001
C  C134  1  0.62428490  0.57087197  0.65793884  1  0.253775  0.001131  0.089804  0.15812  0.000692  4.036853  0.001
C  C135  1  0.42912674  0.37571460  0.84206091  1  0.253742  0.001131  0.089787  0.158046  0.000692  4.036805  0.001
C  C136  1  0.30885731  0.49428084  0.39814835  1  -0.081612  0.00051  -0.09648  -0.180419  0.00027  4.023028  0.0
C  C137  1  0.50572002  0.69114188  0.10185063  1  -0.081597  0.00051  -0.09646  -0.180398  0.00027  4.023068  0.0
C  C138  1  0.69114137  0.50571948  0.60184975  1  -0.081591  0.00051  -0.096465  -0.180349  0.00027  4.023014  0.0
C  C139  1  0.49427779  0.30885759  0.89815013  1  -0.081599  0.00051  -0.096482  -0.180431  0.00027  4.023093  0.0
C  C140  1  0.35765557  0.52210496  0.45961013  1  -0.045038  0.000589  -0.086587  -0.106422  0.000306  3.964904  0.0
C  C141  1  0.47789445  0.64234188  0.04038993  1  -0.045315  0.000589  -0.086619  -0.106549  0.000306  3.964915  0.0
C  C142  1  0.64234136  0.47789541  0.54038884  1  -0.045105  0.000589  -0.086599  -0.106522  0.000306  3.965001  0.0
C  C143  1  0.52210425  0.35765668  0.95961024  1  -0.045061  0.000589  -0.086608  -0.10649  0.000306  3.964928  0.0
C  C144  1  0.47386515  0.48652526  0.46700968  1  0.036004  0.000543  -0.006191  0.063353  0.00028  3.96939  0.0
C  C145  1  0.51347581  0.52613313  0.03298917  1  -0.007811  0.000545  -0.006154  0.063415  0.00028  3.969328  0.0
C  C146  1  0.52613265  0.51347509  0.53298856  1  -0.007823  0.000545  -0.006178  0.06334  0.00028  3.969424  0.0
C  C147  1  0.48652464  0.47386625  0.96700998  1  0.035949  0.000543  -0.006164  0.063389  0.00028  3.969345  0.0
C  C148  1  0.53922672  0.42382104  0.40829022  1  -0.025109  0.0005  -0.081607  -0.096119  0.000302  3.954938  0.0
C  C149  1  0.57617921  0.46077212  0.09170969  1  -0.025122  0.0005  -0.081633  -0.0962  0.000302  3.954979  0.0
C  C150  1  0.46077109  0.57617930  0.59170921  1  -0.025109  0.0005  -0.081588  -0.096079  0.000302  3.95485  0.0
C  C151  1  0.42382036  0.53922817  0.90829066  1  -0.025133  0.0005  -0.081605  -0.096148  0.000302  3.954899  0.0
C  C152  1  0.49144573  0.39399092  0.34747134  1  0.056916  0.001182  -0.088089  -0.158321  0.000783  3.972848  0.001
C  C153  1  0.60600965  0.50855440  0.15252774  1  0.056895  0.001182  -0.088086  -0.158302  0.000783  3.972845  0.001
C  C154  1  0.50855296  0.60600852  0.65252809  1  0.056939  0.001182  -0.088049  -0.158276  0.000783  3.972707  0.001
C  C155  1  0.39399080  0.49144586  0.84747188  1  0.056928  0.001182  -0.088072  -0.158221  0.000783  3.972748  0.001
N  N156  1  0.28785249  0.08205142  0.60363882  1  -1.235906  0.075716  -0.335228  -0.238489  0.043503  3.625683  0.068
N  N157  1  0.91794603  0.71214907  0.89636118  1  -1.235863  0.075707  -0.335225  -0.238508  0.043497  3.625653  0.068
N  N158  1  0.71214972  0.91794791  0.39636126  1  -1.235869  0.075712  -0.335251  -0.238568  0.0435  3.625811  0.068
N  N159  1  0.08205266  0.28785037  0.10363825  1  -1.235847  0.075714  -0.335259  -0.238576  0.043501  3.625862  0.068
N  N160  1  0.22373339  0.40594020  0.18303526  1  -1.174204  0.066207  -0.349756  -0.284454  0.038435  3.589929  0.057
N  N161  1  0.59406322  0.77626549  0.31696336  1  -1.174176  0.066203  -0.349788  -0.284489  0.038433  3.589918  0.057
N  N162  1  0.77626619  0.59405746  0.81696372  1  -1.174179  0.066202  -0.349825  -0.284607  0.038432  3.590056  0.057
N  N163  1  0.40593635  0.22373480  0.68303639  1  -1.174199  0.066206  -0.349729  -0.284416  0.038434  3.589891  0.057
N  N164  1  0.32743426  0.39753464  0.27982442  1  -1.263207  0.003354  -0.226657  0.002747  0.0015  3.799853  0.002
N  N165  1  0.60246706  0.67256547  0.22017418  1  -1.263195  0.003353  -0.226615  0.002844  0.0015  3.799673  0.002
N  N166  1  0.67256445  0.60246304  0.72017530  1  -1.26327  0.003353  -0.226645  0.002754  0.0015  3.799808  0.002
N  N167  1  0.39753163  0.32743485  0.77982631  1  -1.263196  0.003354  -0.226667  0.002829  0.0015  3.799685  0.002
O  O168  1  0.99906000  0.36196334  0.26726775  1  -1.153156  0.066729  -0.322844  -0.556024  0.037324  2.403766  0.061
O  O169  1  0.63803819  0.00094366  0.23273344  1  -1.153633  0.066722  -0.322842  -0.556002  0.037321  2.403791  0.061
O  O170  1  0.00094221  0.63803776  0.73273324  1  -1.15368  0.066718  -0.322842  -0.556007  0.037319  2.403728  0.061
O  O171  1  0.36196227  0.99905572  0.76726691  1  -1.153496  0.066727  -0.322832  -0.556035  0.037324  2.40381  0.061
O  O172  1  0.80379764  0.35704592  0.27151685  1  -1.171606  -0.000134  -0.312494  -0.533057  -0.00118  2.200236  0.0
O  O173  1  0.64295421  0.19620497  0.22848560  1  -1.1719  -0.000136  -0.312501  -0.533017  -0.001182  2.200424  0.0
O  O174  1  0.19620456  0.64295517  0.72848355  1  -1.171669  -0.000136  -0.312523  -0.533073  -0.001182  2.200391  0.0
O  O175  1  0.35704536  0.80379532  0.77151475  1  -1.171908  -0.000134  -0.312566  -0.533144  -0.00118  2.200408  0.0
O  O176  1  0.55638165  0.12700252  0.53098965  1  -1.152626  0.074095  -0.307451  -0.539582  0.041235  2.290578  0.067
O  O177  1  0.87299763  0.44361974  0.96901023  1  -1.152536  0.074083  -0.307442  -0.539527  0.041228  2.290455  0.067
O  O178  1  0.44362056  0.87299681  0.46900983  1  -1.152544  0.074087  -0.30741  -0.53948  0.04123  2.2905  0.067
O  O179  1  0.12700282  0.55638052  0.03098938  1  -1.152538  0.074091  -0.307409  -0.539491  0.041233  2.29044  0.067
O  O180  1  0.62507806  0.07380175  0.64791775  1  -1.119283  0.069369  -0.311731  -0.518279  0.038883  2.143992  0.062
O  O181  1  0.92619818  0.37492258  0.85208213  1  -1.119297  0.069355  -0.311741  -0.518302  0.038875  2.143993  0.062
O  O182  1  0.37492415  0.92619758  0.35208174  1  -1.119279  0.06936  -0.31174  -0.518256  0.038878  2.144023  0.062
O  O183  1  0.07380139  0.62507683  0.14791836  1  -1.119306  0.069366  -0.311747  -0.518325  0.038881  2.143984  0.062
O  O184  1  0.89673553  0.47656006  0.12243568  1  -1.259189  0.068753  -0.578094  -0.754629  0.038504  2.213127  0.06
O  O185  1  0.52343890  0.10326375  0.37756515  1  -1.259203  0.068753  -0.578072  -0.754621  0.038504  2.213074  0.06
O  O186  1  0.10326405  0.52343935  0.87756481  1  -1.25922  0.068747  -0.578068  -0.754616  0.038501  2.213106  0.06
O  O187  1  0.47656156  0.89673564  0.62243461  1  -1.259205  0.068757  -0.578064  -0.754611  0.038506  2.21313  0.06
