# generated using pymatgen
data_CdH15C24N2O5
_symmetry_space_group_name_H-M   'P 1'
_cell_length_a   7.62616212
_cell_length_b   12.08346604
_cell_length_c   12.33582091
_cell_angle_alpha   80.49845853
_cell_angle_beta   74.91461886
_cell_angle_gamma   84.65579473
_symmetry_Int_Tables_number   1
_chemical_formula_structural   CdH15C24N2O5
_chemical_formula_sum   'Cd2 H30 C48 N4 O10'
_cell_volume   1081.01693782
_cell_formula_units_Z   2
loop_
 _symmetry_equiv_pos_site_id
 _symmetry_equiv_pos_as_xyz
  1  'x, y, z'
loop_
 _atom_site_type_symbol
 _atom_site_label
 _atom_site_symmetry_multiplicity
 _atom_site_fract_x
 _atom_site_fract_y
 _atom_site_fract_z
 _atom_site_occupancy
 _atom_site_hle17_bader_spin_density
 _atom_site_hle17_ddec_charge
 _atom_site_hle17_ddec_spin_density
 _atom_site_hle17_ddec_sum_bond_order
 _atom_site_hle17_magmom
 _atom_site_hse06_10hf_bader_spin_density
 _atom_site_hse06_10hf_ddec_charge
 _atom_site_hse06_10hf_ddec_spin_density
 _atom_site_hse06_10hf_ddec_sum_bond_order
 _atom_site_hse06_10hf_magmom
 _atom_site_hse06_bader_spin_density
 _atom_site_hse06_ddec_charge
 _atom_site_hse06_ddec_spin_density
 _atom_site_hse06_ddec_sum_bond_order
 _atom_site_hse06_magmom
 _atom_site_pbe_bader_spin_density
 _atom_site_pbe_cm5_charge
 _atom_site_pbe_ddec_charge
 _atom_site_pbe_ddec_spin_density
 _atom_site_pbe_ddec_sum_bond_order
 _atom_site_pbe_magmom
Cd  Cd0  1  0.74080793  0.03079152  0.49574996  1  0  1.189319  0  1.603012  0  0  1.006256  0  2.035984  0  0  1.067676  0  1.981029  0  0  0.781316  0.962518  0  2.073396  0
Cd  Cd1  1  0.25919642  0.96920313  0.50425165  1  0  1.189339  0  1.602992  0  0  1.006282  0  2.035959  0  0  1.067697  0  1.981005  0  0  0.781309  0.962545  0  2.073369  0
H  H2  1  0.94281332  0.07332051  0.69219794  1  0  0.119705  0  0.976226  0  0  0.12571  0  1.042417  0  0  0.129301  0  1.037844  0  0  0.13534  0.12306  0  1.045711  0
H  H3  1  0.05718027  0.92667423  0.30779723  1  0  0.119687  0  0.976361  0  0  0.125743  0  1.042461  0  0  0.129334  0  1.037892  0  0  0.135329  0.123093  0  1.045753  0
H  H4  1  0.44909631  0.91060144  0.76177984  1  0  0.119168  0  0.935131  0  0  0.131981  0  0.987093  0  0  0.133989  0  0.987123  0  0  0.123498  0.130529  0  0.987182  0
H  H5  1  0.55088990  0.08939935  0.23823494  1  0  0.11917  0  0.935208  0  0  0.132039  0  0.9871  0  0  0.134046  0  0.987133  0  0  0.123532  0.13059  0  0.987192  0
H  H6  1  0.56833004  0.88818854  0.96002955  1  0  0.111341  0  0.980185  0  0  0.118753  0  1.048044  0  0  0.121307  0  1.047393  0  0  0.116832  0.116915  0  1.048576  0
H  H7  1  0.43166639  0.11182389  0.03998251  1  0  0.111176  0  0.980164  0  0  0.118662  0  1.047978  0  0  0.121226  0  1.047331  0  0  0.116786  0.116822  0  1.04851  0
H  H8  1  0.95253699  0.79633317  0.83663932  1  0  0.096228  0  0.974727  0  0  0.102245  0  1.043279  0  0  0.104558  0  1.043671  0  0  0.102477  0.100561  0  1.043149  0
H  H9  1  0.04747503  0.20367144  0.16335458  1  0  0.096274  0  0.974766  0  0  0.102305  0  1.043311  0  0  0.104617  0  1.043704  0  0  0.10249  0.100617  0  1.043188  0
H  H10  1  0.16588160  0.64004055  0.88077708  1  0  0.087043  0  0.954692  0  0  0.098377  0  1.014113  0  0  0.101238  0  1.012663  0  0  0.101529  0.096267  0  1.015252  0
H  H11  1  0.83412114  0.35995915  0.11922232  1  0  0.087054  0  0.954705  0  0  0.098386  0  1.014136  0  0  0.101246  0  1.012686  0  0  0.101539  0.096276  0  1.015275  0
H  H12  1  0.35002704  0.65126501  0.01832062  1  0  0.098986  0  0.964107  0  0  0.105542  0  1.027613  0  0  0.109488  0  1.024745  0  0  0.101804  0.102663  0  1.02973  0
H  H13  1  0.64997301  0.34873389  0.98168096  1  0  0.098949  0  0.964155  0  0  0.105516  0  1.027647  0  0  0.109461  0  1.024782  0  0  0.101804  0.102638  0  1.029765  0
H  H14  1  0.31937723  0.81869755  0.11333099  1  0  0.09318  0  0.973242  0  0  0.100586  0  1.039924  0  0  0.102891  0  1.040446  0  0  0.101645  0.098939  0  1.039648  0
H  H15  1  0.68062819  0.18130213  0.88667124  1  0  0.09319  0  0.973228  0  0  0.100571  0  1.039928  0  0  0.102876  0  1.040453  0  0  0.101651  0.098924  0  1.039653  0
H  H16  1  0.32920109  0.21133008  0.40635275  1  0  0.111373  0  1.001084  0  0  0.11817  0  1.064859  0  0  0.121617  0  1.062301  0  0  0.103075  0.115708  0  1.066669  0
H  H17  1  0.67079634  0.78866799  0.59364532  1  0  0.111344  0  1.001118  0  0  0.118145  0  1.064889  0  0  0.121591  0  1.06233  0  0  0.103084  0.115683  0  1.066699  0
H  H18  1  0.54660751  0.35353371  0.29751725  1  0  0.120466  0  0.938449  0  0  0.13049  0  0.99882  0  0  0.134075  0  0.996881  0  0  0.109507  0.127892  0  1.000363  0
H  H19  1  0.45339407  0.64646264  0.70248209  1  0  0.120462  0  0.938448  0  0  0.130491  0  0.998815  0  0  0.134076  0  0.996877  0  0  0.109514  0.127897  0  1.000359  0
H  H20  1  0.89789437  0.40061887  0.28133167  1  0  0.096664  0  0.948873  0  0  0.106827  0  1.00902  0  0  0.110181  0  1.006447  0  0  0.104187  0.104398  0  1.010911  0
H  H21  1  0.10210555  0.59938255  0.71866870  1  0  0.096635  0  0.948895  0  0  0.106794  0  1.009051  0  0  0.110148  0  1.006478  0  0  0.104182  0.104365  0  1.010942  0
H  H22  1  0.11581859  0.54781115  0.17427180  1  0  0.112571  0  0.95322  0  0  0.122648  0  1.012997  0  0  0.125555  0  1.012774  0  0  0.105112  0.120623  0  1.013204  0
H  H23  1  0.88418135  0.45218943  0.82573033  1  0  0.112604  0  0.953153  0  0  0.122682  0  1.012938  0  0  0.125589  0  1.012714  0  0  0.105137  0.120656  0  1.013144  0
H  H24  1  0.31879197  0.57161556  0.38213729  1  0  0.114061  0  0.954133  0  0  0.126109  0  1.007001  0  0  0.129129  0  1.006977  0  0  0.105954  0.123967  0  1.007141  0
H  H25  1  0.68120668  0.42838501  0.61786018  1  0  0.114042  0  0.95417  0  0  0.126095  0  1.007025  0  0  0.129114  0  1.007003  0  0  0.105942  0.123954  0  1.007164  0
H  H26  1  0.40691368  0.72192784  0.46943180  1  0  0.106103  0  0.967378  0  0  0.115539  0  1.028875  0  0  0.118773  0  1.026437  0  0  0.103829  0.113157  0  1.030716  0
H  H27  1  0.59308900  0.27807271  0.53056910  1  0  0.106115  0  0.967382  0  0  0.115556  0  1.028875  0  0  0.118789  0  1.026439  0  0  0.103824  0.113183  0  1.030708  0
H  H28  1  0.79726303  0.83038032  0.15783744  1  0  0.093306  0  0.977602  0  0  0.097804  0  1.048759  0  0  0.100437  0  1.047775  0  0  0.098333  0.095919  0  1.049451  0
H  H29  1  0.20273973  0.16961937  0.84216034  1  0  0.09333  0  0.977577  0  0  0.097806  0  1.048763  0  0  0.100441  0  1.047774  0  0  0.098317  0.095888  0  1.049486  0
H  H30  1  0.71225887  0.67779814  0.06865422  1  0  0.111717  0  0.946328  0  0  0.121272  0  1.006626  0  0  0.12492  0  1.00554  0  0  0.103553  0.118675  0  1.007517  0
H  H31  1  0.28773976  0.32220326  0.93134149  1  0  0.111686  0  0.946449  0  0  0.121221  0  1.006768  0  0  0.124868  0  1.005682  0  0  0.103532  0.118615  0  1.007668  0
C  C32  1  0.82189094  0.02809586  0.73562717  1  0  0.18042  0  3.614526  0  0  0.119155  0  3.878118  0  0  0.134281  0  3.888711  0  0  0.144944  0.109373  0  3.870601  0
C  C33  1  0.17810664  0.97189886  0.26437387  1  0  0.180321  0  3.614766  0  0  0.119041  0  3.878327  0  0  0.134166  0  3.888918  0  0  0.14495  0.109258  0  3.870808  0
C  C34  1  0.56944397  0.94073005  0.77618237  1  0  0.014208  0  3.733609  0  0  -0.020237  0  4.002656  0  0  -0.017912  0  4.024105  0  0  -0.002852  -0.021853  0  3.988199  0
C  C35  1  0.43054219  0.05927240  0.22382890  1  0  0.013932  0  3.733934  0  0  -0.020581  0  4.003019  0  0  -0.018257  0  4.024471  0  0  -0.002942  -0.022203  0  3.988566  0
C  C36  1  0.62502580  0.92941700  0.87487636  1  0  -0.07112  0  3.674001  0  0  -0.112507  0  3.936256  0  0  -0.111433  0  3.954643  0  0  -0.001493  -0.113179  0  3.923935  0
C  C37  1  0.37497118  0.07058617  0.12513310  1  0  -0.070724  0  3.673896  0  0  -0.112167  0  3.936091  0  0  -0.11111  0  3.954488  0  0  -0.001404  -0.112837  0  3.92377  0
C  C38  1  0.89499027  0.99299162  0.92409952  1  0  0.097396  0  3.695782  0  0  0.079183  0  3.948912  0  0  0.083329  0  3.969223  0  0  0.103042  0.076312  0  3.935297  0
C  C39  1  0.10501360  0.00701226  0.07589902  1  0  0.097416  0  3.695815  0  0  0.079343  0  3.948756  0  0  0.083505  0  3.969074  0  0  0.103068  0.076472  0  3.935138  0
C  C40  1  0.01286514  0.90107623  0.94845295  1  0  0.01057  0  3.766518  0  0  0.019827  0  4.000964  0  0  0.019293  0  4.023394  0  0  0.001692  0.02015  0  3.985862  0
C  C41  1  0.98714286  0.09892676  0.05154428  1  0  0.010555  0  3.766389  0  0  0.019736  0  4.000874  0  0  0.019159  0  4.023357  0  0  0.001658  0.020062  0  3.985766  0
C  C42  1  0.03168151  0.80181856  0.89712997  1  0  -0.091154  0  3.721299  0  0  -0.111361  0  3.971543  0  0  -0.11334  0  3.992478  0  0  -0.084128  -0.109958  0  3.957356  0
C  C43  1  0.96832370  0.19818613  0.10286578  1  0  -0.091158  0  3.721352  0  0  -0.111373  0  3.971612  0  0  -0.11334  0  3.992556  0  0  -0.084106  -0.109968  0  3.95742  0
C  C44  1  0.15081968  0.71480925  0.92178363  1  0  -0.059071  0  3.765132  0  0  -0.072648  0  4.013098  0  0  -0.074837  0  4.034619  0  0  -0.084992  -0.07109  0  3.998459  0
C  C45  1  0.84918163  0.28519213  0.07821410  1  0  -0.059132  0  3.765279  0  0  -0.072719  0  4.013264  0  0  -0.074904  0  4.03478  0  0  -0.085041  -0.071161  0  3.998624  0
C  C46  1  0.25607016  0.72114785  0.99991127  1  0  -0.066539  0  3.766178  0  0  -0.078386  0  4.01351  0  0  -0.07979  0  4.034273  0  0  -0.089879  -0.077315  0  3.99936  0
C  C47  1  0.74393126  0.27885102  0.00008847  1  0  -0.066523  0  3.766283  0  0  -0.078379  0  4.013607  0  0  -0.079781  0  4.034366  0  0  -0.089892  -0.077311  0  3.999459  0
C  C48  1  0.24018209  0.81478815  0.05225795  1  0  -0.115593  0  3.748452  0  0  -0.133252  0  3.996471  0  0  -0.136516  0  4.018386  0  0  -0.091604  -0.13102  0  3.981632  0
C  C49  1  0.75982470  0.18521151  0.94774245  1  0  -0.115601  0  3.748453  0  0  -0.133212  0  3.996466  0  0  -0.136479  0  4.018381  0  0  -0.091574  -0.130979  0  3.981631  0
C  C50  1  0.87919411  0.09189329  0.97262338  1  0  0.007492  0  3.780846  0  0  0.015147  0  4.017169  0  0  0.014457  0  4.040415  0  0  0.000367  0.015594  0  4.001537  0
C  C51  1  0.12081264  0.90810804  0.02737351  1  0  0.007359  0  3.780972  0  0  0.015  0  4.017209  0  0  0.014296  0  4.040446  0  0  0.000359  0.015455  0  4.001568  0
C  C52  1  0.97291113  0.20477016  0.40874902  1  0  0.639693  0  3.911614  0  0  0.590328  0  4.200201  0  0  0.626142  0  4.193907  0  0  0.196425  0.566046  0  4.203527  0
C  C53  1  0.02708502  0.79522624  0.59125034  1  0  0.639671  0  3.91184  0  0  0.590359  0  4.200358  0  0  0.626175  0  4.194065  0  0  0.196357  0.566071  0  4.203689  0
C  C54  1  0.09980498  0.29540405  0.34911979  1  0  -0.078702  0  3.760719  0  0  -0.055397  0  3.99275  0  0  -0.065624  0  4.016725  0  0  -0.022187  -0.048854  0  3.976631  0
C  C55  1  0.90019102  0.70459489  0.65087999  1  0  -0.07875  0  3.760718  0  0  -0.055452  0  3.99274  0  0  -0.065683  0  4.016715  0  0  -0.022203  -0.048905  0  3.976622  0
C  C56  1  0.28209166  0.28363324  0.35435153  1  0  -0.041004  0  3.721801  0  0  -0.065262  0  3.968818  0  0  -0.06341  0  3.989174  0  0  -0.082775  -0.066191  0  3.954914  0
C  C57  1  0.71790421  0.71636739  0.64565042  1  0  -0.040914  0  3.721902  0  0  -0.065187  0  3.968921  0  0  -0.06333  0  3.989277  0  0  -0.082728  -0.066119  0  3.955021  0
C  C58  1  0.40452939  0.36388703  0.29393846  1  0  -0.175231  0  3.737265  0  0  -0.196728  0  3.991707  0  0  -0.203125  0  4.011643  0  0  -0.094417  -0.192474  0  3.978169  0
C  C59  1  0.59547072  0.63611102  0.70606163  1  0  -0.175267  0  3.737343  0  0  -0.196784  0  3.991805  0  0  -0.203178  0  4.011732  0  0  -0.094468  -0.192536  0  3.978273  0
C  C60  1  0.04031543  0.39089249  0.28387830  1  0  -0.050945  0  3.752118  0  0  -0.072646  0  3.997363  0  0  -0.070838  0  4.017622  0  0  -0.081455  -0.073526  0  3.983477  0
C  C61  1  0.95968469  0.60910556  0.71612179  1  0  -0.050849  0  3.752017  0  0  -0.072541  0  3.997256  0  0  -0.070732  0  4.017515  0  0  -0.081405  -0.073423  0  3.983373  0
C  C62  1  0.16116879  0.47262917  0.22391692  1  0  -0.182914  0  3.749871  0  0  -0.202789  0  3.998984  0  0  -0.208941  0  4.019192  0  0  -0.100322  -0.198759  0  3.985255  0
C  C63  1  0.83883109  0.52737226  0.77608589  1  0  -0.182941  0  3.749867  0  0  -0.202836  0  3.998991  0  0  -0.208989  0  4.019199  0  0  -0.100335  -0.198804  0  3.985261  0
C  C64  1  0.34289849  0.45750685  0.22895459  1  0  0.270205  0  3.796873  0  0  0.259798  0  4.062355  0  0  0.270372  0  4.078391  0  0  0.08368  0.252657  0  4.051307  0
C  C65  1  0.65710163  0.54249120  0.77104469  1  0  0.270169  0  3.796994  0  0  0.259772  0  4.062443  0  0  0.270345  0  4.078481  0  0  0.08365  0.252633  0  4.051394  0
C  C66  1  0.51075372  0.61621061  0.22021619  1  0  0.29022  0  3.787611  0  0  0.278465  0  4.051745  0  0  0.291146  0  4.066714  0  0  0.088095  0.269849  0  4.041452  0
C  C67  1  0.48923931  0.38379339  0.77978159  1  0  0.290193  0  3.787867  0  0  0.278432  0  4.051981  0  0  0.291112  0  4.066951  0  0  0.088131  0.269819  0  4.041685  0
C  C68  1  0.42427312  0.62769322  0.33308450  1  0  -0.209634  0  3.766255  0  0  -0.225409  0  4.011709  0  0  -0.233502  0  4.032523  0  0  -0.109252  -0.220097  0  3.997646  0
C  C69  1  0.57572122  0.37231160  0.66691294  1  0  -0.209531  0  3.766378  0  0  -0.225307  0  4.011823  0  0  -0.2334  0  4.03264  0  0  -0.109192  -0.219995  0  3.997762  0
C  C70  1  0.47405824  0.71199887  0.38177986  1  0  -0.033917  0  3.737399  0  0  -0.05773  0  3.983731  0  0  -0.054143  0  4.002834  0  0  -0.082274  -0.059826  0  3.970716  0
C  C71  1  0.52594172  0.28800170  0.61822064  1  0  -0.034034  0  3.737596  0  0  -0.057851  0  3.983943  0  0  -0.054265  0  4.00305  0  0  -0.082317  -0.059954  0  3.970927  0
C  C72  1  0.60804189  0.78561250  0.31897550  1  0  -0.095225  0  3.791029  0  0  -0.07498  0  4.028855  0  0  -0.08633  0  4.052993  0  0  -0.033859  -0.067712  0  4.012642  0
C  C73  1  0.39196232  0.21438550  0.68102233  1  0  -0.095161  0  3.790871  0  0  -0.074909  0  4.028731  0  0  -0.08626  0  4.052871  0  0  -0.033783  -0.067639  0  4.012514  0
C  C74  1  0.69341893  0.77279010  0.20596259  1  0  -0.039689  0  3.74766  0  0  -0.06262  0  3.996332  0  0  -0.058551  0  4.015006  0  0  -0.084495  -0.065006  0  3.983565  0
C  C75  1  0.30658248  0.22720960  0.79403540  1  0  -0.039789  0  3.747628  0  0  -0.06268  0  3.996266  0  0  -0.058612  0  4.01494  0  0  -0.084498  -0.065036  0  3.983515  0
C  C76  1  0.64621032  0.68852923  0.15626705  1  0  -0.201401  0  3.75522  0  0  -0.220812  0  4.010211  0  0  -0.227928  0  4.028483  0  0  -0.109679  -0.216148  0  3.9979  0
C  C77  1  0.35378132  0.31147562  0.84372918  1  0  -0.201364  0  3.755543  0  0  -0.220768  0  4.010517  0  0  -0.227882  0  4.028789  0  0  -0.109717  -0.216093  0  3.9982  0
C  C78  1  0.65712736  0.87711330  0.37066368  1  0  0.642836  0  3.907962  0  0  0.589528  0  4.199637  0  0  0.625525  0  4.192325  0  0  0.197995  0.565059  0  4.203806  0
C  C79  1  0.34287968  0.12288298  0.62933319  1  0  0.643121  0  3.907466  0  0  0.589745  0  4.199265  0  0  0.625741  0  4.191952  0  0  0.198062  0.565275  0  4.203439  0
N  N80  1  0.69372722  0.00207129  0.69033476  1  0  -0.404189  0  3.264004  0  0  -0.327552  0  3.545433  0  0  -0.351616  0  3.56592  0  0  -0.357451  -0.311083  0  3.53103  0
N  N81  1  0.30626635  0.99792098  0.30967217  1  0  -0.404032  0  3.264233  0  0  -0.327403  0  3.545671  0  0  -0.351463  0  3.566152  0  0  -0.357438  -0.310935  0  3.531266  0
N  N82  1  0.78554887  0.98505192  0.84785680  1  0  -0.096678  0  3.622419  0  0  -0.004834  0  3.833095  0  0  -0.019523  0  3.858005  0  0  -0.231877  0.004906  0  3.816089  0
N  N83  1  0.21445109  0.01494866  0.15214451  1  0  -0.096712  0  3.622543  0  0  -0.004921  0  3.83323  0  0  -0.019609  0  3.858139  0  0  -0.231879  0.004816  0  3.816231  0
O  O84  1  0.02067742  0.12608614  0.48050579  1  0  -0.681683  0  2.038974  0  0  -0.610151  0  2.292122  0  0  -0.642848  0  2.28277  0  0  -0.333555  -0.587169  0  2.297636  0
O  O85  1  0.97931827  0.87391702  0.51949901  1  0  -0.68165  0  2.039059  0  0  -0.610181  0  2.292249  0  0  -0.642877  0  2.282896  0  0  -0.333518  -0.587193  0  2.297762  0
O  O86  1  0.81934352  0.20641707  0.38497911  1  0  -0.626654  0  1.94025  0  0  -0.567184  0  2.1784  0  0  -0.595923  0  2.16821  0  0  -0.324809  -0.547082  0  2.184644  0
O  O87  1  0.18066107  0.79357585  0.61501222  1  0  -0.626671  0  1.940435  0  0  -0.567209  0  2.178566  0  0  -0.595953  0  2.168385  0  0  -0.324784  -0.547106  0  2.184812  0
O  O88  1  0.56641205  0.88970041  0.47318234  1  0  -0.689954  0  2.104378  0  0  -0.603671  0  2.357883  0  0  -0.636695  0  2.345283  0  0  -0.337245  -0.580304  0  2.36531  0
O  O89  1  0.43359363  0.11029588  0.52681474  1  0  -0.69001  0  2.10411  0  0  -0.603749  0  2.357717  0  0  -0.636768  0  2.345107  0  0  -0.337303  -0.580383  0  2.365147  0
O  O90  1  0.78299212  0.94110948  0.31691724  1  0  -0.614914  0  1.95212  0  0  -0.562185  0  2.191589  0  0  -0.588424  0  2.182227  0  0  -0.315185  -0.54394  0  2.197427  0
O  O91  1  0.21701357  0.05888681  0.68307903  1  0  -0.615074  0  1.951938  0  0  -0.562311  0  2.191471  0  0  -0.588545  0  2.182101  0  0  -0.315204  -0.544062  0  2.197309  0
O  O92  1  0.46689619  0.53636174  0.16494157  1  0  -0.307999  0  2.325146  0  0  -0.241332  0  2.5509  0  0  -0.258349  0  2.550313  0  0  -0.158466  -0.229089  0  2.550697  0
O  O93  1  0.53310394  0.46363631  0.83505771  1  0  -0.307969  0  2.325311  0  0  -0.241269  0  2.551028  0  0  -0.258282  0  2.550439  0  0  -0.158458  -0.229028  0  2.550827  0
