# generated using pymatgen
data_CoH10C13N2O7
_symmetry_space_group_name_H-M   'P 1'
_cell_length_a   7.07706924
_cell_length_b   8.89868499
_cell_length_c   10.40065109
_cell_angle_alpha   79.48113103
_cell_angle_beta   87.84345086
_cell_angle_gamma   80.76753571
_symmetry_Int_Tables_number   1
_chemical_formula_structural   CoH10C13N2O7
_chemical_formula_sum   'Co2 H20 C26 N4 O14'
_cell_volume   635.62436629
_cell_formula_units_Z   2
loop_
 _symmetry_equiv_pos_site_id
 _symmetry_equiv_pos_as_xyz
  1  'x, y, z'
loop_
 _atom_site_type_symbol
 _atom_site_label
 _atom_site_symmetry_multiplicity
 _atom_site_fract_x
 _atom_site_fract_y
 _atom_site_fract_z
 _atom_site_occupancy
 _atom_site_pbe_cm5_charge
 _atom_site_pbe_ddec_charge
 _atom_site_pbe_ddec_spin_density
 _atom_site_pbe_ddec_sum_bond_order
 _atom_site_pbe_magmom
Co  Co0  1  0.22138534  0.26808257  0.43326286  1  0.664216  0.876856  2.831782  2.383285  2.597
Co  Co1  1  0.77861734  0.73192092  0.56673758  1  0.66425  0.876876  2.831775  2.383257  2.597
H  H2  1  0.23317449  0.55662136  0.28846508  1  0.304162  0.385211  0.000571  0.950762  0.001
H  H3  1  0.76682643  0.44337735  0.71153140  1  0.304146  0.385175  0.000571  0.950786  0.001
H  H4  1  0.03926068  0.56209033  0.36616107  1  0.300707  0.398516  0.000175  0.940273  0.001
H  H5  1  0.96074416  0.43790968  0.63383895  1  0.300687  0.398471  0.000175  0.940339  0.001
H  H6  1  0.31790398  0.50853074  0.11915807  1  0.306754  0.371586  -4.2e-05  0.981397  0.0
H  H7  1  0.68208945  0.49146327  0.88084033  1  0.306761  0.371539  -4.2e-05  0.981369  0.0
H  H8  1  0.26030497  0.31678122  0.90038985  1  0.112549  0.123958  0.000134  1.00278  0.0
H  H9  1  0.73968740  0.68321752  0.09961257  1  0.112542  0.123957  0.000134  1.002753  0.0
H  H10  1  0.20199965  0.88553477  0.78354811  1  0.107887  0.110388  5.1e-05  1.032531  0.0
H  H11  1  0.79800234  0.11445839  0.21645987  1  0.107853  0.110363  5.1e-05  1.032559  0.0
H  H12  1  0.27471048  0.90256412  0.18891140  1  0.104876  0.103572  8e-05  1.027807  0.0
H  H13  1  0.72528204  0.09743360  0.81109793  1  0.104853  0.10356  8e-05  1.027871  0.0
H  H14  1  0.88172837  0.42054306  0.26336019  1  0.130454  0.111658  0.000978  1.006048  0.002
H  H15  1  0.11826589  0.57946025  0.73663757  1  0.130467  0.111682  0.000978  1.006051  0.002
H  H16  1  0.53089471  0.43463939  0.26803957  1  0.125735  0.100698  0.000601  1.027697  0.001
H  H17  1  0.46910334  0.56536623  0.73195483  1  0.125725  0.100736  0.000601  1.027643  0.001
H  H18  1  0.57168555  0.09563636  0.60382011  1  0.122985  0.103284  0.000314  1.031494  0.001
H  H19  1  0.42831618  0.90437171  0.39617765  1  0.122996  0.103337  0.000313  1.031369  0.001
H  H20  1  0.92312653  0.08926338  0.60411224  1  0.122569  0.098737  0.000644  1.017019  0.001
H  H21  1  0.07687507  0.91075176  0.39588912  1  0.122588  0.098747  0.000644  1.016984  0.001
C  C22  1  0.26721685  0.11911046  0.05483268  1  -0.010993  -0.034429  0.003714  3.94669  0.006
C  C23  1  0.73278045  0.88088493  0.94517310  1  -0.011046  -0.034447  0.003714  3.946714  0.006
C  C24  1  0.25225766  0.19354145  0.92373781  1  -0.064179  -0.079897  -0.001972  3.882079  -0.001
C  C25  1  0.74773353  0.80645613  0.07626580  1  -0.064141  -0.079874  -0.001971  3.881997  -0.001
C  C26  1  0.22993260  0.10951514  0.82543589  1  -0.021389  -0.0482  0.001836  4.000006  0.003
C  C27  1  0.77006001  0.89048244  0.17456673  1  -0.021384  -0.048126  0.001836  3.999807  0.003
C  C28  1  0.22084986  0.95143473  0.85909308  1  -0.067652  -0.084282  -0.002503  3.917546  -0.001
C  C29  1  0.77915142  0.04856186  0.14091241  1  -0.067641  -0.084392  -0.002503  3.917618  -0.001
C  C30  1  0.23695845  0.87605947  0.98916044  1  -0.015146  -0.048596  0.000434  3.992976  0.001
C  C31  1  0.76304785  0.12393362  0.01084169  1  -0.01517  -0.048593  0.000434  3.993133  0.001
C  C32  1  0.26095462  0.96019278  0.08724814  1  -0.067646  -0.087698  -0.003408  3.910734  -0.002
C  C33  1  0.73903847  0.03980252  0.91275678  1  -0.06763  -0.087713  -0.003408  3.910898  -0.002
C  C34  1  0.29093036  0.21518550  0.15661357  1  0.222473  0.603267  -0.002851  4.168059  -0.001
C  C35  1  0.70906556  0.78480982  0.84339033  1  0.222414  0.603088  -0.00285  4.168276  -0.001
C  C36  1  0.22030316  0.18166669  0.68463925  1  0.204939  0.553083  -0.006981  4.194305  -0.006
C  C37  1  0.77969699  0.81832868  0.31536455  1  0.204947  0.553094  -0.00698  4.19438  -0.006
C  C38  1  0.22887697  0.70690475  0.01289597  1  0.23303  0.591408  -1.6e-05  4.094195  0.0
C  C39  1  0.77113315  0.29309061  0.98710089  1  0.233107  0.591554  -1.6e-05  4.094119  0.0
C  C40  1  0.81348207  0.35182010  0.34306577  1  0.061113  0.078039  -0.004976  3.885888  -0.001
C  C41  1  0.18651978  0.64818093  0.65692933  1  0.061147  0.078  -0.004976  3.885986  -0.001
C  C42  1  0.61577891  0.35880969  0.34563853  1  0.061313  0.073358  -0.005946  3.865082  -0.002
C  C43  1  0.38422124  0.64119941  0.65435428  1  0.061263  0.073266  -0.005948  3.865057  -0.002
C  C44  1  0.63878471  0.17418525  0.53050177  1  0.052667  0.065361  -0.003261  3.891927  0.0
C  C45  1  0.36121306  0.82582157  0.46949435  1  0.052641  0.065279  -0.00326  3.891642  0.0
C  C46  1  0.83560717  0.16965139  0.52982624  1  0.049897  0.049935  -0.003686  3.913147  0.0
C  C47  1  0.16439032  0.83035665  0.47017257  1  0.049887  0.049961  -0.003685  3.913006  0.0
N  N48  1  0.92501816  0.25924431  0.43643072  1  -0.315078  -0.220119  0.022431  3.563527  0.038
N  N49  1  0.07498286  0.74076033  0.56357052  1  -0.315127  -0.220146  0.022433  3.563614  0.038
N  N50  1  0.52570341  0.27014538  0.43893765  1  -0.299969  -0.211772  0.01831  3.512694  0.037
N  N51  1  0.47430002  0.72986150  0.56105740  1  -0.299915  -0.211698  0.018308  3.512425  0.037
O  O52  1  0.24746284  0.16216179  0.27551728  1  -0.315463  -0.565707  0.047715  2.35842  0.077
O  O53  1  0.75253516  0.83783704  0.72448598  1  -0.315459  -0.565677  0.047717  2.358473  0.077
O  O54  1  0.17257114  0.50392711  0.36701214  1  -0.572247  -0.761902  0.034179  2.214285  0.052
O  O55  1  0.82743576  0.49607645  0.63298916  1  -0.572211  -0.761828  0.034178  2.214286  0.052
O  O56  1  0.26181578  0.09384418  0.59933225  1  -0.301205  -0.534405  0.045769  2.321725  0.075
O  O57  1  0.73819119  0.90615243  0.40067023  1  -0.301207  -0.53439  0.045772  2.321723  0.075
O  O58  1  0.17457219  0.32747538  0.64632908  1  -0.306314  -0.566809  0.02749  2.277292  0.048
O  O59  1  0.82543433  0.67252348  0.35367015  1  -0.306334  -0.566853  0.027487  2.277381  0.048
O  O60  1  0.35328868  0.34084564  0.11717812  1  -0.312729  -0.56011  -0.001681  2.287193  0.0
O  O61  1  0.64670532  0.65915200  0.88282638  1  -0.312685  -0.559952  -0.00168  2.287197  0.0
O  O62  1  0.31100085  0.62504652  0.12464673  1  -0.340878  -0.518307  0.000152  2.321733  0.0
O  O63  1  0.68898806  0.37494865  0.87535445  1  -0.340913  -0.518309  0.000152  2.321605  0.0
O  O64  1  0.15705540  0.64526786  0.93479679  1  -0.277417  -0.476674  -3.2e-05  2.156325  0.0
O  O65  1  0.84296314  0.35472160  0.06519129  1  -0.277433  -0.476696  -3.2e-05  2.156393  0.0
