# generated using pymatgen
data_TmH7C8NO8
_symmetry_space_group_name_H-M   'P 1'
_cell_length_a   7.44211293
_cell_length_b   8.37840839
_cell_length_c   9.29065163
_cell_angle_alpha   78.01627940
_cell_angle_beta   76.46448823
_cell_angle_gamma   69.96361368
_symmetry_Int_Tables_number   1
_chemical_formula_structural   TmH7C8NO8
_chemical_formula_sum   'Tm2 H14 C16 N2 O16'
_cell_volume   523.94630635
_cell_formula_units_Z   2
loop_
 _symmetry_equiv_pos_site_id
 _symmetry_equiv_pos_as_xyz
  1  'x, y, z'
loop_
 _atom_site_type_symbol
 _atom_site_label
 _atom_site_symmetry_multiplicity
 _atom_site_fract_x
 _atom_site_fract_y
 _atom_site_fract_z
 _atom_site_occupancy
 _atom_site_hle17_bader_spin_density
 _atom_site_hle17_ddec_charge
 _atom_site_hle17_ddec_spin_density
 _atom_site_hle17_ddec_sum_bond_order
 _atom_site_hle17_magmom
 _atom_site_hse06_10hf_bader_spin_density
 _atom_site_hse06_10hf_ddec_charge
 _atom_site_hse06_10hf_ddec_spin_density
 _atom_site_hse06_10hf_ddec_sum_bond_order
 _atom_site_hse06_10hf_magmom
 _atom_site_hse06_bader_spin_density
 _atom_site_hse06_ddec_charge
 _atom_site_hse06_ddec_spin_density
 _atom_site_hse06_ddec_sum_bond_order
 _atom_site_hse06_magmom
 _atom_site_pbe_bader_spin_density
 _atom_site_pbe_cm5_charge
 _atom_site_pbe_ddec_charge
 _atom_site_pbe_ddec_spin_density
 _atom_site_pbe_ddec_sum_bond_order
 _atom_site_pbe_magmom
Tm  Tm0  1  0.17273850  0.86856537  0.20496502  1  0  2.23543  0  1.645768  0  0  2.074907  0  2.143794  0  0  2.219513  0  1.922747  0  0  1.544831  2.039074  0  2.173056  0
Tm  Tm1  1  0.82726195  0.13143324  0.79503267  1  0  2.235411  0  1.645824  0  0  2.074819  0  2.14396  0  0  2.219483  0  1.922807  0  0  1.544828  2.038987  0  2.173218  0
H  H2  1  0.53852931  0.52077123  0.09802906  1  0  0.093737  0  0.93724  0  0  0.097497  0  1.006393  0  0  0.101261  0  1.001962  0  0  0.126792  0.094699  0  1.009786  0
H  H3  1  0.46146560  0.47922733  0.90196539  1  0  0.093744  0  0.937308  0  0  0.097516  0  1.006443  0  0  0.10128  0  1.002011  0  0  0.126804  0.094719  0  1.009834  0
H  H4  1  0.60582605  0.09915332  0.45791217  1  0  0.117722  0  0.932437  0  0  0.129226  0  0.990153  0  0  0.132635  0  0.987135  0  0  0.120559  0.126818  0  0.992079  0
H  H5  1  0.39417670  0.90084659  0.54208591  1  0  0.11776  0  0.932422  0  0  0.129254  0  0.990134  0  0  0.132663  0  0.987116  0  0  0.120568  0.126846  0  0.99206  0
H  H6  1  0.32704837  0.28883365  0.61701569  1  0  0.130389  0  0.953637  0  0  0.13807  0  1.015514  0  0  0.142737  0  1.012182  0  0  0.117908  0.134841  0  1.017665  0
H  H7  1  0.67295440  0.71116629  0.38298668  1  0  0.130383  0  0.953606  0  0  0.138061  0  1.015493  0  0  0.142728  0  1.012163  0  0  0.117915  0.134831  0  1.017644  0
H  H8  1  0.10423540  0.09863042  0.42566281  1  0  0.44102  0  0.857889  0  0  0.410214  0  0.921054  0  0  0.422777  0  0.902942  0  0  0.302687  0.401583  0  0.933685  0
H  H9  1  0.89575909  0.90137333  0.57433826  1  0  0.440958  0  0.857986  0  0  0.410233  0  0.921026  0  0  0.422795  0  0.902917  0  0  0.302686  0.401602  0  0.933657  0
H  H10  1  0.18935409  0.17866409  0.27394114  1  0  0.437907  0  0.821803  0  0  0.411244  0  0.892367  0  0  0.421183  0  0.880769  0  0  0.314409  0.404282  0  0.900581  0
H  H11  1  0.81064314  0.82133581  0.72605907  1  0  0.437861  0  0.821886  0  0  0.411204  0  0.892427  0  0  0.421144  0  0.880822  0  0  0.314396  0.404242  0  0.900643  0
H  H12  1  0.95527569  0.60404502  0.24942523  1  0  0.44754  0  0.849222  0  0  0.417007  0  0.910849  0  0  0.428819  0  0.893606  0  0  0.297629  0.409086  0  0.922441  0
H  H13  1  0.04471877  0.39595868  0.75056831  1  0  0.447688  0  0.849008  0  0  0.41715  0  0.910643  0  0  0.428963  0  0.893398  0  0  0.297675  0.409229  0  0.922236  0
H  H14  1  0.88897303  0.76089574  0.11717778  1  0  0.447291  0  0.84215  0  0  0.418505  0  0.900672  0  0  0.430537  0  0.883026  0  0  0.303321  0.410207  0  0.912996  0
H  H15  1  0.11101409  0.23910922  0.88281693  1  0  0.447349  0  0.842053  0  0  0.418558  0  0.900587  0  0  0.430589  0  0.882942  0  0  0.30332  0.410263  0  0.912909  0
C  C16  1  0.12556772  0.63080358  0.52605374  1  0  0.639394  0  3.888089  0  0  0.584477  0  4.191121  0  0  0.617175  0  4.187286  0  0  0.225382  0.562556  0  4.19477  0
C  C17  1  0.87442953  0.36919635  0.47395077  1  0  0.639312  0  3.88797  0  0  0.584377  0  4.19103  0  0  0.617063  0  4.187225  0  0  0.225296  0.56246  0  4.19467  0
C  C18  1  0.28967682  0.50351763  0.43977142  1  0  0.097133  0  3.763221  0  0  0.099827  0  4.011277  0  0  0.1015  0  4.035143  0  0  0.114169  0.098521  0  3.998171  0
C  C19  1  0.71032087  0.49648099  0.56023002  1  0  0.097144  0  3.763405  0  0  0.099815  0  4.011479  0  0  0.101489  0  4.035351  0  0  0.114148  0.098508  0  3.998373  0
C  C20  1  0.49393563  0.46452451  0.21165836  1  0  0.162784  0  3.656965  0  0  0.123117  0  3.913963  0  0  0.132179  0  3.931051  0  0  0.068412  0.117111  0  3.905172  0
C  C21  1  0.50606343  0.53547410  0.78834067  1  0  0.162752  0  3.657051  0  0  0.123059  0  3.914062  0  0  0.132121  0  3.931153  0  0  0.068419  0.117056  0  3.905269  0
C  C22  1  0.58960428  0.29424414  0.26402898  1  0  -0.101257  0  3.684223  0  0  -0.077895  0  3.918567  0  0  -0.087827  0  3.935856  0  0  -0.001174  -0.070932  0  3.904643  0
C  C23  1  0.41039708  0.70575192  0.73597119  1  0  -0.101249  0  3.684209  0  0  -0.077893  0  3.918566  0  0  -0.087825  0  3.935852  0  0  -0.001205  -0.070929  0  3.904642  0
C  C24  1  0.53117565  0.22987849  0.41244504  1  0  0.011923  0  3.631516  0  0  -0.019147  0  3.88612  0  0  -0.013124  0  3.899125  0  0  -0.048798  -0.022601  0  3.876022  0
C  C25  1  0.46882894  0.77012015  0.58755401  1  0  0.011826  0  3.63143  0  0  -0.019203  0  3.88599  0  0  -0.013182  0  3.899  0  0  -0.048809  -0.022656  0  3.87589  0
C  C26  1  0.37698029  0.33544813  0.50135433  1  0  -0.091593  0  3.643227  0  0  -0.117999  0  3.901877  0  0  -0.122518  0  3.918558  0  0  -0.066692  -0.114848  0  3.889882  0
C  C27  1  0.62302384  0.66454795  0.49864745  1  0  -0.091571  0  3.643268  0  0  -0.117977  0  3.901912  0  0  -0.122497  0  3.918593  0  0  -0.066693  -0.114826  0  3.889918  0
C  C28  1  0.74889338  0.18721572  0.15929790  1  0  0.746401  0  3.846311  0  0  0.699214  0  4.133113  0  0  0.737532  0  4.123978  0  0  0.242646  0.674115  0  4.141057  0
C  C29  1  0.25111626  0.81277654  0.84070464  1  0  0.746385  0  3.845986  0  0  0.699179  0  4.13283  0  0  0.737502  0  4.123692  0  0  0.242617  0.67408  0  4.140773  0
C  C30  1  0.57456944  0.92149843  0.03661995  1  0  0.566006  0  3.912561  0  0  0.524325  0  4.201901  0  0  0.554685  0  4.200383  0  0  0.216449  0.50382  0  4.207401  0
C  C31  1  0.42544025  0.07850541  0.96338251  1  0  0.565892  0  3.912835  0  0  0.524303  0  4.202055  0  0  0.554662  0  4.200541  0  0  0.216461  0.503797  0  4.207555  0
N  N32  1  0.34890703  0.56702709  0.29729173  1  0  -0.424039  0  3.283115  0  0  -0.371322  0  3.54902  0  0  -0.39766  0  3.570209  0  0  -0.385186  -0.361532  0  3.536733  0
N  N33  1  0.65108973  0.43297022  0.70270691  1  0  -0.423966  0  3.283115  0  0  -0.371231  0  3.549019  0  0  -0.397573  0  3.570207  0  0  -0.385189  -0.361441  0  3.536733  0
O  O34  1  0.04519081  0.58629994  0.65556839  1  0  -0.584665  0  1.954905  0  0  -0.529451  0  2.167803  0  0  -0.551887  0  2.157861  0  0  -0.292476  -0.513144  0  2.17306  0
O  O35  1  0.95481795  0.41370259  0.34443234  1  0  -0.5846  0  1.954628  0  0  -0.529367  0  2.167521  0  0  -0.5518  0  2.157588  0  0  -0.292388  -0.51306  0  2.172771  0
O  O36  1  0.07716212  0.78560318  0.45652593  1  0  -0.721385  0  2.078508  0  0  -0.656746  0  2.327085  0  0  -0.69701  0  2.314886  0  0  -0.384144  -0.637692  0  2.332762  0
O  O37  1  0.92282823  0.21440055  0.54347593  1  0  -0.721398  0  2.078583  0  0  -0.656686  0  2.327157  0  0  -0.696952  0  2.314957  0  0  -0.384148  -0.637635  0  2.332835  0
O  O38  1  0.73821681  0.22612983  0.02144986  1  0  -0.749477  0  2.085796  0  0  -0.697146  0  2.346942  0  0  -0.738672  0  2.331112  0  0  -0.395842  -0.67802  0  2.353549  0
O  O39  1  0.26178228  0.77386881  0.97855454  1  0  -0.749485  0  2.085645  0  0  -0.697151  0  2.346792  0  0  -0.73867  0  2.330963  0  0  -0.395845  -0.678028  0  2.353402  0
O  O40  1  0.88031625  0.06526943  0.21507410  1  0  -0.727722  0  2.050445  0  0  -0.6771  0  2.319198  0  0  -0.717315  0  2.298711  0  0  -0.407942  -0.659824  0  2.328608  0
O  O41  1  0.11969383  0.93472536  0.78492141  1  0  -0.727673  0  2.050257  0  0  -0.677026  0  2.319016  0  0  -0.717254  0  2.298525  0  0  -0.407896  -0.659749  0  2.328426  0
O  O42  1  0.50867921  0.82987979  0.14783377  1  0  -0.650387  0  2.072766  0  0  -0.604762  0  2.320208  0  0  -0.640497  0  2.3091  0  0  -0.363945  -0.587776  0  2.324611  0
O  O43  1  0.49132728  0.17012917  0.85216831  1  0  -0.650367  0  2.072731  0  0  -0.604757  0  2.320124  0  0  -0.6405  0  2.309016  0  0  -0.363978  -0.587769  0  2.324524  0
O  O44  1  0.75276373  0.89797296  0.97819276  1  0  -0.665024  0  2.069258  0  0  -0.607528  0  2.298179  0  0  -0.642525  0  2.285632  0  0  -0.340837  -0.59055  0  2.304634  0
O  O45  1  0.24724775  0.10202186  0.02180678  1  0  -0.665019  0  2.069557  0  0  -0.607552  0  2.298429  0  0  -0.642543  0  2.28589  0  0  -0.340859  -0.590576  0  2.304884  0
O  O46  1  0.20664548  0.06617788  0.33552846  1  0  -0.910639  0  1.895827  0  0  -0.867443  0  2.105458  0  0  -0.899822  0  2.06988  0  0  -0.643605  -0.852949  0  2.124369  0
O  O47  1  0.79335362  0.93382461  0.66447413  1  0  -0.910552  0  1.896066  0  0  -0.8674  0  2.105612  0  0  -0.899789  0  2.070021  0  0  -0.643598  -0.852907  0  2.124523  0
O  O48  1  0.96334010  0.71973894  0.20029032  1  0  -0.948433  0  1.907351  0  0  -0.901093  0  2.109337  0  0  -0.933689  0  2.068337  0  0  -0.664524  -0.886848  0  2.132335  0
O  O49  1  0.03664886  0.28026475  0.79970643  1  0  -0.948642  0  1.907147  0  0  -0.901285  0  2.109135  0  0  -0.933886  0  2.068127  0  0  -0.664556  -0.887042  0  2.132134  0
