# generated using pymatgen
data_ZnH7C10NO5
_symmetry_space_group_name_H-M   'P 1'
_cell_length_a   6.64870969
_cell_length_b   9.61440081
_cell_length_c   16.20801940
_cell_angle_alpha   95.03835996
_cell_angle_beta   90.00003031
_cell_angle_gamma   89.99952937
_symmetry_Int_Tables_number   1
_chemical_formula_structural   ZnH7C10NO5
_chemical_formula_sum   'Zn4 H28 C40 N4 O20'
_cell_volume   1032.06780502
_cell_formula_units_Z   4
loop_
 _symmetry_equiv_pos_site_id
 _symmetry_equiv_pos_as_xyz
  1  'x, y, z'
loop_
 _atom_site_type_symbol
 _atom_site_label
 _atom_site_symmetry_multiplicity
 _atom_site_fract_x
 _atom_site_fract_y
 _atom_site_fract_z
 _atom_site_occupancy
 _atom_site_pbe_bader_spin_density
 _atom_site_pbe_cm5_charge
 _atom_site_pbe_ddec_charge
 _atom_site_pbe_ddec_spin_density
 _atom_site_pbe_ddec_sum_bond_order
 _atom_site_pbe_magmom
Zn  Zn0  1  0.61874770  0.48303313  0.33957295  1  0  0.693657  0.870929  0  2.240012  0
Zn  Zn1  1  0.11875092  0.01696555  0.16042621  1  0  0.693659  0.870918  0  2.239939  0
Zn  Zn2  1  0.38124912  0.51696667  0.66042301  1  0  0.693605  0.870836  0  2.240109  0
Zn  Zn3  1  0.88125191  0.98303320  0.83957709  1  0  0.693617  0.870848  0  2.240086  0
H  H4  1  0.97329929  0.45625014  0.26675596  1  0  0.294483  0.399484  0  0.940216  0
H  H5  1  0.47329934  0.04374644  0.23324066  1  0  0.294485  0.399535  0  0.940152  0
H  H6  1  0.02669753  0.54374861  0.73324055  1  0  0.294469  0.399527  0  0.940175  0
H  H7  1  0.52669748  0.95625336  0.76675838  1  0  0.29448  0.39956  0  0.940126  0
H  H8  1  0.00925033  0.51657074  0.36199355  1  0  0.336612  0.426291  0  0.841173  0
H  H9  1  0.50925873  0.98343033  0.13800546  1  0  0.336601  0.426267  0  0.84113  0
H  H10  1  0.99073897  0.48343219  0.63800380  1  0  0.336586  0.426257  0  0.841137  0
H  H11  1  0.49073959  0.01657155  0.86199430  1  0  0.336593  0.426282  0  0.841139  0
H  H12  1  0.57591431  0.92602388  0.35352569  1  0  0.105308  0.108713  0  1.012155  0
H  H13  1  0.07590031  0.57397680  0.14647331  1  0  0.105305  0.108732  0  1.012159  0
H  H14  1  0.42409153  0.07397383  0.64647015  1  0  0.105303  0.108675  0  1.012224  0
H  H15  1  0.92409200  0.42602403  0.85353010  1  0  0.105296  0.108703  0  1.012251  0
H  H16  1  0.56188870  0.70018744  0.22724813  1  0  0.119388  0.092884  0  0.999508  0
H  H17  1  0.06188289  0.79981437  0.27274969  1  0  0.119398  0.092882  0  0.99959  0
H  H18  1  0.43811865  0.29981132  0.77274406  1  0  0.119387  0.092792  0  0.999631  0
H  H19  1  0.93812296  0.20019377  0.72725719  1  0  0.119377  0.092814  0  0.999647  0
H  H20  1  0.53168106  0.72138375  0.07735318  1  0  0.113873  0.127457  0  1.015381  0
H  H21  1  0.03167579  0.77860779  0.42264472  1  0  0.113888  0.127514  0  1.01534  0
H  H22  1  0.46832929  0.27861605  0.92264092  1  0  0.113918  0.127567  0  1.015248  0
H  H23  1  0.96833156  0.22138469  0.57735887  1  0  0.113936  0.127567  0  1.015326  0
H  H24  1  0.50489346  0.26980795  0.04243504  1  0  0.112525  0.130505  0  1.018514  0
H  H25  1  0.00489332  0.23018931  0.45756526  1  0  0.112527  0.130513  0  1.018506  0
H  H26  1  0.49509735  0.73019498  0.95756293  1  0  0.112502  0.130476  0  1.018535  0
H  H27  1  0.99510200  0.76980734  0.54243854  1  0  0.112499  0.130457  0  1.01861  0
H  H28  1  0.53786994  0.26891996  0.19481352  1  0  0.114457  0.08814  0  1.061593  0
H  H29  1  0.03787099  0.23107605  0.30519043  1  0  0.11446  0.088171  0  1.061651  0
H  H30  1  0.46211936  0.73107775  0.80518294  1  0  0.114449  0.088178  0  1.061594  0
H  H31  1  0.96212433  0.76892373  0.69481786  1  0  0.114449  0.088158  0  1.061649  0
C  C32  1  0.58224469  0.70948761  0.44271488  1  0  0.202029  0.590057  0  4.206498  0
C  C33  1  0.08224307  0.79051303  0.05728412  1  0  0.202073  0.590156  0  4.206473  0
C  C34  1  0.41776266  0.29051428  0.55728365  1  0  0.202057  0.59018  0  4.206505  0
C  C35  1  0.91775526  0.20948780  0.94271867  1  0  0.202055  0.590114  0  4.206525  0
C  C36  1  0.45315315  0.79743086  0.62147512  1  0  0.216521  0.586292  0  4.205124  0
C  C37  1  0.95314420  0.70256964  0.87852316  1  0  0.216496  0.586304  0  4.205233  0
C  C38  1  0.54685269  0.20256581  0.37852252  1  0  0.216498  0.586321  0  4.20532  0
C  C39  1  0.04685112  0.29743120  0.12147778  1  0  0.21648  0.586254  0  4.20529  0
C  C40  1  0.52825295  0.85667053  0.47461876  1  0  -0.002416  -0.022505  0  3.90285  0
C  C41  1  0.02824543  0.64332729  0.02538317  1  0  -0.002477  -0.022453  0  3.902899  0
C  C42  1  0.47175440  0.14333030  0.52538218  1  0  -0.002433  -0.02241  0  3.902803  0
C  C43  1  0.97174086  0.35666937  0.97461817  1  0  -0.002407  -0.022435  0  3.902806  0
C  C44  1  0.48559188  0.89981311  0.55808498  1  0  -0.011715  -0.054322  0  3.950632  0
C  C45  1  0.98559175  0.60018614  0.94191571  1  0  -0.011711  -0.05437  0  3.950639  0
C  C46  1  0.51441246  0.10018459  0.44191518  1  0  -0.01171  -0.054436  0  3.950805  0
C  C47  1  0.01441109  0.39981470  0.05808338  1  0  -0.011715  -0.054346  0  3.950634  0
C  C48  1  0.53984554  0.95796849  0.41798358  1  0  -0.080302  -0.121678  0  3.962926  0
C  C49  1  0.03983929  0.54202718  0.08201330  1  0  -0.080292  -0.121825  0  3.963145  0
C  C50  1  0.46016331  0.04202713  0.58201462  1  0  -0.080291  -0.121692  0  3.962912  0
C  C51  1  0.96015151  0.45797157  0.91798383  1  0  -0.080333  -0.121777  0  3.962974  0
C  C52  1  0.54970637  0.60740568  0.18383023  1  0  0.049632  0.101201  0  3.922346  0
C  C53  1  0.04970861  0.89259306  0.31617113  1  0  0.049595  0.101248  0  3.922441  0
C  C54  1  0.45029947  0.39259308  0.81616443  1  0  0.049669  0.101421  0  3.922437  0
C  C55  1  0.95030024  0.10740881  0.68383603  1  0  0.04958  0.101191  0  3.922421  0
C  C56  1  0.53234045  0.61800713  0.09939903  1  0  -0.07296  -0.153167  0  3.917741  0
C  C57  1  0.03233395  0.88199067  0.40060104  1  0  -0.072992  -0.153299  0  3.917781  0
C  C58  1  0.46766990  0.38199581  0.90059215  1  0  -0.073017  -0.153379  0  3.917955  0
C  C59  1  0.96767039  0.11800493  0.59940394  1  0  -0.072961  -0.15323  0  3.917775  0
C  C60  1  0.51166941  0.49675534  0.04508598  1  0  0.019097  0.105647  0  3.95167  0
C  C61  1  0.01166736  0.00324187  0.45491309  1  0  0.019125  0.105665  0  3.951736  0
C  C62  1  0.48833643  0.50323924  0.95490785  1  0  0.019111  0.105585  0  3.951811  0
C  C63  1  0.98833397  0.99675687  0.54509021  1  0  0.01912  0.105596  0  3.951759  0
C  C64  1  0.51372472  0.36860839  0.08018889  1  0  -0.076349  -0.157553  0  3.927285  0
C  C65  1  0.01372263  0.13139195  0.41981158  1  0  -0.076396  -0.157562  0  3.927242  0
C  C66  1  0.48626910  0.63139558  0.91981037  1  0  -0.076277  -0.157309  0  3.926964  0
C  C67  1  0.98627118  0.86860262  0.58019273  1  0  -0.076279  -0.157339  0  3.927147  0
C  C68  1  0.53426715  0.36594449  0.16503929  1  0  0.042341  0.094601  0  3.94002  0
C  C69  1  0.03427389  0.13405573  0.33496179  1  0  0.042402  0.094655  0  3.940164  0
C  C70  1  0.46572065  0.63405531  0.83495728  1  0  0.042251  0.094421  0  3.940084  0
C  C71  1  0.96572143  0.86594719  0.66504420  1  0  0.042206  0.094469  0  3.940149  0
N  N72  1  0.55108784  0.48311045  0.21661067  1  0  -0.333205  -0.244546  0  3.571774  0
N  N73  1  0.05109732  0.01688861  0.28339220  1  0  -0.333184  -0.244613  0  3.571839  0
N  N74  1  0.44891049  0.51688934  0.78338590  1  0  -0.333203  -0.244585  0  3.571937  0
N  N75  1  0.94890702  0.98311221  0.71661553  1  0  -0.333135  -0.244523  0  3.571927  0
O  O76  1  0.47370809  0.65606819  0.38125930  1  0  -0.339524  -0.571714  0  2.243143  0
O  O77  1  0.97370753  0.84392909  0.11874080  1  0  -0.339531  -0.571727  0  2.243164  0
O  O78  1  0.52630528  0.34392743  0.61873829  1  0  -0.339501  -0.571762  0  2.243162  0
O  O79  1  0.02628930  0.15607174  0.88126385  1  0  -0.339533  -0.571723  0  2.243125  0
O  O80  1  0.73454377  0.65126102  0.46922427  1  0  -0.319475  -0.546425  0  2.114115  0
O  O81  1  0.23453842  0.84873977  0.03077413  1  0  -0.319485  -0.546481  0  2.114118  0
O  O82  1  0.26546357  0.34874295  0.53077499  1  0  -0.319475  -0.546474  0  2.114097  0
O  O83  1  0.76545990  0.15126211  0.96922995  1  0  -0.319472  -0.546412  0  2.114058  0
O  O84  1  0.40577321  0.67288574  0.59236560  1  0  -0.311908  -0.533774  0  2.373576  0
O  O85  1  0.90577643  0.82711711  0.90763589  1  0  -0.311889  -0.533794  0  2.373627  0
O  O86  1  0.59422361  0.32711301  0.40763030  1  0  -0.311888  -0.5338  0  2.37355  0
O  O87  1  0.09421889  0.17288685  0.09236892  1  0  -0.311902  -0.533762  0  2.373681  0
O  O88  1  0.46564415  0.83567391  0.69771951  1  0  -0.312882  -0.567009  0  2.260004  0
O  O89  1  0.96564301  0.66432755  0.80227945  1  0  -0.31284  -0.566969  0  2.260143  0
O  O90  1  0.53435868  0.16433007  0.30227790  1  0  -0.312883  -0.566991  0  2.260138  0
O  O91  1  0.03435532  0.33567015  0.19772318  1  0  -0.312823  -0.566918  0  2.260154  0
O  O92  1  0.92020746  0.52064592  0.31461876  1  0  -0.559194  -0.749483  0  2.110021  0
O  O93  1  0.42021295  0.97934750  0.18537866  1  0  -0.559177  -0.749485  0  2.109841  0
O  O94  1  0.07978485  0.47935074  0.68537950  1  0  -0.559137  -0.749439  0  2.109859  0
O  O95  1  0.57978537  0.02065125  0.81461971  1  0  -0.559152  -0.749516  0  2.109811  0
