# generated using pymatgen
data_Zn3H40C66N2O15
_symmetry_space_group_name_H-M   'P 1'
_cell_length_a   9.17346661
_cell_length_b   18.00507472
_cell_length_c   23.69283927
_cell_angle_alpha   81.54065784
_cell_angle_beta   78.83772062
_cell_angle_gamma   75.25268644
_symmetry_Int_Tables_number   1
_chemical_formula_structural   Zn3H40C66N2O15
_chemical_formula_sum   'Zn6 H80 C132 N4 O30'
_cell_volume   3693.02796645
_cell_formula_units_Z   2
loop_
 _symmetry_equiv_pos_site_id
 _symmetry_equiv_pos_as_xyz
  1  'x, y, z'
loop_
 _atom_site_type_symbol
 _atom_site_label
 _atom_site_symmetry_multiplicity
 _atom_site_fract_x
 _atom_site_fract_y
 _atom_site_fract_z
 _atom_site_occupancy
 _atom_site_pbe_bader_charge
 _atom_site_pbe_bader_spin_density
 _atom_site_pbe_cm5_charge
 _atom_site_pbe_ddec_charge
 _atom_site_pbe_ddec_spin_density
 _atom_site_pbe_ddec_sum_bond_order
 _atom_site_pbe_magmom
Zn  Zn0  1  0.50000188  0.99999987  0.50000137  1  1.422474  0  0.695461  1.036271  0  2.206897  0
Zn  Zn1  1  0.00000056  0.50000011  0.00000115  1  1.422021  0  0.695841  1.03638  0  2.208141  0
Zn  Zn2  1  0.81608897  0.85524649  0.49082820  1  1.300098  0  0.685294  0.834842  0  2.33465  0
Zn  Zn3  1  0.16229849  0.64477457  0.00921869  1  1.295783  0  0.685546  0.835116  0  2.335093  0
Zn  Zn4  1  0.18391227  0.14475403  0.50917283  1  1.300059  0  0.685278  0.834823  0  2.33465  0
Zn  Zn5  1  0.83770189  0.35522535  0.99078163  1  1.29571  0  0.685534  0.835072  0  2.335165  0
H  H6  1  0.68177398  0.12417017  0.46569111  1  0.13829  0  0.106778  0.119196  0  1.031024  0
H  H7  1  0.27131339  0.37582319  0.03422320  1  0.141151  0  0.106796  0.118729  0  1.033662  0
H  H8  1  0.31822143  0.87583091  0.53430904  1  0.138344  0  0.106764  0.119192  0  1.031007  0
H  H9  1  0.72868418  0.62417557  0.96577536  1  0.141132  0  0.106817  0.118779  0  1.033612  0
H  H10  1  0.70984212  0.25320319  0.41325593  1  0.082142  0  0.103391  0.115706  0  1.015513  0
H  H11  1  0.37578676  0.24677898  0.08671180  1  0.07245  0  0.10347  0.116457  0  1.01581  0
H  H12  1  0.29015329  0.74679790  0.58674464  1  0.082177  0  0.103388  0.115702  0  1.015602  0
H  H13  1  0.62421192  0.75321979  0.91328751  1  0.072523  0  0.103484  0.116502  0  1.015795  0
H  H14  1  0.13597039  0.14403699  0.31485350  1  0.085404  0  0.107364  0.124079  0  1.002546  0
H  H15  1  0.59445750  0.35596962  0.18508999  1  0.093572  0  0.107689  0.124667  0  1.002685  0
H  H16  1  0.86402475  0.85596466  0.68514618  1  0.085362  0  0.107341  0.124014  0  1.002582  0
H  H17  1  0.40553866  0.64402743  0.81491099  1  0.093548  0  0.107728  0.124705  0  1.002601  0
H  H18  1  0.10297880  0.01500616  0.36481246  1  0.103748  0  0.106537  0.111071  0  1.007898  0
H  H19  1  0.48259463  0.48501509  0.13508601  1  0.094556  0  0.10705  0.111706  0  1.008521  0
H  H20  1  0.89701633  0.98499550  0.63518680  1  0.103674  0  0.106561  0.111152  0  1.007832  0
H  H21  1  0.51740042  0.51498196  0.86491632  1  0.094458  0  0.107051  0.111696  0  1.008526  0
H  H22  1  0.85629959  0.24603086  0.15888506  1  0.081365  0  0.101086  0.100368  0  1.023512  0
H  H23  1  0.26073190  0.25409881  0.34102823  1  0.092707  0  0.101157  0.100116  0  1.024061  0
H  H24  1  0.14369578  0.75396792  0.84111704  1  0.081286  0  0.101064  0.100326  0  1.023461  0
H  H25  1  0.73926844  0.74589881  0.65897236  1  0.092702  0  0.101162  0.100134  0  1.024015  0
H  H26  1  0.85420358  0.20253955  0.26351919  1  0.092219  0  0.10055  0.114358  0  1.040818  0
H  H27  1  0.31950399  0.29736397  0.23632491  1  0.101871  0  0.10073  0.114327  0  1.040552  0
H  H28  1  0.14579105  0.79746327  0.73648250  1  0.092335  0  0.100559  0.114357  0  1.040813  0
H  H29  1  0.68049497  0.70263423  0.76367572  1  0.10181  0  0.10075  0.114313  0  1.040635  0
H  H30  1  0.03886947  0.39384108  0.28107209  1  0.069727  0  0.107345  0.122002  0  0.983519  0
H  H31  1  0.71374584  0.10652116  0.21893435  1  0.060589  0  0.107113  0.121972  0  0.983723  0
H  H32  1  0.96113365  0.60615769  0.71892647  1  0.069566  0  0.107306  0.121949  0  0.98349  0
H  H33  1  0.28625169  0.89347531  0.78106658  1  0.060616  0  0.107108  0.121949  0  0.983819  0
H  H34  1  0.03898285  0.43734626  0.17521003  1  0.112899  0  0.108627  0.115645  0  0.990222  0
H  H35  1  0.65167769  0.06313420  0.32482964  1  0.112118  0  0.109174  0.116252  0  0.990481  0
H  H36  1  0.96101832  0.56265193  0.82478916  1  0.112783  0  0.108652  0.115679  0  0.990266  0
H  H37  1  0.34831904  0.93686400  0.67517032  1  0.112064  0  0.109181  0.116266  0  0.990465  0
H  H38  1  0.31324275  0.91418990  0.38666507  1  0.099613  0  0.110308  0.11898  0  1.000231  0
H  H39  1  0.61463300  0.58581608  0.11312270  1  0.095654  0  0.110751  0.119151  0  0.999951  0
H  H40  1  0.68676666  0.08581694  0.61333165  1  0.099653  0  0.110315  0.119063  0  1.000168  0
H  H41  1  0.38537301  0.41418617  0.88687987  1  0.095549  0  0.110744  0.119139  0  0.99983  0
H  H42  1  0.22817622  0.87002954  0.30491998  1  0.101495  0  0.111748  0.129612  0  0.98063  0
H  H43  1  0.40354043  0.62960230  0.19490610  1  0.082522  0  0.111114  0.128568  0  0.981354  0
H  H44  1  0.77182818  0.12997616  0.69507894  1  0.101487  0  0.11175  0.129619  0  0.980678  0
H  H45  1  0.59646638  0.37039822  0.80509619  1  0.082489  0  0.111054  0.128514  0  0.9814  0
H  H46  1  0.62202770  0.67855142  0.29671954  1  0.06583  0  0.109412  0.126276  0  0.988307  0
H  H47  1  0.59667057  0.82140061  0.20338357  1  0.071754  0  0.108555  0.125639  0  0.988436  0
H  H48  1  0.37796931  0.32144621  0.70328299  1  0.065805  0  0.109369  0.126212  0  0.988411  0
H  H49  1  0.40333237  0.17860106  0.79661804  1  0.071773  0  0.108571  0.125652  0  0.988401  0
H  H50  1  0.70760044  0.72487229  0.37669784  1  0.091647  0  0.107038  0.113848  0  0.994745  0
H  H51  1  0.80857443  0.77551674  0.12333440  1  0.079273  0  0.105153  0.111964  0  0.993239  0
H  H52  1  0.29239942  0.27512880  0.62330322  1  0.091649  0  0.107034  0.113863  0  0.994749  0
H  H53  1  0.19143047  0.22448551  0.87666741  1  0.079333  0  0.105152  0.111951  0  0.99323  0
H  H54  1  0.10759559  0.80298128  0.41247183  1  0.138092  0  0.123402  0.104107  0  1.016153  0
H  H55  1  0.32423043  0.69676756  0.08743856  1  0.143698  0  0.12273  0.102838  0  1.017182  0
H  H56  1  0.89240485  0.19702096  0.58752906  1  0.138099  0  0.123403  0.104106  0  1.016156  0
H  H57  1  0.67577852  0.30323062  0.91255919  1  0.144187  0  0.122728  0.10287  0  1.017093  0
H  H58  1  0.33263146  0.68977433  0.40790281  1  0.097092  0  0.107536  0.117598  0  1.023306  0
H  H59  1  0.43093175  0.81021109  0.09203334  1  0.106783  0  0.107998  0.118388  0  1.022885  0
H  H60  1  0.66736950  0.31022675  0.59209733  1  0.097098  0  0.107537  0.117576  0  1.023345  0
H  H61  1  0.56907417  0.18978882  0.90796403  1  0.106721  0  0.107993  0.118385  0  1.022995  0
H  H62  1  0.13828843  0.60520379  0.57873586  1  0.099701  0  0.114443  0.125692  0  0.978084  0
H  H63  1  0.32179214  0.89488502  0.92136209  1  0.08496  0  0.114607  0.125787  0  0.97776  0
H  H64  1  0.86171162  0.39479439  0.42126216  1  0.099851  0  0.114466  0.125721  0  0.978003  0
H  H65  1  0.67821071  0.10511432  0.07863599  1  0.085  0  0.114651  0.125853  0  0.977714  0
H  H66  1  0.92012206  0.72143413  0.57527192  1  0.122276  0  0.121537  0.092192  0  1.018537  0
H  H67  1  0.21676340  0.77847379  0.92482968  1  0.125678  0  0.121249  0.092458  0  1.019164  0
H  H68  1  0.07987801  0.27856406  0.42472820  1  0.122278  0  0.121527  0.092211  0  1.018528  0
H  H69  1  0.78323861  0.22152497  0.07516854  1  0.125739  0  0.121281  0.092505  0  1.019165  0
H  H70  1  0.12852328  0.54008561  0.46644807  1  0.066304  0  0.097453  0.097812  0  1.030169  0
H  H71  1  0.13485903  0.96007020  0.03355592  1  0.044746  0  0.097452  0.098282  0  1.031392  0
H  H72  1  0.87147407  0.45991604  0.53355060  1  0.06638  0  0.097454  0.097824  0  1.030182  0
H  H73  1  0.86514379  0.03992684  0.96644370  1  0.044705  0  0.097432  0.098263  0  1.031439  0
H  H74  1  0.46078879  0.69840024  0.50837387  1  0.067231  0  0.100472  0.102267  0  1.025708  0
H  H75  1  0.66698398  0.80162578  0.99144376  1  0.068502  0  0.100636  0.102423  0  1.027058  0
H  H76  1  0.53920408  0.30159911  0.49162625  1  0.067026  0  0.100478  0.102277  0  1.025746  0
H  H77  1  0.33301693  0.19837298  0.00855539  1  0.068436  0  0.100594  0.102348  0  1.027041  0
H  H78  1  0.70166774  0.70611655  0.53480636  1  0.101644  0  0.099704  0.102294  0  1.037881  0
H  H79  1  0.94205559  0.79376048  0.96500397  1  0.108941  0  0.099623  0.102001  0  1.038408  0
H  H80  1  0.29832680  0.29388395  0.46519181  1  0.101614  0  0.099695  0.102255  0  1.037932  0
H  H81  1  0.05794335  0.20623771  0.03499455  1  0.108921  0  0.099589  0.101917  0  1.038418  0
H  H82  1  0.90734005  0.58552015  0.54812587  1  0.057513  0  0.092434  0.084381  0  1.054889  0
H  H83  1  0.04084808  0.91424815  0.95182173  1  0.043809  0  0.092288  0.085205  0  1.054781  0
H  H84  1  0.09265369  0.41448208  0.45187216  1  0.057415  0  0.092431  0.083406  0  1.055983  0
H  H85  1  0.95915224  0.08574946  0.04817717  1  0.043818  0  0.09229  0.085212  0  1.054773  0
C  C86  1  0.87338597  0.98383201  0.44398256  1  1.504921  0  0.207341  0.581162  0  4.159189  0
C  C87  1  0.30104106  0.51613619  0.05602214  1  1.520969  0  0.206291  0.580545  0  4.159681  0
C  C88  1  0.12661415  0.01616849  0.55601771  1  1.504912  0  0.207312  0.581099  0  4.159342  0
C  C89  1  0.69895516  0.48386317  0.94397983  1  1.521007  0  0.206352  0.580556  0  4.159696  0
C  C90  1  0.88953877  0.06189533  0.41737668  1  -0.025177  0  -0.019108  -0.045223  0  3.976392  0
C  C91  1  0.36852206  0.43807101  0.08257628  1  -0.052122  0  -0.020343  -0.046869  0  3.975032  0
C  C92  1  0.11045886  0.93810575  0.58262372  1  -0.025242  0  -0.019058  -0.045102  0  3.976323  0
C  C93  1  0.63147527  0.56192835  0.91742603  1  -0.052043  0  -0.020388  -0.046886  0  3.974989  0
C  C94  1  0.77953266  0.12885891  0.43213916  1  -0.015363  0  -0.075039  -0.051795  0  3.930091  0
C  C95  1  0.34014965  0.37112891  0.06779485  1  0.030786  0  -0.075786  -0.051744  0  3.930864  0
C  C96  1  0.22046610  0.87114218  0.56786284  1  -0.015356  0  -0.075091  -0.051896  0  3.930294  0
C  C97  1  0.65985294  0.62887101  0.93220319  1  0.030714  0  -0.075827  -0.051782  0  3.930907  0
C  C98  1  0.79545392  0.20046415  0.40354981  1  -0.000905  0  -0.101007  -0.19843  0  3.987991  0
C  C99  1  0.39896622  0.29953002  0.09640027  1  -0.030378  0  -0.100059  -0.198629  0  3.984969  0
C  C100  1  0.20454149  0.79953694  0.59645118  1  -0.000841  0  -0.100993  -0.198436  0  3.988046  0
C  C101  1  0.60103023  0.70046874  0.90359795  1  -0.030348  0  -0.099994  -0.198653  0  3.985121  0
C  C102  1  0.92326429  0.20487757  0.36152413  1  0.36901  0  0.083207  0.252526  0  4.046376  0
C  C103  1  0.48916590  0.29515234  0.13842157  1  0.351489  0  0.084034  0.254331  0  4.043535  0
C  C104  1  0.07673144  0.79512526  0.63847705  1  0.369109  0  0.083245  0.252594  0  4.0461  0
C  C105  1  0.51082967  0.70484355  0.86157917  1  0.351144  0  0.083856  0.254147  0  4.043471  0
C  C106  1  0.03602292  0.13895910  0.34721156  1  -0.076101  0  -0.09694  -0.194985  0  3.998097  0
C  C107  1  0.52177035  0.36106844  0.15273250  1  -0.022425  0  -0.098739  -0.198208  0  4.001928  0
C  C108  1  0.96397085  0.86104314  0.65278942  1  -0.076202  0  -0.096928  -0.194903  0  3.998028  0
C  C109  1  0.47822439  0.63892687  0.84726921  1  -0.022117  0  -0.098648  -0.198086  0  4.001617  0
C  C110  1  0.01779761  0.06766412  0.37510277  1  0.036818  0  -0.078071  -0.066731  0  3.96488  0
C  C111  1  0.46024680  0.43236042  0.12485003  1  -0.006152  0  -0.076771  -0.064412  0  3.965057  0
C  C112  1  0.98219923  0.93233870  0.62489833  1  0.036938  0  -0.078084  -0.066829  0  3.964819  0
C  C113  1  0.53974963  0.56763605  0.87515141  1  -0.006181  0  -0.076788  -0.064429  0  3.964932  0
C  C114  1  0.93894121  0.37270309  0.09835000  1  1.572906  0  0.218647  0.602305  0  4.168381  0
C  C115  1  0.41002457  0.12764095  0.40165854  1  1.563526  0  0.219091  0.603697  0  4.169983  0
C  C116  1  0.06106161  0.62729395  0.90165047  1  1.573012  0  0.218649  0.602334  0  4.168432  0
C  C117  1  0.58997662  0.87235726  0.59834361  1  1.563733  0  0.219171  0.603791  0  4.169944  0
C  C118  1  0.94724658  0.34456753  0.16045380  1  -0.066812  0  -0.030705  -0.072252  0  3.999564  0
C  C119  1  0.45213079  0.15573626  0.33952401  1  0.000798  0  -0.031805  -0.075461  0  3.999411  0
C  C120  1  0.05275042  0.65543009  0.83954746  1  -0.066798  0  -0.030731  -0.072321  0  3.99963  0
C  C121  1  0.54786759  0.84426079  0.66047679  1  0.000565  0  -0.031782  -0.0753  0  3.999148  0
C  C122  1  0.89758772  0.27794166  0.18559846  1  0.023721  0  -0.085776  -0.067302  0  4.006133  0
C  C123  1  0.36067620  0.22220189  0.31432778  1  -0.08365  0  -0.084562  -0.063311  0  4.002269  0
C  C124  1  0.10240902  0.72205655  0.81440276  1  0.023936  0  -0.085714  -0.067139  0  4.005903  0
C  C125  1  0.63932165  0.77779631  0.68567336  1  -0.083442  0  -0.084543  -0.063395  0  4.002177  0
C  C126  1  0.89642964  0.25329947  0.24408858  1  -0.031024  0  -0.11092  -0.221612  0  4.012135  0
C  C127  1  0.39324608  0.24673468  0.25581132  1  -0.042078  0  -0.111864  -0.224161  0  4.012899  0
C  C128  1  0.10356937  0.74670104  0.75591262  1  -0.031236  0  -0.110939  -0.221696  0  4.012113  0
C  C129  1  0.60674812  0.75326179  0.74418987  1  -0.042108  0  -0.111894  -0.224104  0  4.012943  0
C  C130  1  0.94682217  0.29592032  0.27804125  1  0.385481  0  0.088799  0.274672  0  4.045314  0
C  C131  1  0.52036361  0.20419728  0.22188480  1  0.396702  0  0.089391  0.275833  0  4.045458  0
C  C132  1  0.05317685  0.70408019  0.72195952  1  0.385507  0  0.088861  0.274766  0  4.045255  0
C  C133  1  0.47963477  0.79579976  0.77811601  1  0.396626  0  0.089432  0.275846  0  4.045429  0
C  C134  1  0.99958230  0.36193863  0.25361955  1  0.02948  0  -0.105683  -0.209535  0  4.00816  0
C  C135  1  0.61491550  0.13833664  0.24635582  1  0.031842  0  -0.106074  -0.211802  0  4.009513  0
C  C136  1  0.00041835  0.63806073  0.74638081  1  0.029666  0  -0.105651  -0.209481  0  4.008135  0
C  C137  1  0.38508175  0.86166039  0.75364338  1  0.031929  0  -0.106121  -0.211892  0  4.009735  0
C  C138  1  0.99936706  0.38594749  0.19510635  1  -0.08593  0  -0.079721  -0.064554  0  3.985474  0
C  C139  1  0.58034188  0.11440751  0.30489135  1  -0.038319  0  -0.080456  -0.063193  0  3.986208  0
C  C140  1  0.00063412  0.61405070  0.80489411  1  -0.085902  0  -0.079727  -0.064554  0  3.985657  0
C  C141  1  0.41965597  0.88559068  0.69510894  1  -0.038197  0  -0.080448  -0.063202  0  3.986228  0
C  C142  1  0.57663519  0.85397863  0.42949520  1  1.56697  0  0.217398  0.597895  0  4.176903  0
C  C143  1  0.86018512  0.64640940  0.07038369  1  1.560461  0  0.214535  0.595437  0  4.182891  0
C  C144  1  0.42336774  0.14602304  0.57050599  1  1.566767  0  0.217174  0.59756  0  4.177344  0
C  C145  1  0.13981586  0.35359169  0.92961729  1  1.560608  0  0.21459  0.59551  0  4.183179  0
C  C146  1  0.51727802  0.82332591  0.38533973  1  -0.043434  0  -0.026964  -0.062746  0  3.990064  0
C  C147  1  0.72599999  0.67685628  0.11457373  1  0.042842  0  -0.026536  -0.061634  0  3.98819  0
C  C148  1  0.48272601  0.17667575  0.61465969  1  -0.042527  0  -0.026852  -0.062484  0  3.990089  0
C  C149  1  0.27400129  0.32314654  0.88542661  1  0.042701  0  -0.026439  -0.061581  0  3.98799  0
C  C150  1  0.38030881  0.86304595  0.36623008  1  0.05299  0  -0.076271  -0.065507  0  3.969537  0
C  C151  1  0.60985606  0.63694697  0.13363065  1  -0.04056  0  -0.076715  -0.065971  0  3.96816  0
C  C152  1  0.61969950  0.13696090  0.63376841  1  0.052242  0  -0.076349  -0.065716  0  3.969623  0
C  C153  1  0.39015048  0.36305412  0.86637118  1  -0.040337  0  -0.076774  -0.065961  0  3.967845  0
C  C154  1  0.33237750  0.83835802  0.32120976  1  -0.056483  0  -0.100621  -0.208636  0  3.991475  0
C  C155  1  0.49215215  0.66143802  0.17868206  1  -0.033685  0  -0.098846  -0.20615  0  3.991992  0
C  C156  1  0.66762269  0.16164481  0.67879234  1  -0.056766  0  -0.100579  -0.208629  0  3.99153  0
C  C157  1  0.50785242  0.33856249  0.82131871  1  -0.033816  0  -0.09881  -0.206148  0  3.99207  0
C  C158  1  0.42212265  0.77291401  0.29576304  1  0.33332  0  0.083805  0.258135  0  4.051249  0
C  C159  1  0.49079204  0.72682040  0.20425915  1  0.361192  0  0.083222  0.255771  0  4.055369  0
C  C160  1  0.57787562  0.22709055  0.70423818  1  0.33322  0  0.083755  0.258185  0  4.051172  0
C  C161  1  0.50921227  0.27318068  0.79574116  1  0.361424  0  0.083227  0.255707  0  4.055481  0
C  C162  1  0.55524140  0.73024278  0.31648827  1  -0.024278  0  -0.105894  -0.218799  0  4.024069  0
C  C163  1  0.60154050  0.76975510  0.18351378  1  -0.007919  0  -0.105264  -0.216626  0  4.021914  0
C  C164  1  0.44475539  0.26975773  0.68351310  1  -0.02408  0  -0.105768  -0.218632  0  4.024101  0
C  C165  1  0.39845883  0.23024715  0.81648762  1  -0.007841  0  -0.105252  -0.216586  0  4.021882  0
C  C166  1  0.60280253  0.75605338  0.36072731  1  -0.002946  0  -0.082966  -0.070305  0  4.002049  0
C  C167  1  0.71922069  0.74415408  0.13924531  1  -0.017355  0  -0.080977  -0.06899  0  3.995867  0
C  C168  1  0.39719928  0.24394828  0.63927270  1  -0.002975  0  -0.083009  -0.070451  0  4.002131  0
C  C169  1  0.28077923  0.25584932  0.86075591  1  -0.017354  0  -0.08105  -0.069047  0  3.995906  0
C  C170  1  0.11848022  0.75694077  0.44773046  1  0.503723  0  0.056283  0.109806  0  3.905137  0
C  C171  1  0.32403992  0.74288284  0.05222772  1  0.484845  0  0.058155  0.11308  0  3.903429  0
C  C172  1  0.88151879  0.24305974  0.55226989  1  0.503737  0  0.05627  0.109772  0  3.905204  0
C  C173  1  0.67597014  0.25711534  0.94777037  1  0.485444  0  0.058122  0.112985  0  3.903414  0
C  C174  1  0.24334695  0.69396640  0.44582214  1  -0.018062  0  -0.077476  -0.17107  0  3.919042  0
C  C175  1  0.38367643  0.80598483  0.05414267  1  -0.043969  0  -0.07795  -0.17316  0  3.920532  0
C  C176  1  0.75665290  0.30603468  0.55417724  1  -0.018321  0  -0.077477  -0.171028  0  3.919211  0
C  C177  1  0.61632922  0.19401566  0.94585465  1  -0.04423  0  -0.077971  -0.173134  0  3.920727  0
C  C178  1  0.25274120  0.63695882  0.49293898  1  -0.002143  0  0.018816  0.125721  0  3.998566  0
C  C179  1  0.38263272  0.86308791  0.00708389  1  0.006208  0  0.019173  0.126252  0  3.997589  0
C  C180  1  0.74725774  0.36303937  0.50705996  1  -0.001805  0  0.018862  0.125743  0  3.998668  0
C  C181  1  0.61737155  0.13691315  0.99291262  1  0.00622  0  0.019135  0.12613  0  3.997646  0
C  C182  1  0.13468859  0.64700356  0.54046920  1  -0.072402  0  -0.078632  -0.183976  0  3.956993  0
C  C183  1  0.32205284  0.85302535  0.95958693  1  -0.012912  0  -0.077993  -0.182632  0  3.952393  0
C  C184  1  0.86531036  0.35299463  0.45953016  1  -0.072798  0  -0.07864  -0.183874  0  3.956732  0
C  C185  1  0.67795138  0.14697341  0.04041027  1  -0.012897  0  -0.077928  -0.182568  0  3.952454  0
C  C186  1  0.01370567  0.71142403  0.53915034  1  0.479642  0  0.050904  0.097695  0  3.959442  0
C  C187  1  0.26438135  0.78851978  0.96090664  1  0.438337  0  0.051273  0.096285  0  3.957664  0
C  C188  1  0.98629327  0.28857416  0.46084902  1  0.480224  0  0.050911  0.097736  0  3.95938  0
C  C189  1  0.73562093  0.21147840  0.03909204  1  0.438347  0  0.051202  0.096205  0  3.957741  0
C  C190  1  0.38130305  0.56760411  0.49452656  1  -0.031512  0  -0.004886  -0.038718  0  3.944359  0
C  C191  1  0.44328511  0.93248132  0.00546749  1  -0.045079  0  -0.004575  -0.038386  0  3.944326  0
C  C192  1  0.61869536  0.43239523  0.50547187  1  -0.0316  0  -0.004986  -0.038777  0  3.94431  0
C  C193  1  0.55671886  0.06751802  0.99453051  1  -0.045119  0  -0.004638  -0.038502  0  3.944245  0
C  C194  1  0.35783488  0.49541267  0.48717447  1  -0.022366  0  -0.006464  0.035434  0  3.997969  0
C  C195  1  0.34038263  0.00466223  0.01288907  1  -0.033256  0  -0.004834  0.037665  0  3.99611  0
C  C196  1  0.64216242  0.50458668  0.51282446  1  -0.02185  0  -0.006439  0.035514  0  3.997953  0
C  C197  1  0.65961939  0.99533654  0.98711042  1  -0.033439  0  -0.00485  0.037728  0  3.996061  0
C  C198  1  0.21897526  0.48834960  0.47214595  1  -0.049987  0  -0.09752  -0.136109  0  3.996093  0
C  C199  1  0.17942338  0.01176725  0.02791911  1  0.020024  0  -0.097365  -0.136567  0  3.998808  0
C  C200  1  0.78102151  0.51165090  0.52785247  1  -0.050035  0  -0.097522  -0.136226  0  3.996579  0
C  C201  1  0.82057918  0.98823037  0.97208173  1  0.020087  0  -0.097379  -0.13663  0  3.998873  0
C  C202  1  0.52194943  0.57362944  0.50678370  1  0.025463  0  -0.006225  0.036493  0  3.994759  0
C  C203  1  0.60221034  0.92636449  0.99311495  1  0.018376  0  -0.007201  0.034516  0  3.994872  0
C  C204  1  0.47804789  0.42636991  0.49321734  1  0.026037  0  -0.006195  0.036529  0  3.994726  0
C  C205  1  0.39779500  0.07363427  0.00688344  1  0.018285  0  -0.007149  0.034637  0  3.994884  0
C  C206  1  0.54918016  0.64589120  0.51448630  1  -0.072847  0  -0.092185  -0.129966  0  3.97719  0
C  C207  1  0.70918315  0.85407543  0.98535646  1  -0.106604  0  -0.092651  -0.129982  0  3.977721  0
C  C208  1  0.45081602  0.35410814  0.48551187  1  -0.072573  0  -0.092219  -0.130031  0  3.97716  0
C  C209  1  0.29082077  0.14592160  0.01464265  1  -0.106692  0  -0.09262  -0.129914  0  3.977797  0
C  C210  1  0.68453367  0.65023693  0.52881600  1  -0.01901  0  -0.091529  -0.069225  0  3.993155  0
C  C211  1  0.86320290  0.84966340  0.97100495  1  0.005569  0  -0.09179  -0.069372  0  3.996691  0
C  C212  1  0.31546061  0.34976415  0.47118339  1  -0.01903  0  -0.091484  -0.069069  0  3.99272  0
C  C213  1  0.13679885  0.15033594  0.02899365  1  0.005657  0  -0.091772  -0.069318  0  3.996654  0
C  C214  1  0.80082087  0.58207470  0.53607317  1  -0.071115  0  -0.098271  -0.082752  0  4.030426  0
C  C215  1  0.91880696  0.91777621  0.96382638  1  -0.087484  0  -0.09876  -0.084307  0  4.032982  0
C  C216  1  0.19917563  0.41792637  0.46392436  1  -0.071215  0  -0.098282  -0.082102  0  4.030727  0
C  C217  1  0.08119368  0.08222313  0.03617230  1  -0.087456  0  -0.09877  -0.084353  0  4.032979  0
N  N218  1  0.00501482  0.76539661  0.49349129  1  -1.269445  0  -0.324471  -0.224521  0  3.556519  0
N  N219  1  0.26452458  0.73444241  0.00651570  1  -1.23859  0  -0.32698  -0.225948  0  3.555376  0
N  N220  1  0.99498583  0.23460274  0.50650865  1  -1.269753  0  -0.324467  -0.224529  0  3.556584  0
N  N221  1  0.73548050  0.26555694  0.99348305  1  -1.239488  0  -0.326929  -0.225844  0  3.555298  0
O  O222  1  0.75524794  0.97539344  0.48279131  1  -1.181886  0  -0.319297  -0.571933  0  2.375978  0
O  O223  1  0.21333273  0.52464464  0.01718794  1  -1.176443  0  -0.320132  -0.572359  0  2.375742  0
O  O224  1  0.24475055  0.02460823  0.51721106  1  -1.181817  0  -0.319235  -0.571867  0  2.376063  0
O  O225  1  0.78666406  0.47535588  0.98281343  1  -1.176478  0  -0.320158  -0.5724  0  2.375828  0
O  O226  1  0.97452723  0.92494587  0.42899068  1  -1.169475  0  -0.313877  -0.545447  0  2.173214  0
O  O227  1  0.32845686  0.57498357  0.07103034  1  -1.165677  0  -0.311692  -0.543998  0  2.173718  0
O  O228  1  0.02547263  0.07505521  0.57100954  1  -1.169521  0  -0.313919  -0.545474  0  2.17322  0
O  O229  1  0.67154212  0.42501464  0.92897281  1  -1.165688  0  -0.311693  -0.543959  0  2.173737  0
O  O230  1  0.94148161  0.27794030  0.33688070  1  -1.101131  0  -0.156146  -0.234799  0  2.587034  0
O  O231  1  0.55587984  0.22212578  0.16304871  1  -1.102294  0  -0.156112  -0.234901  0  2.585976  0
O  O232  1  0.05851354  0.72206137  0.66312024  1  -1.101185  0  -0.156228  -0.23491  0  2.587014  0
O  O233  1  0.44411880  0.77787069  0.83695214  1  -1.102272  0  -0.156079  -0.234821  0  2.585932  0
O  O234  1  0.89083519  0.33053327  0.07008055  1  -1.193578  0  -0.327438  -0.571283  0  2.387817  0
O  O235  1  0.29154191  0.16982057  0.42994614  1  -1.203508  0  -0.327286  -0.571709  0  2.389068  0
O  O236  1  0.10916461  0.66946550  0.92991910  1  -1.193761  0  -0.32742  -0.571288  0  2.387775  0
O  O237  1  0.70846096  0.83017878  0.57005405  1  -1.203501  0  -0.327287  -0.57175  0  2.388991  0
O  O238  1  0.97773952  0.43539599  0.07878248  1  -1.173209  0  -0.305449  -0.552352  0  2.36632  0
O  O239  1  0.49188552  0.06496028  0.42124038  1  -1.175241  0  -0.305462  -0.553146  0  2.365445  0
O  O240  1  0.02226054  0.56460221  0.92121764  1  -1.173329  0  -0.30549  -0.552423  0  2.366355  0
O  O241  1  0.50811654  0.93503852  0.57876332  1  -1.175373  0  -0.305602  -0.553285  0  2.365556  0
O  O242  1  0.48837847  0.90800113  0.45680714  1  -1.17844  0  -0.30845  -0.56238  0  2.363762  0
O  O243  1  0.85336994  0.59240928  0.04301162  1  -1.174301  0  -0.307792  -0.561565  0  2.364328  0
O  O244  1  0.51162806  0.09199996  0.54319384  1  -1.178513  0  -0.308331  -0.562223  0  2.363813  0
O  O245  1  0.14663188  0.40759239  0.95698924  1  -1.174407  0  -0.307785  -0.561624  0  2.364492  0
O  O246  1  0.71576921  0.82232091  0.43544262  1  -1.173828  0  -0.32937  -0.554613  0  2.341509  0
O  O247  1  0.97355808  0.67812509  0.06446445  1  -1.178796  0  -0.328101  -0.554663  0  2.342787  0
O  O248  1  0.28423402  0.17768248  0.56455623  1  -1.173743  0  -0.329316  -0.554531  0  2.341629  0
O  O249  1  0.02643829  0.32188348  0.93553138  1  -1.178838  0  -0.328139  -0.554643  0  2.34301  0
O  O250  1  0.37546644  0.74969202  0.25007612  1  -1.088564  0  -0.16446  -0.228433  0  2.505701  0
O  O251  1  0.62453400  0.25031022  0.74992435  1  -1.08864  0  -0.164464  -0.228452  0  2.50581  0
