# generated using pymatgen
data_BiH7C7SBr3
_symmetry_space_group_name_H-M   'P 1'
_cell_length_a   6.87519231
_cell_length_b   9.22376929
_cell_length_c   18.45036579
_cell_angle_alpha   92.87146374
_cell_angle_beta   90.00023162
_cell_angle_gamma   89.99927839
_symmetry_Int_Tables_number   1
_chemical_formula_structural   BiH7C7SBr3
_chemical_formula_sum   'Bi4 H28 C28 S4 Br12'
_cell_volume   1168.56435129
_cell_formula_units_Z   4
loop_
 _symmetry_equiv_pos_site_id
 _symmetry_equiv_pos_as_xyz
  1  'x, y, z'
loop_
 _atom_site_type_symbol
 _atom_site_label
 _atom_site_symmetry_multiplicity
 _atom_site_fract_x
 _atom_site_fract_y
 _atom_site_fract_z
 _atom_site_occupancy
 _atom_site_hle17_bader_spin_density
 _atom_site_hle17_ddec_charge
 _atom_site_hle17_ddec_spin_density
 _atom_site_hle17_ddec_sum_bond_order
 _atom_site_hle17_magmom
 _atom_site_hse06_10hf_bader_spin_density
 _atom_site_hse06_10hf_ddec_charge
 _atom_site_hse06_10hf_ddec_spin_density
 _atom_site_hse06_10hf_ddec_sum_bond_order
 _atom_site_hse06_10hf_magmom
 _atom_site_hse06_bader_spin_density
 _atom_site_hse06_ddec_charge
 _atom_site_hse06_ddec_spin_density
 _atom_site_hse06_ddec_sum_bond_order
 _atom_site_hse06_magmom
 _atom_site_pbe_bader_spin_density
 _atom_site_pbe_cm5_charge
 _atom_site_pbe_ddec_charge
 _atom_site_pbe_ddec_spin_density
 _atom_site_pbe_ddec_sum_bond_order
 _atom_site_pbe_magmom
Bi  Bi0  1  0.74854738  0.07521405  0.56012553  1  0  1.017894  0  2.575  0  0  0.869861  0  3.087664  0  0  0.932416  0  3.050742  0  0  0.461682  0.825259  0  3.115205  0
Bi  Bi1  1  0.75144340  0.07518771  0.06013134  1  0  1.017823  0  2.575097  0  0  0.86978  0  3.087775  0  0  0.932343  0  3.050833  0  0  0.461647  0.82518  0  3.115312  0
Bi  Bi2  1  0.25144206  0.92481545  0.43988172  1  0  1.017906  0  2.575142  0  0  0.869873  0  3.08781  0  0  0.932428  0  3.050882  0  0  0.461638  0.825273  0  3.115347  0
Bi  Bi3  1  0.24856205  0.92481359  0.93987398  1  0  1.017788  0  2.574976  0  0  0.869729  0  3.087674  0  0  0.932293  0  3.050733  0  0  0.461626  0.82513  0  3.11521  0
H  H4  1  0.78761901  0.45126153  0.48431378  1  0  0.106471  0  0.931969  0  0  0.121458  0  0.993912  0  0  0.122564  0  0.994288  0  0  0.096265  0.120574  0  0.993809  0
H  H5  1  0.71237156  0.45125332  0.98431393  1  0  0.106497  0  0.931895  0  0  0.121507  0  0.993831  0  0  0.122608  0  0.994221  0  0  0.096255  0.120627  0  0.993717  0
H  H6  1  0.21235590  0.54874537  0.51568250  1  0  0.106486  0  0.931932  0  0  0.121457  0  0.993894  0  0  0.122554  0  0.99429  0  0  0.096252  0.120577  0  0.993779  0
H  H7  1  0.28763098  0.54874264  0.01568636  1  0  0.106483  0  0.931918  0  0  0.121498  0  0.99383  0  0  0.122606  0  0.994203  0  0  0.096257  0.120614  0  0.993726  0
H  H8  1  0.99912083  0.34282186  0.46635764  1  0  0.097855  0  0.966397  0  0  0.108649  0  1.039351  0  0  0.110244  0  1.038914  0  0  0.084456  0.107453  0  1.03973  0
H  H9  1  0.50086558  0.34282317  0.96635829  1  0  0.097858  0  0.966416  0  0  0.108689  0  1.039339  0  0  0.110285  0  1.038903  0  0  0.084437  0.107491  0  1.039721  0
H  H10  1  0.00086135  0.65718608  0.53364138  1  0  0.097833  0  0.966311  0  0  0.108664  0  1.039238  0  0  0.110259  0  1.038801  0  0  0.084417  0.107459  0  1.039627  0
H  H11  1  0.49913551  0.65717495  0.03364314  1  0  0.097857  0  0.96641  0  0  0.108653  0  1.039361  0  0  0.110248  0  1.038924  0  0  0.084434  0.107454  0  1.039745  0
H  H12  1  0.50738951  0.37908066  0.59020731  1  0  0.076859  0  1.02323  0  0  0.084726  0  1.096687  0  0  0.087564  0  1.094878  0  0  0.075445  0.08272  0  1.09791  0
H  H13  1  0.99260804  0.37906740  0.09020954  1  0  0.076778  0  1.023343  0  0  0.084665  0  1.096787  0  0  0.087502  0  1.094981  0  0  0.075426  0.08266  0  1.098016  0
H  H14  1  0.49258975  0.62092731  0.40979008  1  0  0.076777  0  1.023394  0  0  0.084659  0  1.096841  0  0  0.087498  0  1.095031  0  0  0.075396  0.082651  0  1.098068  0
H  H15  1  0.00741341  0.62092642  0.90978906  1  0  0.07678  0  1.023397  0  0  0.084697  0  1.096813  0  0  0.087538  0  1.095008  0  0  0.075407  0.082689  0  1.098037  0
H  H16  1  0.27862534  0.55041668  0.65147590  1  0  0.077618  0  0.97723  0  0  0.085615  0  1.045418  0  0  0.088134  0  1.044559  0  0  0.090455  0.083786  0  1.046146  0
H  H17  1  0.22138195  0.55040597  0.15147454  1  0  0.077575  0  0.977161  0  0  0.085571  0  1.04536  0  0  0.088083  0  1.044499  0  0  0.090451  0.083747  0  1.046077  0
H  H18  1  0.72137139  0.44959661  0.34852708  1  0  0.077616  0  0.977092  0  0  0.085589  0  1.045328  0  0  0.088106  0  1.044469  0  0  0.090451  0.083764  0  1.046049  0
H  H19  1  0.77862932  0.44959218  0.84852527  1  0  0.077579  0  0.977235  0  0  0.085564  0  1.045446  0  0  0.088082  0  1.044588  0  0  0.090435  0.083736  0  1.046169  0
H  H20  1  0.40245621  0.75493055  0.73258883  1  0  0.084152  0  0.980882  0  0  0.090149  0  1.053437  0  0  0.093436  0  1.051174  0  0  0.082519  0.087759  0  1.055115  0
H  H21  1  0.09754411  0.75492854  0.23258917  1  0  0.084161  0  0.980805  0  0  0.090156  0  1.053365  0  0  0.093449  0  1.051096  0  0  0.082523  0.087765  0  1.055044  0
H  H22  1  0.59755214  0.24507082  0.26741271  1  0  0.084206  0  0.980858  0  0  0.09019  0  1.053438  0  0  0.093468  0  1.051181  0  0  0.082528  0.087797  0  1.055119  0
H  H23  1  0.90245261  0.24506635  0.76741108  1  0  0.084198  0  0.980843  0  0  0.090173  0  1.05345  0  0  0.093461  0  1.051185  0  0  0.082559  0.087783  0  1.055129  0
H  H24  1  0.75774218  0.78012870  0.75473708  1  0  0.092204  0  0.977107  0  0  0.099508  0  1.04489  0  0  0.102717  0  1.043029  0  0  0.08436  0.097178  0  1.046345  0
H  H25  1  0.74225908  0.78011882  0.25473849  1  0  0.092197  0  0.977077  0  0  0.099502  0  1.04486  0  0  0.102714  0  1.042996  0  0  0.084338  0.097164  0  1.04634  0
H  H26  1  0.24225745  0.21987382  0.24526177  1  0  0.092208  0  0.977108  0  0  0.099504  0  1.044904  0  0  0.10271  0  1.043053  0  0  0.08434  0.097175  0  1.046358  0
H  H27  1  0.25774055  0.21986520  0.74526143  1  0  0.092237  0  0.977073  0  0  0.099558  0  1.044838  0  0  0.102757  0  1.043008  0  0  0.084361  0.097229  0  1.04629  0
H  H28  1  0.98917540  0.60717591  0.69437669  1  0  0.098342  0  0.955089  0  0  0.110078  0  1.015613  0  0  0.112752  0  1.014588  0  0  0.097782  0.108108  0  1.016478  0
H  H29  1  0.51083542  0.60716702  0.19437995  1  0  0.098365  0  0.955052  0  0  0.11012  0  1.015559  0  0  0.112799  0  1.01453  0  0  0.097748  0.108148  0  1.01643  0
H  H30  1  0.01082714  0.39282233  0.30561824  1  0  0.098413  0  0.955016  0  0  0.110139  0  1.015535  0  0  0.112816  0  1.014506  0  0  0.097782  0.10817  0  1.0164  0
H  H31  1  0.48917439  0.39281157  0.80561981  1  0  0.098406  0  0.955012  0  0  0.110143  0  1.015524  0  0  0.112819  0  1.014496  0  0  0.097811  0.108173  0  1.01639  0
C  C32  1  0.93819397  0.43191455  0.50110832  1  0  -0.14404  0  3.645475  0  0  -0.182199  0  3.90658  0  0  -0.181147  0  3.917027  0  0  -0.157245  -0.182785  0  3.89931  0
C  C33  1  0.56179587  0.43191396  0.00110811  1  0  -0.144094  0  3.645375  0  0  -0.18235  0  3.906543  0  0  -0.181302  0  3.91699  0  0  -0.15722  -0.182932  0  3.899273  0
C  C34  1  0.06178239  0.56809016  0.49888952  1  0  -0.144036  0  3.645309  0  0  -0.182239  0  3.906437  0  0  -0.18119  0  3.916882  0  0  -0.157172  -0.182816  0  3.899172  0
C  C35  1  0.43820522  0.56808854  0.99889129  1  0  -0.144102  0  3.645519  0  0  -0.18228  0  3.906609  0  0  -0.18123  0  3.917057  0  0  -0.157245  -0.182865  0  3.89934  0
C  C36  1  0.76345881  0.48400225  0.63710958  1  0  0.019325  0  3.777647  0  0  0.042668  0  4.025261  0  0  0.041528  0  4.051989  0  0  -0.021045  0.04333  0  4.007075  0
C  C37  1  0.73654621  0.48400011  0.13710688  1  0  0.019296  0  3.778066  0  0  0.042674  0  4.025619  0  0  0.041535  0  4.052347  0  0  -0.021083  0.043339  0  4.007431  0
C  C38  1  0.23653064  0.51600131  0.36289148  1  0  0.01939  0  3.777713  0  0  0.042711  0  4.025354  0  0  0.04157  0  4.052082  0  0  -0.021055  0.043373  0  4.007167  0
C  C39  1  0.26345779  0.51599150  0.86289382  1  0  0.01937  0  3.777745  0  0  0.04269  0  4.025403  0  0  0.041548  0  4.052135  0  0  -0.021075  0.043353  0  4.007215  0
C  C40  1  0.56309067  0.46729058  0.62579613  1  0  -0.114535  0  3.781581  0  0  -0.134176  0  4.024499  0  0  -0.136434  0  4.046597  0  0  -0.103905  -0.132399  0  4.009316  0
C  C41  1  0.93691450  0.46727467  0.12579332  1  0  -0.114404  0  3.781233  0  0  -0.134073  0  4.024136  0  0  -0.136334  0  4.046233  0  0  -0.103852  -0.132302  0  4.008967  0
C  C42  1  0.43690750  0.53271728  0.37420722  1  0  -0.114409  0  3.781351  0  0  -0.134052  0  4.024243  0  0  -0.136315  0  4.046347  0  0  -0.103822  -0.132278  0  4.009071  0
C  C43  1  0.06309095  0.53271379  0.87420186  1  0  -0.114467  0  3.781629  0  0  -0.134147  0  4.024524  0  0  -0.136411  0  4.046626  0  0  -0.103864  -0.13237  0  4.009345  0
C  C44  1  0.43427182  0.56442076  0.66043869  1  0  -0.058102  0  3.768631  0  0  -0.066874  0  4.013011  0  0  -0.069577  0  4.034917  0  0  -0.096968  -0.065023  0  3.998094  0
C  C45  1  0.06573532  0.56441686  0.16043947  1  0  -0.058055  0  3.768455  0  0  -0.06683  0  4.012864  0  0  -0.069534  0  4.034785  0  0  -0.096946  -0.064979  0  3.997942  0
C  C46  1  0.56572199  0.43558723  0.33955763  1  0  -0.058069  0  3.768849  0  0  -0.066829  0  4.013233  0  0  -0.069543  0  4.035165  0  0  -0.096962  -0.064974  0  3.998302  0
C  C47  1  0.93427013  0.43558129  0.83956034  1  0  -0.058014  0  3.768725  0  0  -0.066784  0  4.013117  0  0  -0.069487  0  4.035025  0  0  -0.096926  -0.064936  0  3.998205  0
C  C48  1  0.50351863  0.67761630  0.70645443  1  0  -0.050494  0  3.74553  0  0  -0.066114  0  3.991807  0  0  -0.066987  0  4.012564  0  0  -0.092232  -0.065361  0  3.977689  0
C  C49  1  0.99648239  0.67760090  0.20645335  1  0  -0.050613  0  3.746007  0  0  -0.066235  0  3.992333  0  0  -0.067116  0  4.013089  0  0  -0.092301  -0.065477  0  3.97821  0
C  C50  1  0.49648973  0.32239264  0.29354895  1  0  -0.050623  0  3.746127  0  0  -0.066238  0  3.992402  0  0  -0.067103  0  4.013161  0  0  -0.092245  -0.065483  0  3.978283  0
C  C51  1  0.00351433  0.32239183  0.79354576  1  0  -0.050546  0  3.746072  0  0  -0.066163  0  3.992354  0  0  -0.067035  0  4.013111  0  0  -0.092285  -0.06541  0  3.978232  0
C  C52  1  0.70282500  0.69237707  0.71865738  1  0  -0.064968  0  3.756973  0  0  -0.077178  0  4.006519  0  0  -0.080726  0  4.029231  0  0  -0.095372  -0.074806  0  3.991138  0
C  C53  1  0.79718464  0.69237210  0.21866010  1  0  -0.064932  0  3.756872  0  0  -0.077156  0  4.00644  0  0  -0.080702  0  4.029151  0  0  -0.095413  -0.074789  0  3.991055  0
C  C54  1  0.29718482  0.30762766  0.28133938  1  0  -0.064977  0  3.757003  0  0  -0.077184  0  4.006521  0  0  -0.080729  0  4.029225  0  0  -0.095416  -0.074813  0  3.991141  0
C  C55  1  0.20281063  0.30761623  0.78134212  1  0  -0.065019  0  3.757153  0  0  -0.07726  0  4.006704  0  0  -0.080812  0  4.029409  0  0  -0.095401  -0.074885  0  3.99132  0
C  C56  1  0.83365252  0.59559126  0.68433898  1  0  -0.095704  0  3.741891  0  0  -0.115856  0  3.98708  0  0  -0.117331  0  4.008732  0  0  -0.091907  -0.114679  0  3.972368  0
C  C57  1  0.66635111  0.59557776  0.18433909  1  0  -0.095719  0  3.741753  0  0  -0.115876  0  3.986899  0  0  -0.117357  0  4.008551  0  0  -0.091795  -0.114691  0  3.972174  0
C  C58  1  0.16634857  0.40440901  0.31566360  1  0  -0.095828  0  3.741927  0  0  -0.115961  0  3.987106  0  0  -0.117434  0  4.008752  0  0  -0.091884  -0.114784  0  3.972396  0
C  C59  1  0.33364706  0.40440519  0.81566027  1  0  -0.095884  0  3.741781  0  0  -0.116028  0  3.986987  0  0  -0.1175  0  4.008634  0  0  -0.091984  -0.11485  0  3.972272  0
S  S60  1  0.93478715  0.36466996  0.59280384  1  0  0.01526  0  2.511681  0  0  0.040992  0  2.853601  0  0  0.032364  0  2.858433  0  0  0.050762  0.047053  0  2.850329  0
S  S61  1  0.56520486  0.36467031  0.09280908  1  0  0.015256  0  2.511542  0  0  0.040979  0  2.853466  0  0  0.03235  0  2.858297  0  0  0.050779  0.047041  0  2.850192  0
S  S62  1  0.06519212  0.63532827  0.40719218  1  0  0.01513  0  2.511533  0  0  0.040887  0  2.853428  0  0  0.03226  0  2.858258  0  0  0.050715  0.046948  0  2.850154  0
S  S63  1  0.43480204  0.63532346  0.90719222  1  0  0.015234  0  2.511549  0  0  0.040983  0  2.85346  0  0  0.032351  0  2.858294  0  0  0.050777  0.047048  0  2.850184  0
Br  Br64  1  0.60102779  0.08750219  0.69382510  1  0  -0.35381  0  1.023076  0  0  -0.310045  0  1.299419  0  0  -0.325233  0  1.28461  0  0  -0.154056  -0.298944  0  1.30982  0
Br  Br65  1  0.89898756  0.08748766  0.19382498  1  0  -0.353756  0  1.023112  0  0  -0.309982  0  1.299462  0  0  -0.32517  0  1.284645  0  0  -0.154045  -0.298876  0  1.309862  0
Br  Br66  1  0.39895438  0.91250991  0.30618326  1  0  -0.35381  0  1.023025  0  0  -0.310048  0  1.299378  0  0  -0.325239  0  1.284569  0  0  -0.154087  -0.298937  0  1.30977  0
Br  Br67  1  0.10103244  0.91250724  0.80617419  1  0  -0.35374  0  1.023027  0  0  -0.309969  0  1.299361  0  0  -0.325159  0  1.284546  0  0  -0.154033  -0.298867  0  1.30976  0
Br  Br68  1  0.59158536  0.79657168  0.51839922  1  0  -0.398679  0  1.13394  0  0  -0.345011  0  1.425439  0  0  -0.368195  0  1.413965  0  0  -0.147714  -0.32858  0  1.433247  0
Br  Br69  1  0.90839987  0.79657121  0.01839791  1  0  -0.39865  0  1.134062  0  0  -0.344955  0  1.425539  0  0  -0.368139  0  1.414065  0  0  -0.147676  -0.328523  0  1.433348  0
Br  Br70  1  0.40841281  0.20342320  0.48160103  1  0  -0.398591  0  1.134191  0  0  -0.344912  0  1.425709  0  0  -0.36809  0  1.414233  0  0  -0.147625  -0.328484  0  1.433519  0
Br  Br71  1  0.09162448  0.20342047  0.98159954  1  0  -0.398601  0  1.134081  0  0  -0.344914  0  1.425581  0  0  -0.368096  0  1.414106  0  0  -0.147656  -0.328483  0  1.433392  0
Br  Br72  1  0.90791380  0.05917361  0.39988832  1  0  -0.405646  0  1.095246  0  0  -0.356247  0  1.382086  0  0  -0.378076  0  1.368998  0  0  -0.163289  -0.340652  0  1.391069  0
Br  Br73  1  0.59208981  0.05919463  0.89989350  1  0  -0.405592  0  1.095208  0  0  -0.356168  0  1.382021  0  0  -0.377998  0  1.368927  0  0  -0.163249  -0.340573  0  1.391008  0
Br  Br74  1  0.09208874  0.94085198  0.60009714  1  0  -0.405632  0  1.095441  0  0  -0.356215  0  1.382272  0  0  -0.378036  0  1.369173  0  0  -0.163239  -0.340607  0  1.39123  0
Br  Br75  1  0.40794182  0.94081303  0.10011961  1  0  -0.405539  0  1.095232  0  0  -0.356158  0  1.382117  0  0  -0.377991  0  1.369038  0  0  -0.163228  -0.340566  0  1.391104  0
