# generated using pymatgen
data_ZnH8C11N2O5
_symmetry_space_group_name_H-M   'P 1'
_cell_length_a   7.70220739
_cell_length_b   8.47878620
_cell_length_c   9.64533350
_cell_angle_alpha   114.72313475
_cell_angle_beta   91.47538024
_cell_angle_gamma   106.25775586
_symmetry_Int_Tables_number   1
_chemical_formula_structural   ZnH8C11N2O5
_chemical_formula_sum   'Zn2 H16 C22 N4 O10'
_cell_volume   541.85768696
_cell_formula_units_Z   2
loop_
 _symmetry_equiv_pos_site_id
 _symmetry_equiv_pos_as_xyz
  1  'x, y, z'
loop_
 _atom_site_type_symbol
 _atom_site_label
 _atom_site_symmetry_multiplicity
 _atom_site_fract_x
 _atom_site_fract_y
 _atom_site_fract_z
 _atom_site_occupancy
 _atom_site_hle17_bader_spin_density
 _atom_site_hle17_ddec_charge
 _atom_site_hle17_ddec_spin_density
 _atom_site_hle17_ddec_sum_bond_order
 _atom_site_hle17_magmom
 _atom_site_hse06_10hf_bader_spin_density
 _atom_site_hse06_10hf_ddec_charge
 _atom_site_hse06_10hf_ddec_spin_density
 _atom_site_hse06_10hf_ddec_sum_bond_order
 _atom_site_hse06_10hf_magmom
 _atom_site_hse06_bader_spin_density
 _atom_site_hse06_ddec_charge
 _atom_site_hse06_ddec_spin_density
 _atom_site_hse06_ddec_sum_bond_order
 _atom_site_hse06_magmom
 _atom_site_pbe_bader_spin_density
 _atom_site_pbe_cm5_charge
 _atom_site_pbe_ddec_charge
 _atom_site_pbe_ddec_spin_density
 _atom_site_pbe_ddec_sum_bond_order
 _atom_site_pbe_magmom
Zn  Zn0  1  0.25278232  0.89179514  0.70310900  1  0  1.148148  0  1.809939  0  0  0.970542  0  2.298807  0  0  1.016433  0  2.23762  0  0  0.721624  0.936965  0  2.342444  0
Zn  Zn1  1  0.74722435  0.10821062  0.29689581  1  0  1.148228  0  1.80985  0  0  0.970645  0  2.298699  0  0  1.016525  0  2.237526  0  0  0.72165  0.937068  0  2.342335  0
H  H2  1  0.32436338  0.58548903  0.61692591  1  0  0.442786  0  0.855901  0  0  0.408524  0  0.924063  0  0  0.420395  0  0.906858  0  0  0.293122  0.400085  0  0.936275  0
H  H3  1  0.67562157  0.41450957  0.38307755  1  0  0.44276  0  0.855952  0  0  0.408514  0  0.924102  0  0  0.420388  0  0.906891  0  0  0.2931  0.400073  0  0.936316  0
H  H4  1  0.51188709  0.76406104  0.72047784  1  0  0.447657  0  0.840894  0  0  0.416432  0  0.904197  0  0  0.427102  0  0.888474  0  0  0.301231  0.408731  0  0.915598  0
H  H5  1  0.48810925  0.23593645  0.27952242  1  0  0.447627  0  0.840919  0  0  0.416402  0  0.904225  0  0  0.427072  0  0.888503  0  0  0.301221  0.4087  0  0.915629  0
H  H6  1  0.89922546  0.66629166  0.85130878  1  0  0.120805  0  0.958931  0  0  0.130184  0  1.019794  0  0  0.134143  0  1.016151  0  0  0.1134  0.127391  0  1.022189  0
H  H7  1  0.10076437  0.33371820  0.14869194  1  0  0.120782  0  0.958974  0  0  0.130183  0  1.019837  0  0  0.134141  0  1.016196  0  0  0.113432  0.127385  0  1.022228  0
H  H8  1  0.17290368  0.94649133  0.32098558  1  0  0.111106  0  0.945876  0  0  0.120024  0  1.010459  0  0  0.123973  0  1.007058  0  0  0.107798  0.116954  0  1.013285  0
H  H9  1  0.82709145  0.05349801  0.67901045  1  0  0.111068  0  0.945837  0  0  0.119969  0  1.010449  0  0  0.123914  0  1.007053  0  0  0.107767  0.1169  0  1.013274  0
H  H10  1  0.70490366  0.46403263  0.18137824  1  0  0.096198  0  0.978721  0  0  0.105622  0  1.0472  0  0  0.108874  0  1.044649  0  0  0.107036  0.102929  0  1.049727  0
H  H11  1  0.29511065  0.53596393  0.81861700  1  0  0.096223  0  0.978626  0  0  0.105666  0  1.04707  0  0  0.108916  0  1.044516  0  0  0.10708  0.102972  0  1.049601  0
H  H12  1  0.68350129  0.47726559  0.69101203  1  0  0.134692  0  0.941781  0  0  0.147898  0  0.992707  0  0  0.150968  0  0.990795  0  0  0.13402  0.145629  0  0.994247  0
H  H13  1  0.31651002  0.52272547  0.30898099  1  0  0.134645  0  0.941752  0  0  0.147847  0  0.992699  0  0  0.150915  0  0.990789  0  0  0.134009  0.145584  0  0.994238  0
H  H14  1  0.41419053  0.14469525  0.53102435  1  0  0.115479  0  0.948209  0  0  0.125881  0  1.005838  0  0  0.128497  0  1.004372  0  0  0.124719  0.123835  0  1.007321  0
H  H15  1  0.58582778  0.85529734  0.46896740  1  0  0.115425  0  0.948277  0  0  0.125892  0  1.00583  0  0  0.128511  0  1.004358  0  0  0.124688  0.123838  0  1.00731  0
H  H16  1  0.52017377  0.22843598  0.99141129  1  0  0.104956  0  0.951061  0  0  0.110748  0  1.020275  0  0  0.114555  0  1.01517  0  0  0.136388  0.107505  0  1.024668  0
H  H17  1  0.47981618  0.77156992  0.00858477  1  0  0.105037  0  0.950915  0  0  0.110731  0  1.020247  0  0  0.114538  0  1.015142  0  0  0.136334  0.107503  0  1.024622  0
C  C18  1  0.78186711  0.54974482  0.00242067  1  0  0.168298  0  3.788204  0  0  0.163143  0  4.042226  0  0  0.166184  0  4.064807  0  0  0.091207  0.16078  0  4.026925  0
C  C19  1  0.21813711  0.45024872  0.99757726  1  0  0.16829  0  3.788044  0  0  0.163157  0  4.042036  0  0  0.166198  0  4.064616  0  0  0.091156  0.160786  0  4.026749  0
C  C20  1  0.90596555  0.67640964  0.96733030  1  0  -0.122313  0  3.69222  0  0  -0.160609  0  3.947672  0  0  -0.160031  0  3.965679  0  0  -0.07915  -0.160017  0  3.934837  0
C  C21  1  0.09403597  0.32358788  0.03267116  1  0  -0.122293  0  3.69246  0  0  -0.160659  0  3.947912  0  0  -0.160079  0  3.965922  0  0  -0.079211  -0.160051  0  3.935062  0
C  C22  1  0.04793293  0.81961781  0.08121056  1  0  -0.06127  0  3.745184  0  0  -0.03511  0  3.983027  0  0  -0.043898  0  4.005911  0  0  -0.017825  -0.029943  0  3.968505  0
C  C23  1  0.95206846  0.18039609  0.91879725  1  0  -0.061341  0  3.745409  0  0  -0.035098  0  3.983166  0  0  -0.043888  0  4.006048  0  0  -0.017828  -0.029929  0  3.968641  0
C  C24  1  0.06326925  0.83582411  0.23133803  1  0  -0.057505  0  3.677794  0  0  -0.100617  0  3.933206  0  0  -0.096948  0  3.950044  0  0  -0.075671  -0.103326  0  3.923036  0
C  C25  1  0.93672144  0.16418022  0.76866264  1  0  -0.057421  0  3.677628  0  0  -0.100527  0  3.933023  0  0  -0.096863  0  3.949883  0  0  -0.075632  -0.103237  0  3.922852  0
C  C26  1  0.93892144  0.70673804  0.26660096  1  0  -0.062684  0  3.742372  0  0  -0.03343  0  3.975265  0  0  -0.042104  0  3.998352  0  0  -0.01647  -0.027754  0  3.959437  0
C  C27  1  0.06107801  0.29326098  0.73339688  1  0  -0.062677  0  3.742271  0  0  -0.033452  0  3.975245  0  0  -0.042126  0  3.998328  0  0  -0.016486  -0.027777  0  3.959417  0
C  C28  1  0.79829721  0.56345669  0.15184024  1  0  -0.132627  0  3.715902  0  0  -0.170287  0  3.970456  0  0  -0.170693  0  3.991127  0  0  -0.081621  -0.169505  0  3.956512  0
C  C29  1  0.20170443  0.43654100  0.84815714  1  0  -0.132615  0  3.715704  0  0  -0.17028  0  3.97028  0  0  -0.170675  0  3.99094  0  0  -0.08161  -0.169492  0  3.956332  0
C  C30  1  0.18484574  0.94207993  0.02939033  1  0  0.681072  0  3.893254  0  0  0.627471  0  4.19169  0  0  0.661562  0  4.184048  0  0  0.216217  0.604356  0  4.19594  0
C  C31  1  0.81514449  0.05792713  0.97061139  1  0  0.681077  0  3.893001  0  0  0.627478  0  4.191442  0  0  0.661578  0  4.183791  0  0  0.216164  0.604362  0  4.195694  0
C  C32  1  0.95998097  0.71705838  0.42635828  1  0  0.677659  0  3.891831  0  0  0.624933  0  4.184033  0  0  0.659727  0  4.17594  0  0  0.217079  0.601507  0  4.188018  0
C  C33  1  0.04002280  0.28293788  0.57364069  1  0  0.677708  0  3.891667  0  0  0.624946  0  4.183925  0  0  0.659741  0  4.175832  0  0  0.217088  0.601523  0  4.187914  0
C  C34  1  0.61094909  0.37849814  0.73019083  1  0  -0.046826  0  3.619334  0  0  -0.08814  0  3.879224  0  0  -0.087181  0  3.897567  0  0  0.010426  -0.088761  0  3.867039  0
C  C35  1  0.38905479  0.62149829  0.26980406  1  0  -0.046785  0  3.619315  0  0  -0.088134  0  3.879245  0  0  -0.087176  0  3.897592  0  0  0.010435  -0.088764  0  3.867061  0
C  C36  1  0.47844667  0.21196030  0.65089545  1  0  0.030578  0  3.726091  0  0  -0.005205  0  3.995355  0  0  -0.002812  0  4.014779  0  0  0.009577  -0.006771  0  3.982342  0
C  C37  1  0.52155802  0.78803883  0.34910154  1  0  0.030705  0  3.725997  0  0  -0.005112  0  3.995234  0  0  -0.002719  0  4.014658  0  0  0.009622  -0.006665  0  3.98221  0
C  C38  1  0.53081618  0.25152108  0.88899464  1  0  0.178153  0  3.639277  0  0  0.115409  0  3.909811  0  0  0.129139  0  3.922011  0  0  0.147655  0.106842  0  3.901152  0
C  C39  1  0.46919500  0.74848223  0.11100416  1  0  0.178106  0  3.639095  0  0  0.115453  0  3.909567  0  0  0.129183  0  3.921768  0  0  0.147721  0.106872  0  3.900898  0
N  N40  1  0.43078193  0.13481943  0.75089745  1  0  -0.407042  0  3.347054  0  0  -0.325394  0  3.651355  0  0  -0.345973  0  3.664057  0  0  -0.36356  -0.311187  0  3.642118  0
N  N41  1  0.56922086  0.86518633  0.24910621  1  0  -0.407135  0  3.347127  0  0  -0.325486  0  3.651388  0  0  -0.346064  0  3.664092  0  0  -0.363562  -0.31128  0  3.642154  0
N  N42  1  0.64364084  0.40233196  0.88156916  1  0  -0.090111  0  3.592039  0  0  -0.000869  0  3.803433  0  0  -0.016057  0  3.831044  0  0  -0.220322  0.009248  0  3.784579  0
N  N43  1  0.35637124  0.59766172  0.11842801  1  0  -0.09009  0  3.591903  0  0  -0.000825  0  3.803235  0  0  -0.016013  0  3.830841  0  0  -0.220281  0.009295  0  3.784385  0
O  O44  1  0.15579311  0.88189783  0.88124319  1  0  -0.691499  0  2.139632  0  0  -0.614389  0  2.439078  0  0  -0.642777  0  2.418901  0  0  -0.338952  -0.59442  0  2.452975  0
O  O45  1  0.84419199  0.11810929  0.11875528  1  0  -0.691475  0  2.139509  0  0  -0.614436  0  2.43905  0  0  -0.642803  0  2.418818  0  0  -0.339022  -0.594473  0  2.452964  0
O  O46  1  0.31062627  0.08210453  0.12216730  1  0  -0.637098  0  1.938654  0  0  -0.586484  0  2.167169  0  0  -0.609998  0  2.156528  0  0  -0.320799  -0.569886  0  2.174053  0
O  O47  1  0.68936131  0.91789414  0.87783523  1  0  -0.637094  0  1.938501  0  0  -0.58648  0  2.16703  0  0  -0.61  0  2.156385  0  0  -0.320686  -0.569882  0  2.173919  0
O  O48  1  0.10592806  0.84302774  0.51638026  1  0  -0.672083  0  2.107985  0  0  -0.596707  0  2.400714  0  0  -0.627159  0  2.384756  0  0  -0.330557  -0.574876  0  2.411107  0
O  O49  1  0.89407399  0.15696300  0.48361755  1  0  -0.672141  0  2.107907  0  0  -0.596736  0  2.400635  0  0  -0.62719  0  2.38468  0  0  -0.330562  -0.574893  0  2.410998  0
O  O50  1  0.84381173  0.60999959  0.46285573  1  0  -0.624235  0  1.937632  0  0  -0.571316  0  2.154273  0  0  -0.594515  0  2.142104  0  0  -0.318955  -0.554728  0  2.161917  0
O  O51  1  0.15618819  0.38999258  0.53714049  1  0  -0.624268  0  1.937685  0  0  -0.571332  0  2.154339  0  0  -0.594526  0  2.142169  0  0  -0.318949  -0.554741  0  2.161968  0
O  O52  1  0.39981900  0.71547452  0.64317590  1  0  -0.852347  0  1.894113  0  0  -0.778311  0  2.108481  0  0  -0.801472  0  2.070469  0  0  -0.567645  -0.76165  0  2.1356  0
O  O53  1  0.60018159  0.28452427  0.35682810  1  0  -0.852293  0  1.894189  0  0  -0.77827  0  2.108502  0  0  -0.801431  0  2.070486  0  0  -0.567611  -0.76161  0  2.135623  0
