# generated using pymatgen
data_CuPH6(CO)4
_symmetry_space_group_name_H-M   'P 1'
_cell_length_a   7.40525264
_cell_length_b   7.50282600
_cell_length_c   10.76316157
_cell_angle_alpha   90.00028290
_cell_angle_beta   92.91931319
_cell_angle_gamma   90.00053743
_symmetry_Int_Tables_number   1
_chemical_formula_structural   CuPH6(CO)4
_chemical_formula_sum   'Cu4 P4 H24 C16 O16'
_cell_volume   597.22866090
_cell_formula_units_Z   4
loop_
 _symmetry_equiv_pos_site_id
 _symmetry_equiv_pos_as_xyz
  1  'x, y, z'
loop_
 _atom_site_type_symbol
 _atom_site_label
 _atom_site_symmetry_multiplicity
 _atom_site_fract_x
 _atom_site_fract_y
 _atom_site_fract_z
 _atom_site_occupancy
 _atom_site_hle17_ddec_charge
 _atom_site_hle17_ddec_spin_density
 _atom_site_hle17_ddec_sum_bond_order
 _atom_site_hle17_magmom
 _atom_site_hse06_10hf_ddec_charge
 _atom_site_hse06_10hf_ddec_spin_density
 _atom_site_hse06_10hf_ddec_sum_bond_order
 _atom_site_hse06_10hf_magmom
 _atom_site_hse06_ddec_charge
 _atom_site_hse06_ddec_spin_density
 _atom_site_hse06_ddec_sum_bond_order
 _atom_site_hse06_magmom
 _atom_site_pbe_cm5_charge
 _atom_site_pbe_ddec_charge
 _atom_site_pbe_ddec_spin_density
 _atom_site_pbe_ddec_sum_bond_order
 _atom_site_pbe_magmom
Cu  Cu0  1  0.93072480  0.68963452  0.96422013  1  1.095361  -0.720973  1.618606  -0.538  1.110331  -0.827444  1.990942  -0.675  1.187449  -0.894744  1.93626  -0.757  0.739779  1.049029  -0.770574  2.044776  -0.615
Cu  Cu1  1  0.56926933  0.18963264  0.03577334  1  1.095128  -0.72094  1.618755  -0.538  1.110202  -0.827419  1.990938  -0.675  1.18726  -0.894721  1.936364  -0.757  0.739712  1.048897  -0.770546  2.044812  -0.615
Cu  Cu2  1  0.06926015  0.31035684  0.03577750  1  1.095134  0.720916  1.618701  0.538  1.110281  0.827416  1.99077  0.675  1.1873  0.894723  1.936244  0.757  0.739707  1.048953  0.770537  2.044667  0.615
Cu  Cu3  1  0.43072509  0.81037605  0.96422740  1  1.095282  0.720978  1.618712  0.538  1.110273  0.827437  1.991037  0.675  1.187396  0.894738  1.936374  0.757  0.739738  1.048971  0.770572  2.044911  0.615
P  P4  1  0.15496386  0.95092159  0.14570533  1  1.504119  0.001638  4.770629  0.002  1.368777  0.003215  5.269007  0.003  1.425442  0.002874  5.226193  0.003  0.334787  1.328784  0.003228  5.295606  0.003
P  P5  1  0.34503895  0.45091471  0.85429136  1  1.504162  0.001636  4.770595  0.002  1.368915  0.003209  5.268963  0.003  1.425578  0.002871  5.226158  0.003  0.334867  1.328913  0.003221  5.295546  0.003
P  P6  1  0.84503595  0.04908043  0.85429095  1  1.504146  -0.00164  4.770732  -0.002  1.368852  -0.003214  5.269098  -0.003  1.425516  -0.002873  5.226295  -0.003  0.334805  1.328853  -0.003225  5.295684  -0.003
P  P7  1  0.65496356  0.54908198  0.14570315  1  1.50413  -0.001635  4.770565  -0.002  1.36883  -0.003213  5.268929  -0.003  1.425494  -0.002872  5.226121  -0.003  0.334808  1.328829  -0.003225  5.295527  -0.003
H  H8  1  0.85874783  0.43745806  0.82816577  1  0.428097  0.000212  0.864126  0.002  0.403069  -0.000434  0.926992  0.0  0.413927  -0.000266  0.911771  0.0  0.295189  0.39509  -0.000566  0.938231  0.0
H  H9  1  0.64124875  0.93746633  0.17183329  1  0.428086  0.000211  0.864199  0.002  0.403067  -0.000434  0.927012  0.0  0.413925  -0.000266  0.911791  0.0  0.295168  0.395089  -0.000566  0.938252  0.0
H  H10  1  0.14123847  0.56254129  0.17183191  1  0.428063  -0.000212  0.864191  -0.002  0.403031  0.000434  0.927051  0.0  0.413889  0.000266  0.911828  0.0  0.295168  0.395045  0.000566  0.938296  0.0
H  H11  1  0.35874837  0.06253836  0.82816754  1  0.428065  -0.000212  0.864199  -0.002  0.403035  0.000434  0.92706  0.0  0.413894  0.000265  0.911838  0.0  0.295147  0.395057  0.000566  0.9383  0.0
H  H12  1  0.69185809  0.57226114  0.82203476  1  0.430056  0.000945  0.87394  0.002  0.402447  0.00029  0.932972  0.001  0.41436  0.000296  0.916138  0.001  0.293589  0.393899  0.000289  0.945067  0.001
H  H13  1  0.80814573  0.07226780  0.17796513  1  0.430052  0.000945  0.873942  0.002  0.402426  0.00029  0.933  0.001  0.414339  0.000296  0.916164  0.001  0.293594  0.393886  0.000289  0.945086  0.001
H  H14  1  0.30813634  0.42773288  0.17796784  1  0.430044  -0.000945  0.873941  -0.002  0.4024  -0.00029  0.933014  -0.001  0.414306  -0.000296  0.916192  -0.001  0.2936  0.39386  -0.000289  0.945098  -0.001
H  H15  1  0.19185545  0.92773289  0.82203583  1  0.430049  -0.000945  0.87394  -0.002  0.402425  -0.00029  0.932998  -0.001  0.414339  -0.000297  0.916161  -0.001  0.293588  0.393881  -0.000289  0.945089  -0.001
H  H16  1  0.32887346  0.82375891  0.31568426  1  0.142443  0.000531  0.946364  0.001  0.155016  0.000271  1.004353  0.0  0.157648  0.000173  1.004237  0.0  0.107846  0.152955  0.00035  1.004828  0.0
H  H17  1  0.17113623  0.32376255  0.68431686  1  0.14244  0.000531  0.946406  0.001  0.154979  0.000271  1.004439  0.0  0.157609  0.000173  1.004326  0.0  0.107864  0.15292  0.00035  1.004911  0.0
H  H18  1  0.67113582  0.17624045  0.68431233  1  0.142461  -0.000534  0.946366  -0.001  0.155026  -0.000271  1.004352  0.0  0.157658  -0.000174  1.004237  0.0  0.107887  0.152966  -0.00035  1.004824  0.0
H  H19  1  0.82886765  0.67624480  0.31568234  1  0.142447  -0.000534  0.946383  -0.001  0.155019  -0.000271  1.00437  0.0  0.157652  -0.000174  1.004253  0.0  0.107868  0.15296  -0.00035  1.004844  0.0
H  H20  1  0.35192694  0.05779160  0.30559405  1  0.151879  -0.001944  0.925526  -0.003  0.167138  -0.000896  0.977064  -0.001  0.16819  -0.000504  0.978266  -0.001  0.116271  0.166504  -0.001293  0.976219  -0.002
H  H21  1  0.14807337  0.55779696  0.69440305  1  0.15187  -0.001941  0.925516  -0.003  0.167112  -0.000896  0.977092  -0.001  0.168159  -0.000504  0.978301  -0.001  0.116255  0.166476  -0.001293  0.976245  -0.002
H  H22  1  0.64808100  0.94220376  0.69440621  1  0.151914  0.00194  0.925509  0.003  0.167178  0.000896  0.977031  0.001  0.168227  0.000504  0.978236  0.001  0.116289  0.166541  0.001293  0.976184  0.002
H  H23  1  0.85192237  0.44220772  0.30558845  1  0.151923  0.001944  0.925501  0.003  0.167167  0.000897  0.977047  0.001  0.168217  0.000504  0.978254  0.001  0.116303  0.166534  0.001293  0.976202  0.002
H  H24  1  0.11767047  0.69717680  0.45839789  1  0.094957  0.000148  0.955446  0.0  0.108558  9.1e-05  1.010448  0.0  0.110732  6e-05  1.01076  0.0  0.099961  0.107102  0.000124  1.010233  0.0
H  H25  1  0.38233796  0.19718272  0.54159717  1  0.094824  0.000149  0.955497  0.0  0.108411  9.1e-05  1.01053  0.0  0.11058  6e-05  1.010852  0.0  0.099946  0.106957  0.000124  1.010311  0.0
H  H26  1  0.88233746  0.30281589  0.54159772  1  0.09489  -0.000152  0.955372  0.0  0.108487  -9.1e-05  1.010391  0.0  0.110655  -6e-05  1.010714  0.0  0.099957  0.107032  -0.000124  1.010172  0.0
H  H27  1  0.61766862  0.80281930  0.45840119  1  0.094858  -0.00015  0.955492  0.0  0.108445  -9.1e-05  1.010527  0.0  0.110622  -6e-05  1.010829  0.0  0.099939  0.10699  -0.000124  1.01031  0.0
H  H28  1  0.90607147  0.74356889  0.62748115  1  0.103516  -0.000166  0.965798  0.0  0.111613  -6.3e-05  1.031733  0.0  0.114512  -2e-05  1.030366  0.0  0.097967  0.109711  -0.00011  1.032563  0.0
H  H29  1  0.59393942  0.24357362  0.37251400  1  0.103425  -0.000164  0.965865  0.0  0.11155  -6.3e-05  1.031766  0.0  0.114449  -2e-05  1.030402  0.0  0.097991  0.109659  -0.00011  1.0326  0.0
H  H30  1  0.09393645  0.25642380  0.37251354  1  0.103387  0.000165  0.965695  0.0  0.111474  6.3e-05  1.031682  0.0  0.114373  2e-05  1.030318  0.0  0.097957  0.109582  0.00011  1.032515  0.0
H  H31  1  0.40606986  0.75642707  0.62748352  1  0.103508  0.000165  0.965745  0.0  0.111585  6.3e-05  1.0317  0.0  0.114484  2e-05  1.030333  0.0  0.097982  0.109685  0.00011  1.032527  0.0
C  C32  1  0.25245549  0.94871143  0.30411653  1  -0.476377  -0.007931  3.671618  -0.008  -0.493507  -0.003454  3.901332  -0.004  -0.504609  -0.002061  3.910861  -0.002  -0.162626  -0.485948  -0.004945  3.894828  -0.005
C  C33  1  0.24754728  0.44871986  0.69587643  1  -0.476429  -0.007943  3.671955  -0.008  -0.493478  -0.003456  3.901572  -0.004  -0.504578  -0.002061  3.911106  -0.002  -0.162631  -0.485923  -0.004948  3.895063  -0.005
C  C34  1  0.74754838  0.05128259  0.69587988  1  -0.476535  0.007949  3.671934  0.008  -0.493625  0.003456  3.901607  0.004  -0.504729  0.002065  3.911136  0.002  -0.162665  -0.486068  0.004947  3.895098  0.005
C  C35  1  0.75245253  0.55128882  0.30411891  1  -0.476443  0.007941  3.671702  0.008  -0.493572  0.003456  3.901458  0.004  -0.504674  0.002063  3.910988  0.002  -0.16266  -0.486012  0.004947  3.894951  0.005
C  C36  1  0.12044245  0.97378839  0.40393032  1  0.147574  0.005188  3.760772  0.005  0.15305  0.001126  4.011321  0.001  0.153741  0.000685  4.036956  0.001  -0.014282  0.153546  0.001612  3.992658  0.002
C  C37  1  0.37956739  0.47379200  0.59607969  1  0.147669  0.005163  3.761075  0.005  0.153088  0.001125  4.011675  0.001  0.15378  0.000685  4.037306  0.001  -0.014209  0.153589  0.001611  3.992999  0.002
C  C38  1  0.87957229  0.02620963  0.59608132  1  0.147774  -0.005191  3.761124  -0.005  0.153218  -0.001125  4.01168  -0.001  0.15391  -0.000686  4.037312  -0.001  -0.014157  0.153716  -0.00161  3.993005  -0.002
C  C39  1  0.62043652  0.52621135  0.40392787  1  0.147579  -0.005185  3.760766  -0.005  0.153009  -0.001126  4.011377  -0.001  0.153701  -0.000685  4.037006  -0.001  -0.014306  0.153506  -0.001613  3.99271  -0.002
C  C40  1  0.06561689  0.83017984  0.47623630  1  -0.128174  -0.004581  3.751816  -0.005  -0.147116  -0.000585  4.010753  -0.001  -0.149963  -0.000338  4.033021  0.0  -0.09645  -0.144994  -0.000957  3.994614  -0.001
C  C41  1  0.43438340  0.33020077  0.52376174  1  -0.127916  -0.004565  3.752036  -0.005  -0.146824  -0.000585  4.010986  -0.001  -0.149665  -0.000338  4.033239  0.0  -0.09639  -0.144705  -0.000957  3.994852  -0.001
C  C42  1  0.93437751  0.16979152  0.52375700  1  -0.128077  0.004587  3.752272  0.005  -0.146997  0.000585  4.011227  0.001  -0.149838  0.000338  4.033484  0.0  -0.096445  -0.144876  0.000957  3.995093  0.001
C  C43  1  0.56561915  0.66981324  0.47624206  1  -0.127889  0.004578  3.75175  0.005  -0.146811  0.000585  4.010677  0.001  -0.149652  0.000338  4.032939  0.0  -0.096336  -0.144689  0.000958  3.994537  0.001
C  C44  1  0.94753560  0.85595587  0.57137778  1  -0.117201  0.006794  3.732698  0.006  -0.145271  0.001228  3.998789  0.001  -0.148287  0.000667  4.020536  0.001  -0.095744  -0.142468  0.001933  3.982671  0.002
C  C45  1  0.55245750  0.35596594  0.42862831  1  -0.117159  0.006766  3.732985  0.006  -0.145261  0.001227  3.999096  0.001  -0.148275  0.000667  4.020843  0.001  -0.095762  -0.142468  0.001931  3.982981  0.002
C  C46  1  0.05245209  0.14402882  0.42863110  1  -0.11706  -0.006781  3.732885  -0.006  -0.145153  -0.001226  3.999001  -0.001  -0.14817  -0.000667  4.020754  -0.001  -0.095705  -0.142359  -0.00193  3.982885  -0.002
C  C47  1  0.44754235  0.64403741  0.57137818  1  -0.117282  -0.006775  3.732875  -0.006  -0.145333  -0.001227  3.999003  -0.001  -0.148353  -0.000668  4.020753  -0.001  -0.095817  -0.142526  -0.001932  3.98287  -0.002
O  O48  1  0.82608360  0.56479253  0.81028954  1  -0.778792  -0.074153  1.886844  -0.097  -0.741396  -0.056407  2.091159  -0.08  -0.776613  -0.043379  2.060095  -0.065  -0.566515  -0.71731  -0.063315  2.11409  -0.086
O  O49  1  0.67391744  0.06479537  0.18971209  1  -0.778713  -0.074136  1.886889  -0.097  -0.741353  -0.056398  2.091179  -0.08  -0.776555  -0.043371  2.060144  -0.065  -0.566469  -0.717274  -0.0633  2.114105  -0.086
O  O50  1  0.17390949  0.43521082  0.18971766  1  -0.778683  0.074145  1.886813  0.097  -0.741288  0.056402  2.091136  0.08  -0.776494  0.043374  2.060134  0.065  -0.566479  -0.717193  0.063305  2.114077  0.086
O  O51  1  0.32608374  0.93520532  0.81028887  1  -0.77873  0.074149  1.886891  0.097  -0.741341  0.056405  2.091194  0.08  -0.776558  0.043377  2.060147  0.065  -0.566461  -0.717261  0.063311  2.114119  0.086
O  O52  1  0.06334742  0.76794336  0.12111325  1  -0.844389  -0.055573  2.043904  -0.074  -0.78883  -0.039391  2.333915  -0.056  -0.827662  -0.031313  2.311347  -0.047  -0.374126  -0.759896  -0.0427  2.348417  -0.059
O  O53  1  0.43665094  0.26792550  0.87889380  1  -0.844276  -0.055582  2.043898  -0.074  -0.788769  -0.039397  2.333872  -0.056  -0.827619  -0.031319  2.311373  -0.047  -0.374106  -0.759834  -0.042707  2.348374  -0.059
O  O54  1  0.93664297  0.23206533  0.87889386  1  -0.84426  0.055576  2.04389  0.074  -0.788819  0.039396  2.333991  0.056  -0.827608  0.031317  2.311385  0.047  -0.374182  -0.759888  0.042705  2.348503  0.059
O  O55  1  0.56334351  0.73206319  0.12111251  1  -0.844361  0.055578  2.043982  0.074  -0.788823  0.039394  2.333967  0.056  -0.827674  0.031316  2.311437  0.047  -0.374109  -0.759889  0.042703  2.34848  0.059
O  O56  1  0.01200295  0.10217670  0.13433397  1  -0.852956  0.062962  2.102178  0.084  -0.789162  0.04257  2.388526  0.06  -0.827429  0.032889  2.366054  0.048  -0.377685  -0.761464  0.048156  2.403546  0.066
O  O57  1  0.48800051  0.60217442  0.86566617  1  -0.852931  0.062955  2.101925  0.084  -0.789259  0.042559  2.388419  0.06  -0.827536  0.032877  2.365905  0.048  -0.377697  -0.761571  0.048152  2.403486  0.066
O  O58  1  0.98799149  0.89782266  0.86567048  1  -0.853014  -0.062948  2.102083  -0.083  -0.789221  -0.042559  2.388451  -0.06  -0.827533  -0.032881  2.366008  -0.048  -0.377674  -0.76151  -0.04815  2.403447  -0.066
O  O59  1  0.51199256  0.39782760  0.13433545  1  -0.85297  -0.062959  2.10202  -0.084  -0.789181  -0.042566  2.388335  -0.06  -0.827473  -0.032885  2.365919  -0.048  -0.377714  -0.761483  -0.048155  2.403353  -0.066
O  O60  1  0.31094709  0.99331670  0.05998706  1  -0.900183  0.063175  2.14003  0.084  -0.874755  0.04048  2.493325  0.058  -0.911437  0.03084  2.462557  0.046  -0.398043  -0.844575  0.046558  2.511511  0.064
O  O61  1  0.18906694  0.49334364  0.94000643  1  -0.900238  0.063175  2.140013  0.084  -0.874862  0.04048  2.493305  0.058  -0.911526  0.030836  2.462524  0.046  -0.398031  -0.844672  0.046563  2.511482  0.064
O  O62  1  0.68905948  0.00667333  0.94000573  1  -0.900126  -0.063175  2.139879  -0.084  -0.874733  -0.040481  2.493201  -0.058  -0.911396  -0.030842  2.462405  -0.046  -0.398033  -0.844553  -0.046562  2.511388  -0.064
O  O63  1  0.81094773  0.50667971  0.05998662  1  -0.900146  -0.063169  2.139911  -0.084  -0.874741  -0.040475  2.493224  -0.058  -0.911404  -0.030834  2.462418  -0.046  -0.398022  -0.844557  -0.046553  2.511406  -0.064
