# generated using pymatgen
data_CuH16C26S2N4(O2F3)2
_symmetry_space_group_name_H-M   'P 1'
_cell_length_a   8.44079587
_cell_length_b   9.14186105
_cell_length_c   9.52243444
_cell_angle_alpha   113.42216518
_cell_angle_beta   100.89196066
_cell_angle_gamma   90.55254516
_symmetry_Int_Tables_number   1
_chemical_formula_structural   CuH16C26S2N4(O2F3)2
_chemical_formula_sum   'Cu1 H16 C26 S2 N4 O4 F6'
_cell_volume   659.16643564
_cell_formula_units_Z   1
loop_
 _symmetry_equiv_pos_site_id
 _symmetry_equiv_pos_as_xyz
  1  'x, y, z'
loop_
 _atom_site_type_symbol
 _atom_site_label
 _atom_site_symmetry_multiplicity
 _atom_site_fract_x
 _atom_site_fract_y
 _atom_site_fract_z
 _atom_site_occupancy
 _atom_site_hle17_ddec_charge
 _atom_site_hle17_ddec_spin_density
 _atom_site_hle17_ddec_sum_bond_order
 _atom_site_hle17_magmom
 _atom_site_hse06_10hf_ddec_charge
 _atom_site_hse06_10hf_ddec_spin_density
 _atom_site_hse06_10hf_ddec_sum_bond_order
 _atom_site_hse06_10hf_magmom
 _atom_site_hse06_ddec_charge
 _atom_site_hse06_ddec_spin_density
 _atom_site_hse06_ddec_sum_bond_order
 _atom_site_hse06_magmom
 _atom_site_pbe_cm5_charge
 _atom_site_pbe_ddec_charge
 _atom_site_pbe_ddec_spin_density
 _atom_site_pbe_ddec_sum_bond_order
 _atom_site_pbe_magmom
Cu  Cu0  1  0.00000036  0.00000099  0.50000543  1  0.908317  -0.705304  1.824098  -0.534  0.90272  -0.801266  2.215287  -0.659  0.990598  -0.869472  2.155536  -0.755  0.714873  0.845203  -0.748594  2.26358  -0.591
H  H1  1  0.98801281  0.50618389  0.77179103  1  0.128517  0.000685  0.990063  0.001  0.130127  0.000299  1.065741  0.0  0.134994  0.000248  1.064426  0.0  0.092  0.126579  0.000315  1.06712  0.0
H  H2  1  0.01199431  0.49382021  0.22820335  1  0.128702  0.000688  0.989764  0.001  0.130151  0.000299  1.06571  0.0  0.135217  0.000248  1.064065  0.0  0.092002  0.126873  0.000315  1.066615  0.0
H  H3  1  0.82695896  0.64928260  0.68442735  1  0.107965  5.1e-05  0.9534  0.0  0.119071  3.7e-05  1.013999  0.0  0.121343  2.7e-05  1.012468  0.0  0.103949  0.117138  4.6e-05  1.015649  0.0
H  H4  1  0.17304742  0.35071307  0.31556993  1  0.108024  5.4e-05  0.953269  0.0  0.119038  3.7e-05  1.013997  0.0  0.12143  2.7e-05  1.012281  0.0  0.103933  0.117291  4.6e-05  1.015311  0.0
H  H5  1  0.60861725  0.74252758  0.50976354  1  0.103212  -0.000221  0.960362  0.0  0.111817  -0.000152  1.023228  0.0  0.113498  -9.1e-05  1.024747  0.0  0.100238  0.110548  -0.000213  1.022423  0.0
H  H6  1  0.39138542  0.25746682  0.49023790  1  0.10319  -0.00022  0.960436  0.0  0.111792  -0.000152  1.023306  0.0  0.113476  -9.1e-05  1.024816  0.0  0.100234  0.110524  -0.000213  1.022507  0.0
H  H7  1  0.63341692  0.11957754  0.55788802  1  0.071053  7e-05  0.947555  0.0  0.079334  8e-05  1.012284  0.0  0.081526  7.3e-05  1.01123  0.0  0.109864  0.077794  7.2e-05  1.013356  0.0
H  H8  1  0.36658617  0.88042168  0.44211221  1  0.071052  7.3e-05  0.94758  0.0  0.079324  8e-05  1.012316  0.0  0.081515  7.3e-05  1.011266  0.0  0.109857  0.077784  7.2e-05  1.013388  0.0
H  H9  1  0.43264437  0.12502425  0.72728771  1  0.133703  -9e-05  0.957455  0.0  0.139315  -6.5e-05  1.023429  0.0  0.144104  -2.6e-05  1.020675  0.0  0.109041  0.135724  -0.000107  1.025456  0.0
H  H10  1  0.56735509  0.87497498  0.27270877  1  0.133723  -8.8e-05  0.957364  0.0  0.13931  -6.5e-05  1.023381  0.0  0.144117  -2.6e-05  1.020593  0.0  0.10904  0.135718  -0.000107  1.0254  0.0
H  H11  1  0.79505554  0.94961841  0.98980872  1  0.121494  1.8e-05  0.964506  0.0  0.122907  1.7e-05  1.03853  0.0  0.127508  1.6e-05  1.035076  0.0  0.106938  0.119207  2.2e-05  1.04231  0.0
H  H12  1  0.20493451  0.05038310  0.01019445  1  0.121635  1.6e-05  0.964238  0.0  0.122873  1.7e-05  1.038519  0.0  0.12768  1.6e-05  1.034758  0.0  0.106924  0.119467  2.2e-05  1.041803  0.0
H  H13  1  0.97930719  0.94871419  0.80734103  1  0.079802  0.000125  0.937055  0.0  0.088534  0.000143  0.999504  0.0  0.091749  0.000117  0.996629  0.0  0.113217  0.086202  0.000151  1.001572  0.0
H  H14  1  0.02068890  0.05128731  0.19266734  1  0.079696  0.000127  0.937058  0.0  0.088438  0.000143  0.999492  0.0  0.091643  0.000118  0.996634  0.0  0.113158  0.086083  0.000151  1.001635  0.0
H  H15  1  0.49746551  0.50609339  0.23114651  1  0.130956  2.9e-05  0.954751  0.0  0.136662  3.5e-05  1.017899  0.0  0.140565  2.6e-05  1.014482  0.0  0.104157  0.133846  4e-05  1.020337  0.0
H  H16  1  0.50253396  0.49390581  0.76885311  1  0.130948  3e-05  0.954768  0.0  0.136671  3.5e-05  1.01789  0.0  0.140543  2.6e-05  1.014527  0.0  0.104175  0.133817  4e-05  1.020447  0.0
C  C17  1  0.20630720  0.38948877  0.92701799  1  0.723101  -0.008627  3.613111  -0.01  0.64895  -0.005657  3.950673  -0.007  0.677462  -0.003696  3.922293  -0.005  0.299831  0.628554  -0.007401  3.971255  -0.009
C  C18  1  0.79369542  0.61051885  0.07298227  1  0.722514  -0.008623  3.614032  -0.01  0.648925  -0.005657  3.950608  -0.007  0.677009  -0.003696  3.923051  -0.005  0.299799  0.627815  -0.007401  3.972679  -0.009
C  C19  1  0.11324577  0.30177393  0.75638143  1  0.234555  0.009415  3.899482  0.009  0.224321  0.002627  4.170165  0.003  0.24798  0.003051  4.180409  0.003  0.091143  0.208295  0.00179  4.163012  0.003
C  C20  1  0.88675129  0.69822523  0.24362093  1  0.234594  0.009383  3.89973  0.009  0.224459  0.002626  4.170196  0.003  0.247946  0.003049  4.180753  0.003  0.091171  0.208069  0.00179  4.163824  0.003
C  C21  1  0.00024595  0.38306996  0.69738363  1  -0.363831  -0.005236  3.761238  -0.008  -0.409551  -0.001721  4.041555  -0.004  -0.434571  -0.000286  4.06375  -0.002  -0.151769  -0.393186  -0.003163  4.027249  -0.005
C  C22  1  0.99975352  0.61692923  0.30261599  1  -0.363883  -0.005223  3.761132  -0.008  -0.409697  -0.00172  4.041554  -0.004  -0.434641  -0.000285  4.063633  -0.002  -0.151808  -0.393264  -0.003162  4.027  -0.005
C  C23  1  0.90282554  0.31480674  0.54391599  1  0.432402  0.007255  3.826169  0.007  0.420468  0.001687  4.091013  0.002  0.45307  0.002254  4.093614  0.002  0.119024  0.398167  0.00088  4.088535  0.002
C  C24  1  0.09717603  0.68518887  0.45608364  1  0.432418  0.007242  3.826235  0.007  0.420623  0.001684  4.090909  0.002  0.453229  0.002253  4.093494  0.002  0.11908  0.398303  0.000878  4.088456  0.002
C  C25  1  0.79384675  0.41335702  0.49022450  1  -0.131233  -0.010657  3.749532  -0.012  -0.109436  -0.005681  4.003635  -0.007  -0.119844  -0.003875  4.026739  -0.005  -0.029575  -0.102643  -0.007272  3.988345  -0.009
C  C26  1  0.20615711  0.58663745  0.50976981  1  -0.131366  -0.010633  3.749644  -0.012  -0.10964  -0.00568  4.00377  -0.007  -0.120041  -0.003875  4.026868  -0.005  -0.029693  -0.10281  -0.007272  3.988465  -0.009
C  C27  1  0.76530781  0.57239532  0.56582813  1  -0.068481  0.001919  3.72149  0.001  -0.100453  0.000328  3.980504  0.0  -0.096697  0.000692  3.999349  0.0  -0.093112  -0.102431  0.0001  3.967831  -0.001
C  C28  1  0.23469485  0.42759912  0.43416911  1  -0.068349  0.001884  3.72138  0.001  -0.100301  0.000326  3.980452  0.0  -0.096541  0.00069  3.999238  0.0  -0.093009  -0.102214  9.9e-05  3.967517  -0.001
C  C29  1  0.64768309  0.62245303  0.47197637  1  -0.080849  -0.000938  3.78424  -0.001  -0.098268  -0.00024  4.048698  0.0  -0.103454  -0.000238  4.072479  0.0  -0.108526  -0.094996  -0.000307  4.032568  0.0
C  C30  1  0.35231968  0.37754259  0.52802346  1  -0.080844  -0.000933  3.784167  -0.001  -0.098249  -0.00024  4.048565  0.0  -0.103452  -0.000238  4.072405  0.0  -0.108509  -0.094976  -0.000307  4.032463  0.0
C  C31  1  0.58803133  0.50143457  0.32636798  1  -0.147307  0.002065  3.677003  0.001  -0.166951  0.00098  3.959693  0.0  -0.165709  0.001195  3.976693  0.001  -0.094228  -0.167497  0.000864  3.948151  0.0
C  C32  1  0.41197165  0.49856348  0.67362862  1  -0.147336  0.002042  3.676922  0.001  -0.166967  0.000977  3.959587  0.0  -0.165738  0.001193  3.976598  0.001  -0.094254  -0.167535  0.000862  3.948113  0.0
C  C33  1  0.66432618  0.08277739  0.65491253  1  0.122325  0.000309  3.737374  0.0  0.103006  0.000238  3.991268  0.0  0.109071  0.000198  4.008676  0.0  0.041984  0.099201  0.000316  3.978788  0.0
C  C34  1  0.33567570  0.91722182  0.34508749  1  0.12236  0.000235  3.73744  0.0  0.103062  0.000239  3.991327  0.0  0.109122  0.000193  4.008741  0.0  0.042034  0.099255  0.000316  3.978855  0.0
C  C35  1  0.55381197  0.08714961  0.74796671  1  -0.17471  -0.000185  3.666298  0.0  -0.193855  -4.5e-05  3.909322  0.0  -0.200619  -4.1e-05  3.927339  0.0  -0.078198  -0.187611  2.7e-05  3.89542  0.0
C  C36  1  0.44618509  0.91284958  0.25203146  1  -0.174753  -0.000147  3.666223  0.0  -0.193927  -4.7e-05  3.909293  0.0  -0.200685  -3.6e-05  3.927289  0.0  -0.078206  -0.187684  2.7e-05  3.895392  0.0
C  C37  1  0.60149106  0.03756913  0.86985540  1  0.191973  0.000231  3.816266  0.0  0.192603  0.000176  4.069171  0.0  0.197628  0.000153  4.090329  0.0  0.097417  0.190303  0.00029  4.054016  0.0
C  C38  1  0.39850479  0.96243006  0.13014257  1  0.192103  0.000171  3.816014  0.0  0.192775  0.000178  4.068848  0.0  0.197777  0.000146  4.090064  0.0  0.097502  0.190477  0.00029  4.053711  0.0
C  C39  1  0.75696793  0.98761568  0.89480811  1  -0.183073  -0.000167  3.686523  0.0  -0.201666  -1.5e-05  3.930797  0.0  -0.209083  -4e-05  3.95164  0.0  -0.082625  -0.199134  0.000144  3.918996  0.0
C  C40  1  0.24302694  0.01238586  0.10519482  1  -0.18308  -0.000114  3.686277  0.0  -0.201729  -1.6e-05  3.930766  0.0  -0.209095  -3.7e-05  3.951408  0.0  -0.082648  -0.19906  0.000144  3.918496  0.0
C  C41  1  0.85761951  0.98810363  0.79506895  1  0.131145  0.000318  3.719498  0.0  0.110696  0.000288  3.972753  0.0  0.116523  0.000244  3.989849  0.0  0.043462  0.107539  0.000318  3.961417  0.0
C  C42  1  0.14237668  0.01189909  0.20493675  1  0.131205  0.000247  3.719678  0.0  0.110823  0.000288  3.972786  0.0  0.116575  0.00024  3.990043  0.0  0.043488  0.107612  0.000318  3.961637  0.0
S  S43  1  0.67448053  0.32758583  0.30350118  1  0.182401  0.000398  2.65044  0.001  0.180921  4.7e-05  2.983138  0.0  0.179655  0.000191  2.993017  0.0  0.094144  0.181419  -0.000181  2.977008  0.0
S  S44  1  0.32551994  0.67241097  0.69649872  1  0.182417  0.000397  2.650407  0.001  0.180949  4.8e-05  2.983127  0.0  0.179677  0.000191  2.993001  0.0  0.094148  0.181435  -0.00018  2.977009  0.0
N  N45  1  0.81302744  0.03442250  0.67690873  1  -0.321139  0.001901  3.193499  0.0  -0.284623  0.0019  3.474112  0.0  -0.300454  0.002205  3.49101  0.001  -0.320327  -0.274923  0.001623  3.463469  0.0
N  N46  1  0.18697204  0.96557666  0.32309508  1  -0.321229  0.001964  3.193622  0.0  -0.284686  0.0019  3.474164  0.0  -0.300542  0.002208  3.491122  0.001  -0.320363  -0.275009  0.001623  3.463614  0.0
N  N47  1  0.49018605  0.04767177  0.96666592  1  -0.126849  5.7e-05  2.982194  0.0  -0.105836  0.000162  3.268093  0.0  -0.105297  8.4e-05  3.272977  0.0  -0.128477  -0.107621  0.000814  3.266452  0.0
N  N48  1  0.50980858  0.95232742  0.03333081  1  -0.126781  0.000115  2.982072  0.0  -0.105771  0.000161  3.267901  0.0  -0.105232  9.2e-05  3.272839  0.0  -0.128443  -0.107584  0.000814  3.266369  0.0
O  O49  1  0.90113781  0.16900418  0.44568586  1  -0.512831  -0.078488  2.094096  -0.109  -0.488519  -0.049291  2.373602  -0.075  -0.526808  -0.035391  2.365189  -0.058  -0.302624  -0.461893  -0.05955  2.378963  -0.085
O  O50  1  0.09885742  0.83098775  0.55431759  1  -0.512798  -0.078475  2.094142  -0.109  -0.488568  -0.049285  2.373674  -0.075  -0.526871  -0.035385  2.365256  -0.058  -0.302651  -0.461938  -0.059545  2.379036  -0.085
O  O51  1  0.15045861  0.15838754  0.69155819  1  -0.479221  -0.066523  2.132948  -0.093  -0.461853  -0.044539  2.408496  -0.068  -0.499208  -0.031892  2.404633  -0.053  -0.301451  -0.435941  -0.053724  2.410897  -0.077
O  O52  1  0.84953475  0.84161035  0.30844832  1  -0.479277  -0.066519  2.132984  -0.093  -0.461914  -0.044538  2.408429  -0.068  -0.499293  -0.03189  2.404753  -0.053  -0.30146  -0.436159  -0.053726  2.411285  -0.077
F  F53  1  0.18701882  0.54865216  0.99252148  1  -0.252308  -0.000959  1.17326  -0.001  -0.209546  -0.00081  1.33596  -0.001  -0.219708  -0.00051  1.322484  -0.001  -0.099922  -0.202202  -0.001107  1.345511  -0.002
F  F54  1  0.81298497  0.45135558  0.00746642  1  -0.252197  -0.000958  1.173207  -0.001  -0.209601  -0.00081  1.335818  -0.001  -0.219745  -0.000509  1.32244  -0.001  -0.099963  -0.202541  -0.001107  1.345484  -0.002
F  F55  1  0.15445714  0.32264407  0.01876778  1  -0.265736  -0.000261  1.153173  0.0  -0.219837  -0.000429  1.317642  -0.001  -0.231225  -0.000244  1.303253  0.0  -0.100514  -0.211699  -0.000629  1.327907  -0.001
F  F56  1  0.84555108  0.67737193  0.98123982  1  -0.265443  -0.000262  1.153313  0.0  -0.219823  -0.000429  1.317656  -0.001  -0.230849  -0.000244  1.303349  0.0  -0.100453  -0.207947  -0.000628  1.323628  -0.001
F  F57  1  0.36846301  0.37590421  0.94161530  1  -0.241298  0.000168  1.191214  0.0  -0.209717  0.000233  1.373851  0.0  -0.219381  0.000289  1.357423  0.0  -0.092517  -0.202668  0.00014  1.38532  0.0
F  F58  1  0.63153851  0.62410463  0.05838210  1  -0.241297  0.000169  1.191583  0.0  -0.20968  0.000233  1.3739  0.0  -0.219447  0.000288  1.357749  0.0  -0.092504  -0.203077  0.000141  1.385697  0.0
