# generated using pymatgen
data_CoH17C25N3O4
_symmetry_space_group_name_H-M   'P 1'
_cell_length_a   9.81855117
_cell_length_b   11.36435695
_cell_length_c   25.93188229
_cell_angle_alpha   82.71406386
_cell_angle_beta   79.05327953
_cell_angle_gamma   64.38852211
_symmetry_Int_Tables_number   1
_chemical_formula_structural   CoH17C25N3O4
_chemical_formula_sum   'Co4 H68 C100 N12 O16'
_cell_volume   2558.46964713
_cell_formula_units_Z   4
loop_
 _symmetry_equiv_pos_site_id
 _symmetry_equiv_pos_as_xyz
  1  'x, y, z'
loop_
 _atom_site_type_symbol
 _atom_site_label
 _atom_site_symmetry_multiplicity
 _atom_site_fract_x
 _atom_site_fract_y
 _atom_site_fract_z
 _atom_site_occupancy
 _atom_site_pbe_bader_charge
 _atom_site_pbe_bader_spin_density
 _atom_site_pbe_cm5_charge
 _atom_site_pbe_ddec_charge
 _atom_site_pbe_ddec_spin_density
 _atom_site_pbe_ddec_sum_bond_order
 _atom_site_pbe_magmom
Co  Co0  1  0.58424549  0.89742168  0.82517427  1  1.243677  2.592713  0.665932  0.74681  2.867357  2.501146  2.568
Co  Co1  1  0.69240243  0.39787639  0.32515013  1  1.242176  2.592785  0.666255  0.748307  2.86735  2.498862  2.568
Co  Co2  1  0.30759410  0.60212993  0.67485024  1  1.242091  2.592782  0.666241  0.748287  2.867359  2.499004  2.568
Co  Co3  1  0.41575635  0.10257589  0.17482892  1  1.243892  2.592713  0.665973  0.74697  2.867372  2.500992  2.568
H  H4  1  0.12211053  0.26052496  0.82814836  1  0.098433  0.000585  0.10321  0.107915  0.000327  1.028537  0.0
H  H5  1  0.09433446  0.89331967  0.83179592  1  0.085023  0.000728  0.105519  0.109795  0.000415  1.026658  0.0
H  H6  1  0.69319548  0.24947783  0.81752298  1  0.093429  0.000442  0.102207  0.101964  0.000213  1.039636  0.0
H  H7  1  0.89530419  0.68769750  0.77857790  1  0.121454  0.001705  0.11965  0.103966  0.000444  1.019307  0.001
H  H8  1  0.02825580  0.44630604  0.78225813  1  0.076275  0.000882  0.105696  0.114846  0.000285  1.01729  0.0
H  H9  1  0.59380269  0.43863718  0.84980991  1  0.059668  0.000788  0.101637  0.107279  0.00031  1.032204  0.0
H  H10  1  0.47994650  0.68058377  0.84336188  1  0.172418  0.001279  0.117447  0.100605  0.000222  1.026126  0.001
H  H11  1  0.61986298  0.02747263  0.55560889  1  0.043498  -1.3e-05  0.098852  0.093668  2.1e-05  1.010642  0.0
H  H12  1  0.64255535  0.77435545  0.71736348  1  0.125857  0.001847  0.117068  0.089049  0.000548  1.03224  0.001
H  H13  1  0.65482545  0.84882313  0.62341407  1  0.07724  0.001065  0.107221  0.11506  0.000527  0.994566  0.0
H  H14  1  0.51442008  0.23972439  0.67265653  1  0.113857  0.000848  0.110082  0.130455  0.000415  1.045071  0.0
H  H15  1  0.51829458  0.14508262  0.76485578  1  0.122415  0.001284  0.115807  0.087159  0.000196  1.055192  0.001
H  H16  1  0.58985210  0.28419923  0.59530347  1  0.110359  8e-06  0.109739  0.123523  4e-06  1.009501  0.0
H  H17  1  0.72331204  0.47502340  0.42980759  1  0.093975  0.001291  0.118476  0.093445  0.000126  1.000955  0.001
H  H18  1  0.68879281  0.40679391  0.52518014  1  0.093144  0.000867  0.111651  0.123071  0.000441  0.983186  0.0
H  H19  1  0.53734765  0.13325745  0.48138344  1  0.072296  0.000941  0.102185  0.105051  0.000493  1.011581  0.0
H  H20  1  0.57795083  0.21310649  0.38873309  1  0.1069  0.001569  0.113301  0.082255  0.00031  1.033586  0.001
H  H21  1  0.78819787  0.76106336  0.32806898  1  0.063267  0.000575  0.102921  0.107413  0.000325  1.030121  0.0
H  H22  1  0.17967161  0.39379698  0.33177601  1  0.089819  0.00073  0.105645  0.10966  0.000416  1.02737  0.0
H  H23  1  0.23878613  0.74989737  0.31776562  1  0.057073  0.000464  0.102343  0.10198  0.000217  1.041327  0.0
H  H24  1  0.63796835  0.18844286  0.27838021  1  0.154619  0.001692  0.119727  0.104244  0.000446  1.019179  0.001
H  H25  1  0.74257540  0.94704591  0.28208876  1  0.075592  0.000879  0.105793  0.114555  0.000287  1.016654  0.0
H  H26  1  0.11654955  0.93897396  0.35000481  1  0.03997  0.00081  0.102493  0.108395  0.000312  1.030747  0.0
H  H27  1  0.99518496  0.18095164  0.34345381  1  0.141577  0.00129  0.117306  0.100384  0.000224  1.027099  0.001
H  H28  1  0.79672599  0.52740293  0.05547229  1  0.040882  -1.4e-05  0.098959  0.093851  2.1e-05  1.010395  0.0
H  H29  1  0.86558999  0.27439819  0.21733190  1  0.13109  0.001849  0.116991  0.088707  0.000549  1.032178  0.001
H  H30  1  0.87285647  0.34867927  0.12334404  1  0.059495  0.001067  0.107378  0.11504  0.000528  0.994718  0.0
H  H31  1  0.57374038  0.73984584  0.17250727  1  0.150264  0.000832  0.110118  0.130578  0.000414  1.045261  0.0
H  H32  1  0.57171627  0.64533314  0.26472411  1  0.121051  0.001284  0.116071  0.086883  0.000195  1.055948  0.001
H  H33  1  0.53076124  0.78433708  0.09534159  1  0.119332  1.2e-05  0.109657  0.123426  4e-06  1.00929  0.0
H  H34  1  0.37145889  0.97482170  0.92984297  1  0.11125  0.00131  0.118206  0.093299  0.000127  1.000376  0.001
H  H35  1  0.37895229  0.90696302  0.02523938  1  0.076382  0.000877  0.111308  0.123043  0.000441  0.983216  0.0
H  H36  1  0.84782753  0.63314715  0.98131676  1  0.064591  0.000943  0.102695  0.105695  0.000493  1.011401  0.0
H  H37  1  0.81989779  0.71262279  0.88864886  1  0.135791  0.001579  0.113502  0.082212  0.000307  1.033871  0.001
H  H38  1  0.21180357  0.23894781  0.67192844  1  0.063312  0.000575  0.102913  0.107444  0.000325  1.030077  0.0
H  H39  1  0.82032895  0.60621603  0.66821481  1  0.089423  0.000731  0.105615  0.109578  0.000415  1.027276  0.0
H  H40  1  0.76122198  0.25010874  0.68222082  1  0.057194  0.000463  0.102333  0.102014  0.000217  1.041444  0.0
H  H41  1  0.36203606  0.81155166  0.72161487  1  0.154642  0.001692  0.119735  0.10416  0.000446  1.019279  0.001
H  H42  1  0.25742985  0.05294473  0.71790880  1  0.075661  0.000879  0.105702  0.114451  0.000287  1.016752  0.0
H  H43  1  0.88346575  0.06101951  0.64998571  1  0.040221  0.000811  0.102503  0.108412  0.000312  1.030606  0.0
H  H44  1  0.00481913  0.81904775  0.65654101  1  0.141478  0.00129  0.117314  0.100388  0.000225  1.027078  0.001
H  H45  1  0.20325459  0.47259567  0.94453467  1  0.040805  -1.4e-05  0.098931  0.093805  2.1e-05  1.010407  0.0
H  H46  1  0.13440732  0.72560230  0.78267029  1  0.131137  0.001849  0.117014  0.08873  0.000549  1.032089  0.001
H  H47  1  0.12713512  0.65132020  0.87665592  1  0.059481  0.001067  0.10738  0.115088  0.000528  0.994742  0.0
H  H48  1  0.42625418  0.26015176  0.82749759  1  0.150463  0.000832  0.110077  0.130467  0.000414  1.045267  0.0
H  H49  1  0.42827773  0.35466348  0.73528085  1  0.121019  0.001285  0.116059  0.086857  0.000195  1.055955  0.001
H  H50  1  0.46922671  0.21566550  0.90466963  1  0.119668  1.1e-05  0.109716  0.123524  4e-06  1.009431  0.0
H  H51  1  0.62854536  0.02517095  0.07015840  1  0.111341  0.00131  0.118205  0.093309  0.000127  1.000463  0.001
H  H52  1  0.62104121  0.09304528  0.97476224  1  0.076475  0.000877  0.111327  0.123056  0.000441  0.983167  0.0
H  H53  1  0.15215123  0.36684663  0.01869447  1  0.064838  0.000943  0.102621  0.105692  0.000493  1.011387  0.0
H  H54  1  0.18010634  0.28735730  0.11136173  1  0.135728  0.00158  0.113507  0.08229  0.000307  1.033655  0.001
H  H55  1  0.87790062  0.73945992  0.17185567  1  0.0986  0.000585  0.103222  0.1079  0.000327  1.028535  0.0
H  H56  1  0.90564650  0.10667396  0.16820513  1  0.085399  0.000728  0.105514  0.109789  0.000415  1.026697  0.0
H  H57  1  0.30680553  0.75053630  0.18247739  1  0.093378  0.000442  0.102197  0.101995  0.000213  1.039584  0.0
H  H58  1  0.10469487  0.31232060  0.22142585  1  0.121471  0.001705  0.119629  0.103905  0.000444  1.019315  0.001
H  H59  1  0.97174764  0.55371587  0.21773930  1  0.106825  0.000861  0.105745  0.114866  0.000285  1.017273  0.0
H  H60  1  0.40620563  0.56137895  0.15019290  1  0.059413  0.000788  0.101645  0.10732  0.00031  1.032153  0.0
H  H61  1  0.52005739  0.31942655  0.15664429  1  0.173482  0.001278  0.117448  0.100622  0.000222  1.026077  0.001
H  H62  1  0.38014249  0.97252391  0.44439101  1  0.043308  -1.3e-05  0.098894  0.093757  2.1e-05  1.0106  0.0
H  H63  1  0.35742709  0.22564996  0.28264103  1  0.125885  0.001848  0.117051  0.08906  0.000549  1.032168  0.001
H  H64  1  0.34515665  0.15117448  0.37659207  1  0.077115  0.001065  0.107221  0.115127  0.000527  0.994428  0.0
H  H65  1  0.48561363  0.76026530  0.32734291  1  0.113995  0.000848  0.110067  0.130429  0.000415  1.045073  0.0
H  H66  1  0.48172717  0.85491879  0.23514346  1  0.122316  0.001284  0.115762  0.087056  0.000196  1.055239  0.001
H  H67  1  0.41014170  0.71580212  0.40469121  1  0.11063  8e-06  0.109714  0.123456  4e-06  1.009565  0.0
H  H68  1  0.27669238  0.52497315  0.57019316  1  0.094003  0.00129  0.118459  0.093449  0.000125  1.000811  0.001
H  H69  1  0.31121106  0.59320165  0.47481993  1  0.093003  0.000867  0.111647  0.123069  0.000441  0.983216  0.0
H  H70  1  0.46266944  0.86673021  0.51861075  1  0.073168  0.00094  0.102167  0.104918  0.000493  1.011642  0.0
H  H71  1  0.42207368  0.78688508  0.61126189  1  0.10688  0.001568  0.113351  0.082311  0.00031  1.033631  0.001
C  C72  1  0.89750783  0.27470753  0.82190020  1  -0.019592  0.001844  -0.010586  0.054561  0.000578  4.012466  0.002
C  C73  1  0.05288079  0.20783864  0.82678845  1  0.004229  -0.00367  -0.075777  -0.126901  -0.003939  3.905573  -0.002
C  C74  1  0.12290490  0.07132291  0.83044904  1  -0.117843  0.004749  -0.020075  -0.027905  0.002535  4.015636  0.003
C  C75  1  0.03834674  0.99956699  0.82964248  1  0.018821  -0.003008  -0.075839  -0.105593  -0.003432  3.933916  -0.001
C  C76  1  0.88291957  0.06453571  0.82593015  1  -0.130287  0.00478  -0.019895  -0.026237  0.002461  3.997603  0.004
C  C77  1  0.81366283  0.20121179  0.82189091  1  0.022922  -0.004414  -0.075996  -0.124367  -0.004699  3.905457  -0.003
C  C78  1  0.83315964  0.62858023  0.79452823  1  0.45462  -0.005589  0.043069  0.082124  -0.006009  3.94233  -0.003
C  C79  1  0.90662141  0.49301782  0.79714404  1  -0.013831  0.006125  -0.085712  -0.172259  0.002861  3.947968  0.005
C  C80  1  0.82382252  0.41866250  0.81741828  1  0.047172  -0.011027  0.009527  0.109901  -0.011532  3.987667  -0.007
C  C81  1  0.66638292  0.48880290  0.83354644  1  -0.109726  0.006038  -0.087285  -0.173847  0.002782  3.947655  0.005
C  C82  1  0.60119809  0.62423130  0.83041090  1  0.504059  -0.005922  0.042374  0.092947  -0.006715  3.928177  -0.003
C  C83  1  0.60157360  0.09766863  0.58429588  1  -0.072502  -0.011366  -0.086845  -0.129789  -0.012041  3.977831  -0.006
C  C84  1  0.61964158  0.87600121  0.70600382  1  0.502097  -0.010182  0.047375  0.099537  -0.010528  3.938049  -0.006
C  C85  1  0.62422670  0.91907356  0.65333678  1  -0.024887  0.001909  -0.084239  -0.180615  0.000379  3.929641  0.002
C  C86  1  0.59080153  0.05132779  0.63909500  1  -0.049096  -0.014331  -0.000411  0.139681  -0.014731  4.047839  -0.008
C  C87  1  0.54853628  0.13510358  0.68060483  1  -0.045693  0.002082  -0.087396  -0.188641  0.00077  3.929395  0.002
C  C88  1  0.54823032  0.08391307  0.73191407  1  0.444393  -0.008446  0.036721  0.084683  -0.008735  3.951033  -0.005
C  C89  1  0.59910293  0.21623911  0.56704084  1  0.016768  -0.010808  -0.079142  -0.116032  -0.011566  3.932897  -0.005
C  C90  1  0.28970456  0.00273576  0.83304250  1  1.56852  -0.005649  0.191796  0.531184  -0.00716  4.239146  -0.007
C  C91  1  0.68512254  0.39780712  0.44311669  1  0.467018  -0.013273  0.045069  0.094838  -0.013773  3.949763  -0.008
C  C92  1  0.66488482  0.35973581  0.49604185  1  -0.019375  0.00289  -0.083743  -0.181115  0.000763  3.946065  0.003
C  C93  1  0.61486265  0.25998041  0.51197067  1  -0.054437  -0.017752  0.002256  0.142641  -0.01821  4.039149  -0.011
C  C94  1  0.58227298  0.20723829  0.47199309  1  -0.06489  0.002646  -0.089753  -0.182601  0.000899  3.956515  0.003
C  C95  1  0.60420029  0.25136885  0.42017502  1  0.483542  -0.009988  0.037537  0.083912  -0.010313  3.974918  -0.006
C  C96  1  0.78976292  0.98955946  0.82595409  1  1.5707  -0.00442  0.194066  0.546261  -0.005486  4.227833  -0.005
C  C97  1  0.00480162  0.77527629  0.32200430  1  -0.088502  0.001851  -0.009521  0.056205  0.000581  4.011641  0.002
C  C98  1  0.91147584  0.70837357  0.32679257  1  0.055855  -0.003706  -0.076109  -0.126531  -0.003977  3.906004  -0.002
C  C99  1  0.97435109  0.57185268  0.33043769  1  -0.086272  0.00473  -0.020858  -0.031116  0.00254  4.020442  0.003
C  C100  1  0.13149619  0.50003706  0.32966355  1  -0.029924  -0.003035  -0.075347  -0.10388  -0.003477  3.937256  -0.002
C  C101  1  0.22557411  0.56502678  0.32603974  1  -0.072727  0.004781  -0.01921  -0.025294  0.002467  4.000122  0.004
C  C102  1  0.16216060  0.70171184  0.32206413  1  0.097031  -0.004442  -0.076669  -0.125662  -0.00473  3.908471  -0.003
C  C103  1  0.74311443  0.12924225  0.29440735  1  0.493116  -0.005639  0.043197  0.082792  -0.006027  3.942354  -0.003
C  C104  1  0.80249681  0.99368532  0.29704584  1  -0.099195  0.006194  -0.085815  -0.172962  0.00286  3.943767  0.005
C  C105  1  0.93908452  0.91923517  0.31747707  1  0.023373  -0.011056  0.00951  0.110736  -0.011549  3.983831  -0.007
C  C106  1  0.01022917  0.98924696  0.33366051  1  0.069127  0.005935  -0.088206  -0.175572  0.002784  3.946705  0.005
C  C107  1  0.94324566  0.12469376  0.33047288  1  0.38829  -0.005822  0.042274  0.093345  -0.006728  3.933573  -0.003
C  C108  1  0.71637613  0.59764876  0.08420179  1  -0.048753  -0.011387  -0.086903  -0.130577  -0.012053  3.978506  -0.006
C  C109  1  0.79824142  0.37604335  0.20593523  1  0.464767  -0.01014  0.048072  0.100705  -0.010514  3.936051  -0.006
C  C110  1  0.80329618  0.41903131  0.15324958  1  -0.00723  0.001903  -0.084661  -0.181274  0.000382  3.928493  0.002
C  C111  1  0.71888644  0.55131876  0.13899238  1  -0.021965  -0.014318  -0.000365  0.139963  -0.014733  4.047348  -0.008
C  C112  1  0.63604687  0.63519644  0.18049053  1  -0.114666  0.002067  -0.08757  -0.189301  0.000763  3.930416  0.002
C  C113  1  0.63592139  0.58406949  0.23180329  1  0.444  -0.008397  0.036404  0.085106  -0.008727  3.952211  -0.005
C  C114  1  0.61752203  0.71632795  0.06703090  1  -0.049641  -0.010893  -0.079343  -0.115492  -0.011554  3.931753  -0.005
C  C115  1  0.87365667  0.50323646  0.33298895  1  1.550307  -0.005702  0.191274  0.531434  -0.007166  4.239379  -0.007
C  C116  1  0.47357584  0.89760834  0.94314044  1  0.448955  -0.013302  0.044917  0.094592  -0.013807  3.948471  -0.008
C  C117  1  0.47902186  0.85973998  0.99607240  1  -0.040419  0.002895  -0.083501  -0.181003  0.000776  3.944897  0.003
C  C118  1  0.61292038  0.75997814  0.01196355  1  0.011239  -0.017681  0.002654  0.142507  -0.018234  4.039554  -0.011
C  C119  1  0.73823097  0.70708606  0.97194917  1  -0.06256  0.002641  -0.090119  -0.182791  0.000907  3.956866  0.003
C  C120  1  0.72391658  0.75099641  0.92011898  1  0.453303  -0.010008  0.037173  0.08403  -0.010352  3.974767  -0.006
C  C121  1  0.39375402  0.48998161  0.32599509  1  1.55971  -0.004313  0.194187  0.54685  -0.005479  4.227788  -0.005
C  C122  1  0.99520624  0.22472600  0.67798854  1  -0.087965  0.001851  -0.009594  0.05618  0.000581  4.011316  0.002
C  C123  1  0.08852547  0.29163363  0.67320162  1  0.055857  -0.003709  -0.076056  -0.126536  -0.00398  3.90583  -0.002
C  C124  1  0.02565368  0.42816232  0.66955503  1  -0.086847  0.004729  -0.020783  -0.030992  0.00254  4.02016  0.003
C  C125  1  0.86850523  0.49997207  0.67032820  1  -0.02924  -0.003039  -0.075347  -0.103808  -0.003481  3.936954  -0.002
C  C126  1  0.77441659  0.43498523  0.67394837  1  -0.07258  0.004783  -0.019335  -0.025535  0.002469  4.000006  0.004
C  C127  1  0.83784294  0.29829724  0.67792439  1  0.096576  -0.004444  -0.076591  -0.125601  -0.004732  3.908333  -0.003
C  C128  1  0.25688709  0.87075815  0.70558914  1  0.49311  -0.005644  0.043139  0.082788  -0.006031  3.942403  -0.003
C  C129  1  0.19750264  0.00631508  0.70295080  1  -0.098985  0.006196  -0.08574  -0.172816  0.00286  3.944091  0.005
C  C130  1  0.06092162  0.08076425  0.68251953  1  0.023199  -0.011061  0.009528  0.110673  -0.011555  3.984088  -0.007
C  C131  1  0.98978673  0.01074950  0.66633403  1  0.068976  0.005937  -0.088252  -0.175603  0.002784  3.946715  0.005
C  C132  1  0.05675983  0.87530275  0.66952509  1  0.388326  -0.005825  0.042306  0.093347  -0.006731  3.933505  -0.003
C  C133  1  0.28361571  0.40234590  0.91580306  1  -0.04803  -0.011386  -0.086862  -0.130524  -0.012052  3.978439  -0.006
C  C134  1  0.20175361  0.62395327  0.79407004  1  0.464268  -0.01014  0.048091  0.10069  -0.010513  3.936148  -0.006
C  C135  1  0.19669784  0.58096529  0.84675422  1  -0.007096  0.001905  -0.084665  -0.181243  0.000383  3.928918  0.002
C  C136  1  0.28110261  0.44868373  0.86101298  1  -0.022411  -0.014318  -0.000451  0.139781  -0.014733  4.047423  -0.008
C  C137  1  0.36394737  0.36480604  0.81951484  1  -0.115494  0.002067  -0.08742  -0.18905  0.000764  3.930236  0.002
C  C138  1  0.36406880  0.41593494  0.76820111  1  0.445213  -0.008396  0.036337  0.085046  -0.008727  3.952183  -0.005
C  C139  1  0.38246437  0.28367359  0.93297625  1  -0.050755  -0.010891  -0.079381  -0.115577  -0.011551  3.932055  -0.005
C  C140  1  0.12634604  0.49678058  0.66700920  1  1.55036  -0.005704  0.191354  0.531313  -0.007168  4.23942  -0.007
C  C141  1  0.52642463  0.10238141  0.05686291  1  0.448558  -0.013304  0.044936  0.094592  -0.01381  3.948801  -0.008
C  C142  1  0.52096808  0.14025859  0.00393235  1  -0.039953  0.002898  -0.083582  -0.180997  0.000778  3.944946  0.003
C  C143  1  0.38706763  0.24001165  0.98804224  1  0.01176  -0.017682  0.002671  0.142496  -0.018235  4.03959  -0.011
C  C144  1  0.26175523  0.29289889  0.02805972  1  -0.062934  0.00264  -0.090074  -0.182807  0.000907  3.956939  0.003
C  C145  1  0.27608575  0.24898950  0.07988909  1  0.453401  -0.010007  0.037074  0.083801  -0.01035  3.974737  -0.006
C  C146  1  0.60623240  0.51003056  0.67400373  1  1.559806  -0.004314  0.194085  0.546802  -0.00548  4.22807  -0.005
C  C147  1  0.10250160  0.72529579  0.17809556  1  -0.019536  0.001844  -0.010567  0.054656  0.000578  4.012421  0.002
C  C148  1  0.94712661  0.79215396  0.17321001  1  0.004075  -0.003668  -0.07572  -0.126868  -0.003938  3.905883  -0.002
C  C149  1  0.87710176  0.92866483  0.16955091  1  -0.118033  0.00475  -0.020195  -0.027963  0.002535  4.015925  0.003
C  C150  1  0.96164393  0.00043439  0.17035434  1  0.018723  -0.003007  -0.07582  -0.105475  -0.00343  3.933809  -0.001
C  C151  1  0.11706464  0.93547252  0.17406713  1  -0.130175  0.00478  -0.019806  -0.02632  0.00246  3.997636  0.004
C  C152  1  0.18633592  0.79879642  0.17810494  1  0.022462  -0.004412  -0.076028  -0.124464  -0.004697  3.905413  -0.003
C  C153  1  0.16683928  0.37143393  0.20547383  1  0.455302  -0.005588  0.043082  0.082161  -0.006005  3.942511  -0.003
C  C154  1  0.09338057  0.50699435  0.20285522  1  -0.044753  0.006144  -0.0857  -0.172176  0.00286  3.947853  0.005
C  C155  1  0.17618847  0.58134185  0.18258078  1  0.047531  -0.011021  0.009503  0.1098  -0.011525  3.987471  -0.007
C  C156  1  0.33362925  0.51120537  0.16645386  1  -0.109908  0.006035  -0.087197  -0.173701  0.002781  3.947412  0.005
C  C157  1  0.39880478  0.37577899  0.16959380  1  0.502953  -0.005916  0.042295  0.09274  -0.00671  3.928249  -0.003
C  C158  1  0.39842619  0.90232890  0.41570476  1  -0.072303  -0.011371  -0.086937  -0.129986  -0.012046  3.977984  -0.006
C  C159  1  0.38034584  0.12399830  0.29399836  1  0.50212  -0.010182  0.047412  0.099492  -0.010528  3.938013  -0.006
C  C160  1  0.37576158  0.08092205  0.34666633  1  -0.024581  0.001907  -0.08431  -0.180814  0.000377  3.929667  0.002
C  C161  1  0.40919714  0.94866778  0.36090583  1  -0.049479  -0.014328  -0.000348  0.139823  -0.014727  4.048025  -0.008
C  C162  1  0.45147796  0.86489198  0.31939528  1  -0.045915  0.00208  -0.087387  -0.188671  0.000769  3.929403  0.002
C  C163  1  0.45177786  0.91608642  0.26808663  1  0.444717  -0.008444  0.036769  0.084747  -0.008734  3.951043  -0.005
C  C164  1  0.40089840  0.78375742  0.43295859  1  0.016253  -0.010805  -0.079144  -0.115981  -0.011562  3.932875  -0.005
C  C165  1  0.71029854  0.99724021  0.16695414  1  1.568746  -0.005644  0.191812  0.531034  -0.007158  4.23905  -0.007
C  C166  1  0.31488407  0.60219135  0.55688148  1  0.46706  -0.013274  0.045142  0.094966  -0.013777  3.949533  -0.008
C  C167  1  0.33512050  0.64025680  0.50395675  1  -0.019876  0.00289  -0.083752  -0.181175  0.000763  3.946253  0.003
C  C168  1  0.38514203  0.74000927  0.48802815  1  -0.054017  -0.017756  0.002378  0.142775  -0.018215  4.039017  -0.011
C  C169  1  0.41774050  0.79275038  0.52800362  1  -0.066012  0.002649  -0.089812  -0.182454  0.0009  3.956422  0.003
C  C170  1  0.39582061  0.74862372  0.57982093  1  0.483637  -0.00999  0.037524  0.083833  -0.010315  3.974817  -0.006
C  C171  1  0.21021734  0.01044198  0.17404618  1  1.570537  -0.004421  0.194183  0.546668  -0.005487  4.227628  -0.005
N  N172  1  0.68267688  0.69481508  0.81180910  1  -1.241291  0.072543  -0.326286  -0.244689  0.039999  3.563911  0.058
N  N173  1  0.58480656  0.95599033  0.74533900  1  -1.243417  0.044625  -0.329651  -0.241586  0.024123  3.573827  0.043
N  N174  1  0.65693749  0.34434118  0.40508447  1  -1.198307  0.042331  -0.327686  -0.238171  0.022495  3.587873  0.042
N  N175  1  0.80998117  0.19536875  0.31177378  1  -1.229462  0.072551  -0.326152  -0.245342  0.040032  3.570595  0.058
N  N176  1  0.71365364  0.45612083  0.24525314  1  -1.203136  0.044647  -0.329501  -0.241867  0.024144  3.573908  0.043
N  N177  1  0.59320993  0.84393276  0.90506548  1  -1.185776  0.042356  -0.3275  -0.238051  0.022519  3.588677  0.042
N  N178  1  0.19002225  0.80462775  0.68822396  1  -1.22955  0.072554  -0.326121  -0.24524  0.040034  3.570532  0.058
N  N179  1  0.28634216  0.54388062  0.75474872  1  -1.203116  0.044652  -0.329499  -0.241891  0.024146  3.573853  0.043
N  N180  1  0.40679700  0.15605016  0.09493857  1  -1.185983  0.042357  -0.327362  -0.237894  0.022519  3.588838  0.042
N  N181  1  0.31732090  0.30519715  0.18819392  1  -1.241437  0.072531  -0.326351  -0.244713  0.03999  3.563811  0.058
N  N182  1  0.41518771  0.04401213  0.25466445  1  -1.243418  0.044615  -0.329692  -0.241531  0.024117  3.573931  0.043
N  N183  1  0.34307165  0.65565634  0.59491551  1  -1.197867  0.042334  -0.327754  -0.238302  0.022498  3.587585  0.042
O  O184  1  0.36143092  0.06707270  0.84168696  1  -1.143315  0.093997  -0.304843  -0.520204  0.048847  2.249995  0.082
O  O185  1  0.36126493  0.88110349  0.82512792  1  -1.152122  0.087436  -0.306563  -0.537214  0.045222  2.230343  0.077
O  O186  1  0.64423806  0.05108569  0.83623962  1  -1.140028  0.095069  -0.307706  -0.529732  0.049866  2.320407  0.082
O  O187  1  0.85249842  0.86953621  0.81606348  1  -1.173167  0.062024  -0.309999  -0.55059  0.03175  2.177337  0.053
O  O188  1  0.72887310  0.56751037  0.34159735  1  -1.129334  0.094092  -0.304857  -0.520441  0.048872  2.249383  0.082
O  O189  1  0.93179446  0.38159322  0.32509687  1  -1.155707  0.087507  -0.306273  -0.536495  0.045264  2.228909  0.077
O  O190  1  0.46761489  0.55154775  0.33608004  1  -1.137168  0.094923  -0.308836  -0.531251  0.049884  2.320074  0.082
O  O191  1  0.46084629  0.36988917  0.31622079  1  -1.17188  0.061732  -0.309753  -0.551092  0.031553  2.177512  0.053
O  O192  1  0.27113040  0.43250081  0.65840108  1  -1.129331  0.0941  -0.304881  -0.520385  0.048875  2.249287  0.082
O  O193  1  0.06821028  0.61842388  0.67490537  1  -1.156005  0.087514  -0.306291  -0.536448  0.045268  2.229041  0.077
O  O194  1  0.53237542  0.44846063  0.66392720  1  -1.137035  0.094919  -0.308793  -0.531222  0.049885  2.32036  0.082
O  O195  1  0.53914003  0.63012106  0.68378008  1  -1.171929  0.061741  -0.30967  -0.550958  0.031557  2.177755  0.053
O  O196  1  0.63856879  0.93289950  0.15831939  1  -1.143829  0.09399  -0.304885  -0.520083  0.048843  2.24993  0.082
O  O197  1  0.63874384  0.11886941  0.17486000  1  -1.151937  0.087431  -0.306524  -0.537218  0.04522  2.230377  0.077
O  O198  1  0.35574839  0.94893915  0.16375769  1  -1.13979  0.095089  -0.30779  -0.529966  0.049875  2.320378  0.082
O  O199  1  0.14747656  0.13046327  0.18393727  1  -1.173116  0.062011  -0.310062  -0.550809  0.03174  2.177339  0.053
