# generated using pymatgen
data_NiH11C16N4O7
_symmetry_space_group_name_H-M   'P 1'
_cell_length_a   7.18320154
_cell_length_b   7.51010344
_cell_length_c   14.55661214
_cell_angle_alpha   97.99648807
_cell_angle_beta   99.92598322
_cell_angle_gamma   89.54000612
_symmetry_Int_Tables_number   1
_chemical_formula_structural   NiH11C16N4O7
_chemical_formula_sum   'Ni2 H22 C32 N8 O14'
_cell_volume   765.90116916
_cell_formula_units_Z   2
loop_
 _symmetry_equiv_pos_site_id
 _symmetry_equiv_pos_as_xyz
  1  'x, y, z'
loop_
 _atom_site_type_symbol
 _atom_site_label
 _atom_site_symmetry_multiplicity
 _atom_site_fract_x
 _atom_site_fract_y
 _atom_site_fract_z
 _atom_site_occupancy
 _atom_site_hle17_ddec_charge
 _atom_site_hle17_ddec_spin_density
 _atom_site_hle17_ddec_sum_bond_order
 _atom_site_hle17_magmom
 _atom_site_hse06_10hf_ddec_charge
 _atom_site_hse06_10hf_ddec_spin_density
 _atom_site_hse06_10hf_ddec_sum_bond_order
 _atom_site_hse06_10hf_magmom
 _atom_site_hse06_ddec_charge
 _atom_site_hse06_ddec_spin_density
 _atom_site_hse06_ddec_sum_bond_order
 _atom_site_hse06_magmom
 _atom_site_pbe_cm5_charge
 _atom_site_pbe_ddec_charge
 _atom_site_pbe_ddec_spin_density
 _atom_site_pbe_ddec_sum_bond_order
 _atom_site_pbe_magmom
Ni  Ni0  1  0.50000075  0.50000122  0.00000105  1  0.90329  1.771097  2.062346  1.532  0.904703  1.824924  2.45413  1.648  0.987889  1.873471  2.38523  1.728  0.664625  0.835676  1.778377  2.513334  1.573
Ni  Ni1  1  0.99999577  0.00000012  0.99999809  1  0.983594  1.765035  1.792133  1.534  1.010424  1.83161  2.165512  1.661  1.094454  1.882477  2.100183  1.744  0.60917  0.936742  1.782706  2.228883  1.584
H  H2  1  0.29696649  0.13121798  0.97918411  1  0.418166  -0.001068  0.88475  -0.002  0.389825  -0.00032  0.950047  0.0  0.401524  -0.000476  0.933294  -0.001  0.295414  0.381462  -0.000127  0.961903  0.0
H  H3  1  0.70302609  0.86878307  0.02081275  1  0.41828  -0.001068  0.884611  -0.002  0.389942  -0.00032  0.949898  0.0  0.40164  -0.000476  0.933147  -0.001  0.295483  0.381578  -0.000127  0.961754  0.0
H  H4  1  0.09603985  0.94138729  0.77577764  1  0.126904  -5.2e-05  0.950816  0.0  0.133831  -3.7e-05  1.017251  0.0  0.137508  -4.5e-05  1.014587  0.0  0.111458  0.131073  -2.2e-05  1.019215  0.0
H  H5  1  0.90397235  0.05860829  0.22422535  1  0.126838  -5e-05  0.950946  0.0  0.133862  -3.7e-05  1.017206  0.0  0.137535  -4.5e-05  1.014553  0.0  0.111429  0.131083  -2.2e-05  1.019196  0.0
H  H6  1  0.17413061  0.51040922  0.55902321  1  0.101306  2e-06  0.964419  0.0  0.111074  1.3e-05  1.028088  0.0  0.113872  6e-06  1.027001  0.0  0.104649  0.109132  2e-05  1.0288  0.0
H  H7  1  0.82586885  0.48958509  0.44097790  1  0.101237  4e-06  0.964488  0.0  0.11103  1.3e-05  1.028148  0.0  0.113825  6e-06  1.027064  0.0  0.104643  0.109091  2e-05  1.028841  0.0
H  H8  1  0.06778182  0.70417008  0.43754525  1  0.08681  3.9e-05  1.000426  0.0  0.093165  4e-05  1.07235  0.0  0.096036  2.5e-05  1.070865  0.0  0.097111  0.091076  5.7e-05  1.073541  0.0
H  H9  1  0.93221914  0.29582827  0.56245764  1  0.086775  3.7e-05  1.000402  0.0  0.093131  4e-05  1.072353  0.0  0.096006  2.5e-05  1.070859  0.0  0.097093  0.09104  5.7e-05  1.07355  0.0
H  H10  1  0.24944383  0.25628666  0.27056637  1  0.104701  9.8e-05  0.967507  0.0  0.108307  5.4e-05  1.039397  0.0  0.111671  3.1e-05  1.037036  0.0  0.107727  0.105799  8.4e-05  1.041285  0.0
H  H11  1  0.75055596  0.74372109  0.72943433  1  0.10468  9.9e-05  0.967531  0.0  0.108325  5.4e-05  1.039339  0.0  0.111688  3.1e-05  1.036982  0.0  0.107742  0.105815  8.4e-05  1.04123  0.0
H  H12  1  0.37835208  0.43212624  0.42490983  1  0.10133  -9.3e-05  0.934867  0.0  0.114731  -1.1e-05  0.988509  0.0  0.117473  -1.6e-05  0.987969  0.0  0.108958  0.112787  -3e-06  0.989041  0.0
H  H13  1  0.62164484  0.56788020  0.57509191  1  0.101259  -9.7e-05  0.934886  0.0  0.114652  -1.1e-05  0.988585  0.0  0.117393  -1.6e-05  0.988048  0.0  0.108939  0.112708  -3e-06  0.989113  0.0
H  H14  1  0.46015705  0.76162217  0.43223132  1  0.124377  2e-05  0.935039  0.0  0.132555  8e-06  0.994507  0.0  0.136722  0.0  0.99086  0.0  0.11865  0.129575  1.7e-05  0.99715  0.0
H  H15  1  0.53983289  0.23838698  0.56776726  1  0.124394  1.9e-05  0.935089  0.0  0.132612  8e-06  0.994515  0.0  0.13678  0.0  0.990868  0.0  0.118679  0.129632  1.7e-05  0.997157  0.0
H  H16  1  0.00673701  0.14246151  0.65602000  1  0.089041  1.2e-05  1.000888  0.0  0.096867  1.8e-05  1.070565  0.0  0.09968  1.2e-05  1.069324  0.0  0.097808  0.094826  2.6e-05  1.07151  0.0
H  H17  1  0.99327522  0.85753542  0.34398377  1  0.089056  1e-05  1.000823  0.0  0.096853  1.8e-05  1.070505  0.0  0.099669  1.2e-05  1.069256  0.0  0.097808  0.094803  2.6e-05  1.071462  0.0
H  H18  1  0.37416978  0.78204818  0.85091600  1  0.122517  0.000216  0.940113  0.0  0.129745  0.000291  1.004215  0.0  0.132987  0.000206  0.999291  0.0  0.147283  0.127163  0.000373  1.007964  0.0
H  H19  1  0.62583112  0.21794747  0.14908533  1  0.122541  0.000211  0.940197  0.0  0.129769  0.00029  1.004242  0.0  0.133013  0.000206  0.999312  0.0  0.147304  0.127183  0.000373  1.007988  0.0
H  H20  1  0.21149582  0.23885166  0.83022079  1  0.110876  3.7e-05  0.927348  0.0  0.120571  0.000106  0.987409  0.0  0.122826  5.3e-05  0.984402  0.0  0.139649  0.11864  0.000165  0.989908  0.0
H  H21  1  0.78850378  0.76114940  0.16978424  1  0.110912  3.3e-05  0.927344  0.0  0.120567  0.000106  0.987421  0.0  0.122854  5.3e-05  0.984373  0.0  0.13968  0.118637  0.000165  0.989912  0.0
H  H22  1  0.32311439  0.91729830  0.98746359  1  0.411917  -0.000791  0.888773  -0.002  0.384433  -1.3e-05  0.957069  0.0  0.396236  -0.000231  0.940077  0.0  0.293695  0.375971  0.000229  0.969139  0.0
H  H23  1  0.67687959  0.08270274  0.01253408  1  0.411844  -0.000791  0.888838  -0.002  0.384377  -1.3e-05  0.957131  0.0  0.396179  -0.000231  0.94014  0.0  0.293669  0.375912  0.000229  0.969203  0.0
C  C24  1  0.30409452  0.65765077  0.19415168  1  -0.062777  0.002336  3.646257  0.004  -0.062686  0.001697  3.890808  0.003  -0.06242  0.000574  3.90653  0.002  0.010424  -0.06325  0.003076  3.88115  0.005
C  C25  1  0.69590360  0.34234622  0.80584675  1  -0.063177  0.002328  3.64786  0.004  -0.062787  0.001697  3.890895  0.003  -0.062479  0.000574  3.906561  0.002  0.010424  -0.063342  0.003077  3.881233  0.005
C  C26  1  0.25951887  0.75322126  0.10802362  1  0.670141  -0.009871  3.873375  -0.008  0.62095  -0.000253  4.185726  0.0  0.660436  -0.000527  4.173939  0.0  0.222589  0.592501  1.5e-05  4.19221  0.0
C  C27  1  0.74048339  0.24677167  0.89197489  1  0.67009  -0.00987  3.873302  -0.008  0.620953  -0.000254  4.185686  0.0  0.660427  -0.000527  4.173903  0.0  0.222574  0.592499  1.5e-05  4.192173  0.0
C  C28  1  0.02975231  0.94072373  0.53632246  1  0.054202  1.4e-05  3.75434  0.0  0.07012  -4.3e-05  3.978259  0.0  0.06987  -4.5e-05  4.002936  0.0  -0.006986  0.070239  -3.2e-05  3.96152  0.0
C  C29  1  0.97025574  0.05927592  0.46368183  1  0.05418  -6.3e-05  3.754377  0.0  0.070115  -4e-05  3.978239  0.0  0.069843  -4.4e-05  4.002943  0.0  -0.006938  0.070241  -3.2e-05  3.961484  0.0
C  C30  1  0.09499687  0.89289395  0.70150695  1  -0.138164  -0.000161  3.721577  0.0  -0.162663  -8e-05  3.986997  0.0  -0.165581  -9.2e-05  4.006537  0.0  -0.090519  -0.160629  -4.9e-05  3.973804  0.0
C  C31  1  0.90500961  0.10709898  0.29849605  1  -0.138089  -0.000237  3.721797  0.0  -0.162668  -7.7e-05  3.987175  0.0  -0.165586  -9e-05  4.006707  0.0  -0.090429  -0.160614  -4.9e-05  3.973983  0.0
C  C32  1  0.37445303  0.75499957  0.28311815  1  0.053351  0.001674  3.675472  0.002  0.032188  0.001127  3.929286  0.001  0.028793  0.000836  3.950482  0.001  0.078579  0.03418  0.001585  3.915366  0.002
C  C33  1  0.62554247  0.24500550  0.71687925  1  0.045306  0.001677  3.671257  0.002  0.03219  0.001127  3.929382  0.001  0.028779  0.000838  3.950573  0.001  0.078571  0.034183  0.001585  3.91547  0.002
C  C34  1  0.13519386  0.64889111  0.57902791  1  -0.137943  8.4e-05  3.761733  0.0  -0.159321  4.2e-05  4.017035  0.0  -0.162761  1.2e-05  4.038562  0.0  -0.090796  -0.156774  7.8e-05  4.002066  0.0
C  C35  1  0.86480991  0.35110586  0.42097238  1  -0.137818  2.9e-05  3.761766  0.0  -0.159225  4.5e-05  4.017027  0.0  -0.162666  1.4e-05  4.038553  0.0  -0.090741  -0.156674  7.8e-05  4.002054  0.0
C  C36  1  0.26109761  0.47414055  0.19116409  1  -0.07139  0.005953  3.684401  0.008  -0.059515  0.003208  3.924187  0.005  -0.067743  0.002132  3.943901  0.003  -0.005545  -0.054451  0.004479  3.91191  0.006
C  C37  1  0.73890342  0.52585910  0.80883340  1  -0.071405  0.005952  3.684164  0.008  -0.059477  0.003209  3.924087  0.005  -0.067717  0.002133  3.943792  0.003  -0.005519  -0.054409  0.004479  3.911814  0.006
C  C38  1  0.07672955  0.76028407  0.51125089  1  -0.101749  5.6e-05  3.743359  0.0  -0.116999  7e-05  3.982404  0.0  -0.120184  4.7e-05  4.004763  0.0  -0.088236  -0.114707  0.000104  3.96717  0.0
C  C39  1  0.92327427  0.23971560  0.48875234  1  -0.101761  0.000104  3.743321  0.0  -0.117022  6.9e-05  3.982355  0.0  -0.120202  4.7e-05  4.004721  0.0  -0.088285  -0.114733  0.000104  3.967128  0.0
C  C40  1  0.14292976  0.71526570  0.67383877  1  0.161782  0.000463  3.79752  0.001  0.138331  0.0003  4.049985  0.0  0.142465  0.000238  4.072226  0.0  0.093713  0.135849  0.000352  4.034668  0.001
C  C41  1  0.85707538  0.28472992  0.32616360  1  0.161761  0.000499  3.79759  0.001  0.138326  0.000297  4.050049  0.0  0.142467  0.000236  4.072281  0.0  0.093702  0.135848  0.000352  4.034715  0.001
C  C42  1  0.20174911  0.34418976  0.10199902  1  0.665322  -0.01136  3.82059  -0.008  0.626551  -0.002273  4.113998  -0.001  0.665541  -0.001704  4.104668  0.0  0.226046  0.598316  -0.0031  4.119127  -0.002
C  C43  1  0.79825753  0.65580852  0.89799956  1  0.665248  -0.011346  3.820547  -0.008  0.626461  -0.002272  4.114034  -0.001  0.665455  -0.001704  4.104695  0.0  0.225991  0.598226  -0.0031  4.119163  -0.002
C  C44  1  0.28525552  0.39772052  0.27489684  1  -0.023045  -0.002653  3.678398  -0.002  -0.064324  -0.000878  3.952847  -0.001  -0.059905  -0.001  3.967715  -0.001  -0.068499  -0.066982  -0.000745  3.942785  -0.001
C  C45  1  0.71474287  0.60228723  0.72510237  1  -0.023054  -0.002668  3.678065  -0.002  -0.064355  -0.000879  3.952781  -0.001  -0.059925  -0.001  3.967618  -0.001  -0.06856  -0.067022  -0.000744  3.942745  -0.001
C  C46  1  0.35749359  0.49707125  0.36160869  1  -0.049916  0.001998  3.729278  0.002  -0.068304  0.001189  3.997661  0.001  -0.071819  0.000857  4.01634  0.001  -0.081896  -0.066085  0.001707  3.984823  0.002
C  C47  1  0.64250335  0.50293516  0.63839030  1  -0.049883  0.00201  3.729008  0.002  -0.068249  0.001189  3.997545  0.001  -0.071758  0.000857  4.016215  0.001  -0.081899  -0.066027  0.001707  3.984703  0.002
C  C48  1  0.40318238  0.67786614  0.36622592  1  -0.080173  -0.001865  3.713557  -0.001  -0.110925  -0.000429  3.979177  0.0  -0.108348  -0.00068  3.995064  0.0  -0.070966  -0.112289  -0.000184  3.968212  0.0
C  C49  1  0.59681881  0.32214023  0.63377137  1  -0.08064  -0.001869  3.715482  -0.001  -0.110911  -0.000428  3.979124  0.0  -0.108337  -0.00068  3.995017  0.0  -0.070915  -0.112272  -0.000183  3.968163  0.0
C  C50  1  0.04099628  0.00386294  0.63299186  1  -0.089466  6.4e-05  3.715529  0.0  -0.112084  4.8e-05  3.965455  0.0  -0.114918  3.2e-05  3.987635  0.0  -0.090087  -0.110026  6.8e-05  3.950491  0.0
C  C51  1  0.95901884  0.99613666  0.36701303  1  -0.089411  0.000113  3.71562  0.0  -0.112012  4.7e-05  3.965517  0.0  -0.11484  3.2e-05  3.9877  0.0  -0.090105  -0.109953  6.8e-05  3.950531  0.0
C  C52  1  0.31147382  0.64950424  0.82788318  1  0.200178  -0.010226  3.600341  -0.006  0.125175  -0.004101  3.87227  -0.002  0.142727  -0.004421  3.880615  -0.002  0.171489  0.113466  -0.004013  3.866327  -0.002
C  C53  1  0.68852709  0.35049140  0.17211746  1  0.200017  -0.010167  3.600415  -0.006  0.125048  -0.004102  3.872295  -0.002  0.142603  -0.004423  3.880634  -0.002  0.171395  0.11335  -0.004013  3.866342  -0.002
C  C54  1  0.22783447  0.37341342  0.81347127  1  0.214143  -0.005725  3.657963  -0.003  0.161859  -0.001878  3.958851  -0.001  0.175697  -0.002261  3.970301  -0.001  0.150761  0.152478  -0.001589  3.950902  0.0
C  C55  1  0.77216511  0.62658628  0.18653091  1  0.214032  -0.00567  3.65787  -0.003  0.161775  -0.001878  3.958742  -0.001  0.175593  -0.002261  3.970175  -0.001  0.150615  0.152395  -0.00159  3.950786  0.0
N  N56  1  0.33110254  0.50709970  0.87377078  1  -0.38072  0.043733  3.285273  0.071  -0.348619  0.029382  3.606795  0.048  -0.378186  0.023271  3.6212  0.04  -0.352254  -0.32702  0.034201  3.59638  0.053
N  N57  1  0.66889708  0.49290134  0.12623082  1  -0.38064  0.043719  3.285328  0.07  -0.348563  0.029383  3.606834  0.048  -0.378134  0.023272  3.621251  0.04  -0.35221  -0.326961  0.034203  3.596411  0.053
N  N58  1  0.20149754  0.60271276  0.74346925  1  0.013048  0.001312  3.601179  0.002  0.136296  0.000767  3.768353  0.001  0.125296  0.000596  3.791643  0.001  -0.116908  0.141785  0.000945  3.755727  0.002
N  N59  1  0.79850332  0.39728155  0.25653336  1  0.013199  0.001308  3.600885  0.002  0.136381  0.000767  3.768096  0.001  0.125381  0.000595  3.79138  0.001  -0.116839  0.141844  0.000945  3.755516  0.002
N  N60  1  0.42843731  0.94520516  0.29170461  1  0.476291  3.2e-05  3.930913  0.0  0.530494  0.00015  4.1875  0.0  0.551856  9e-06  4.195498  0.0  0.059357  0.516096  0.000436  4.182416  0.001
N  N61  1  0.57155540  0.05480126  0.70829127  1  0.505193  3.4e-05  3.885919  0.0  0.53053  0.00015  4.187431  0.0  0.551894  6e-06  4.195439  0.0  0.059397  0.516134  0.000437  4.182347  0.001
N  N62  1  0.14700940  0.42558796  0.73273649  1  -0.27604  0.004573  2.859593  0.007  -0.273557  0.002156  3.127832  0.003  -0.283635  0.001641  3.143138  0.002  -0.219014  -0.266361  0.002831  3.117729  0.004
N  N63  1  0.85299150  0.57440769  0.26726552  1  -0.276007  0.004554  2.85933  0.007  -0.27351  0.002157  3.127559  0.003  -0.283587  0.001642  3.142871  0.002  -0.21896  -0.266308  0.002831  3.117451  0.004
O  O64  1  0.25306002  0.00692502  0.95041664  1  -0.790711  0.042795  1.949008  0.071  -0.763813  0.029221  2.16431  0.048  -0.792457  0.02188  2.12818  0.039  -0.570449  -0.740216  0.035827  2.189716  0.056
O  O65  1  0.74693393  0.99307469  0.04958094  1  -0.790784  0.042797  1.948951  0.071  -0.763886  0.029222  2.164236  0.048  -0.792528  0.02188  2.128107  0.039  -0.570511  -0.740291  0.035829  2.189649  0.056
O  O66  1  0.37003764  0.73857598  0.04749464  1  -0.610842  0.034195  2.142466  0.06  -0.57519  0.024084  2.408161  0.042  -0.611497  0.017232  2.396888  0.032  -0.299269  -0.546813  0.030737  2.414694  0.051
O  O67  1  0.62996339  0.26142504  0.95250707  1  -0.610796  0.034194  2.142281  0.06  -0.575139  0.024084  2.408087  0.042  -0.611443  0.017232  2.396811  0.032  -0.299227  -0.546753  0.030736  2.41461  0.051
O  O68  1  0.10947194  0.84292282  0.10329786  1  -0.56705  0.048349  2.050327  0.083  -0.547498  0.030263  2.320864  0.053  -0.58407  0.022223  2.311588  0.041  -0.290498  -0.517845  0.037837  2.325966  0.063
O  O69  1  0.89052756  0.15707282  0.89670129  1  -0.567065  0.048346  2.050359  0.083  -0.547453  0.030262  2.320879  0.053  -0.584033  0.022223  2.311617  0.041  -0.290489  -0.517808  0.037834  2.325996  0.063
O  O70  1  0.29305436  0.34480702  0.03357668  1  -0.614251  0.039124  2.144516  0.069  -0.577127  0.027516  2.405225  0.049  -0.614522  0.020196  2.3944  0.038  -0.302082  -0.547947  0.034558  2.411626  0.059
O  O71  1  0.70695227  0.65519126  0.96642327  1  -0.614261  0.039128  2.1445  0.069  -0.577144  0.027516  2.405241  0.049  -0.614537  0.020196  2.39441  0.038  -0.30208  -0.547969  0.034559  2.411648  0.059
O  O72  1  0.44547700  0.03719327  0.37054927  1  -0.345474  0.000342  1.743788  0.001  -0.335392  0.000326  1.931376  0.001  -0.347093  0.000179  1.929302  0.0  -0.122644  -0.327601  0.000677  1.932872  0.001
O  O73  1  0.55451996  0.96281311  0.62944560  1  -0.35535  0.000335  1.729707  0.001  -0.335362  0.000327  1.931301  0.001  -0.347074  0.000179  1.929237  0.0  -0.122626  -0.327567  0.000678  1.932795  0.001
O  O74  1  0.45664415  0.00406602  0.21938357  1  -0.346722  0.000117  1.807464  0.0  -0.331207  0.000277  2.007377  0.0  -0.344791  0.000162  2.005366  0.0  -0.114548  -0.322963  0.000522  2.009427  0.001
O  O75  1  0.54334147  0.99593909  0.78061023  1  -0.356638  0.000127  1.793552  0.0  -0.331311  0.000277  2.00729  0.0  -0.344864  0.000162  2.005212  0.0  -0.114641  -0.323065  0.000522  2.009337  0.001
O  O76  1  0.07374612  0.22984378  0.10237477  1  -0.563487  0.048166  2.023959  0.083  -0.545444  0.029693  2.288787  0.053  -0.580513  0.021071  2.279771  0.04  -0.29108  -0.516699  0.038315  2.293591  0.064
O  O77  1  0.92625214  0.77015859  0.89762474  1  -0.563431  0.04816  2.02403  0.083  -0.545348  0.029693  2.288833  0.053  -0.58043  0.021071  2.279836  0.04  -0.291046  -0.516602  0.038314  2.293634  0.064
