# generated using pymatgen
data_Sn2H18C8O5
_symmetry_space_group_name_H-M   'P 1'
_cell_length_a   7.61828386
_cell_length_b   11.12119377
_cell_length_c   16.34400000
_cell_angle_alpha   103.58883195
_cell_angle_beta   90.00000000
_cell_angle_gamma   90.00000000
_symmetry_Int_Tables_number   1
_chemical_formula_structural   Sn2H18C8O5
_chemical_formula_sum   'Sn8 H72 C32 O20'
_cell_volume   1345.97260976
_cell_formula_units_Z   4
loop_
 _symmetry_equiv_pos_site_id
 _symmetry_equiv_pos_as_xyz
  1  'x, y, z'
loop_
 _atom_site_type_symbol
 _atom_site_label
 _atom_site_symmetry_multiplicity
 _atom_site_fract_x
 _atom_site_fract_y
 _atom_site_fract_z
 _atom_site_occupancy
 _atom_site_hle17_bader_spin_density
 _atom_site_hle17_ddec_charge
 _atom_site_hle17_ddec_spin_density
 _atom_site_hle17_ddec_sum_bond_order
 _atom_site_hle17_magmom
 _atom_site_hse06_10hf_bader_spin_density
 _atom_site_hse06_10hf_ddec_charge
 _atom_site_hse06_10hf_ddec_spin_density
 _atom_site_hse06_10hf_ddec_sum_bond_order
 _atom_site_hse06_10hf_magmom
 _atom_site_hse06_bader_spin_density
 _atom_site_hse06_ddec_charge
 _atom_site_hse06_ddec_spin_density
 _atom_site_hse06_ddec_sum_bond_order
 _atom_site_hse06_magmom
 _atom_site_pbe_bader_charge
 _atom_site_pbe_bader_spin_density
 _atom_site_pbe_cm5_charge
 _atom_site_pbe_ddec_charge
 _atom_site_pbe_ddec_spin_density
 _atom_site_pbe_ddec_sum_bond_order
 _atom_site_pbe_magmom
Sn  Sn0  1  0.27401316  0.50916217  0.16028863  1  0  1.561323  0  2.884995  0  0  1.40225  0  3.395092  0  0  1.455872  0  3.362486  0  1.90277  0  0.62069  1.36512  0  3.417141  0
Sn  Sn1  1  0.72599684  0.50914644  0.66031120  1  0  1.56125  0  2.885044  0  0  1.402204  0  3.395168  0  0  1.455817  0  3.362554  0  1.904138  0  0.620696  1.365072  0  3.417221  0
Sn  Sn2  1  0.17385674  0.20226781  0.21408446  1  0  1.610119  0  2.919679  0  0  1.457511  0  3.424274  0  0  1.509889  0  3.39142  0  1.936192  0  0.614586  1.421546  0  3.446052  0
Sn  Sn3  1  0.82613619  0.20226041  0.71410653  1  0  1.610345  0  2.919255  0  0  1.457839  0  3.423824  0  0  1.51013  0  3.391121  0  1.936441  0  0.614587  1.421871  0  3.44561  0
Sn  Sn4  1  0.31041112  0.19742872  0.01913498  1  0  1.588678  0  2.924013  0  0  1.436901  0  3.426081  0  0  1.487716  0  3.39428  0  1.902886  0  0.620777  1.401684  0  3.447694  0
Sn  Sn5  1  0.68959231  0.19742779  0.51914279  1  0  1.588695  0  2.924139  0  0  1.437006  0  3.426101  0  0  1.487818  0  3.394296  0  1.902944  0  0.620752  1.401789  0  3.447717  0
Sn  Sn6  1  0.24429124  0.88696113  0.06410356  1  0  1.611004  0  2.871461  0  0  1.45299  0  3.385781  0  0  1.508292  0  3.350029  0  1.961355  0  0.620106  1.414771  0  3.4099  0
Sn  Sn7  1  0.75570169  0.88693153  0.56409761  1  0  1.611251  0  2.871155  0  0  1.453168  0  3.385613  0  0  1.508464  0  3.349848  0  1.961292  0  0.620094  1.414979  0  3.409676  0
H  H8  1  0.59046369  0.56561425  0.10493723  1  0  0.154535  0  1.001073  0  0  0.171752  0  1.060049  0  0  0.174246  0  1.061448  0  0.047886  0  0.087691  0.169935  0  1.059176  0
H  H9  1  0.40954762  0.56561148  0.60494718  1  0  0.154433  0  1.001078  0  0  0.171621  0  1.060124  0  0  0.174117  0  1.061524  0  0.047551  0  0.087649  0.169802  0  1.059252  0
H  H10  1  0.61406612  0.52933354  0.20632857  1  0  0.162062  0  0.982233  0  0  0.18136  0  1.035265  0  0  0.184208  0  1.035964  0  0.051187  0  0.090248  0.179313  0  1.034864  0
H  H11  1  0.38594388  0.52932799  0.70633319  1  0  0.161996  0  0.982434  0  0  0.181306  0  1.035436  0  0  0.184153  0  1.036137  0  0.050917  0  0.090225  0.17926  0  1.035033  0
H  H12  1  0.52961797  0.67701423  0.19884037  1  0  0.16667  0  0.996145  0  0  0.183001  0  1.055998  0  0  0.186078  0  1.056456  0  0.101531  0  0.093219  0.180754  0  1.055823  0
H  H13  1  0.47039334  0.67700221  0.69885191  1  0  0.16675  0  0.996059  0  0  0.183074  0  1.055904  0  0  0.186149  0  1.056368  0  0.10189  0  0.093283  0.180828  0  1.055728  0
H  H14  1  0.94485322  0.57253940  0.12402099  1  0  0.161833  0  0.988823  0  0  0.180581  0  1.044241  0  0  0.183253  0  1.045335  0  0.062094  0  0.090343  0.178658  0  1.043556  0
H  H15  1  0.05513840  0.57254865  0.62403471  1  0  0.16174  0  0.988904  0  0  0.180523  0  1.044309  0  0  0.183193  0  1.045406  0  0.061984  0  0.090346  0.178598  0  1.043623  0
H  H16  1  0.02262977  0.67732136  0.21763641  1  0  0.160614  0  0.992298  0  0  0.180341  0  1.046869  0  0  0.182778  0  1.048234  0  0.037616  0  0.092264  0.178543  0  1.046053  0
H  H17  1  0.97735791  0.67732413  0.71764604  1  0  0.160579  0  0.992336  0  0  0.180319  0  1.046904  0  0  0.182754  0  1.048272  0  0.037333  0  0.092285  0.178519  0  1.046093  0
H  H18  1  0.94788539  0.52621417  0.22256262  1  0  0.161156  0  0.993364  0  0  0.178063  0  1.050633  0  0  0.181021  0  1.051403  0  0.071715  0  0.091258  0.175927  0  1.050189  0
H  H19  1  0.05213116  0.52622990  0.72257370  1  0  0.161044  0  0.993373  0  0  0.177979  0  1.050623  0  0  0.180937  0  1.051391  0  0.071767  0  0.091224  0.175843  0  1.050179  0
H  H20  1  0.63513648  0.24404905  0.96299737  1  0  0.158643  0  1.004493  0  0  0.177561  0  1.059997  0  0  0.180306  0  1.060978  0  0.048223  0  0.089746  0.175556  0  1.059442  0
H  H21  1  0.36488008  0.24405830  0.46300190  1  0  0.158681  0  1.004498  0  0  0.177638  0  1.05996  0  0  0.180384  0  1.060941  0  0.048348  0  0.089783  0.175632  0  1.059408  0
H  H22  1  0.65197361  0.16132192  0.04408570  1  0  0.158558  0  0.986181  0  0  0.178781  0  1.039406  0  0  0.181495  0  1.040264  0  0.069657  0  0.091299  0.176849  0  1.038874  0
H  H23  1  0.34801670  0.16133025  0.54408948  1  0  0.158557  0  0.986229  0  0  0.178817  0  1.039409  0  0  0.181534  0  1.040263  0  0.050147  0  0.091296  0.176885  0  1.038877  0
H  H24  1  0.60676789  0.32375949  0.07133129  1  0  0.15467  0  0.996926  0  0  0.173954  0  1.05349  0  0  0.176416  0  1.05466  0  0.040834  0  0.090298  0.172169  0  1.05277  0
H  H25  1  0.39323948  0.32376689  0.57133737  1  0  0.154719  0  0.996963  0  0  0.174002  0  1.05352  0  0  0.176467  0  1.054683  0  0.040819  0  0.090288  0.172218  0  1.0528  0
H  H26  1  0.11063778  0.25241177  0.89609461  1  0  0.163235  0  0.997157  0  0  0.17922  0  1.05807  0  0  0.18258  0  1.058019  0  0.078328  0  0.09046  0.176776  0  1.058258  0
H  H27  1  0.88934728  0.25240160  0.39610216  1  0  0.163127  0  0.997322  0  0  0.179103  0  1.058271  0  0  0.182459  0  1.058222  0  0.078126  0  0.090381  0.176659  0  1.058458  0
H  H28  1  0.99083339  0.28008184  0.99230427  1  0  0.162542  0  0.976524  0  0  0.18181  0  1.030822  0  0  0.184508  0  1.031843  0  0.058304  0  0.091091  0.179861  0  1.030215  0
H  H29  1  0.00916479  0.28007351  0.49230783  1  0  0.162433  0  0.976497  0  0  0.181694  0  1.030831  0  0  0.184391  0  1.031848  0  0.058002  0  0.091048  0.179748  0  1.030219  0
H  H30  1  0.01560325  0.12445471  0.92953527  1  0  0.16732  0  0.979682  0  0  0.183877  0  1.03701  0  0  0.187052  0  1.037366  0  0.062692  0  0.091386  0.18157  0  1.036879  0
H  H31  1  0.98439230  0.12444638  0.42953822  1  0  0.167321  0  0.979717  0  0  0.183882  0  1.037039  0  0  0.187057  0  1.037395  0  0.062607  0  0.091426  0.181576  0  1.036909  0
H  H32  1  0.83073434  0.19528808  0.25552978  1  0  0.161912  0  0.988032  0  0  0.182368  0  1.040958  0  0  0.185097  0  1.042072  0  0.062306  0  0.092598  0.180388  0  1.040294  0
H  H33  1  0.16928878  0.19529733  0.75552392  1  0  0.161834  0  0.988125  0  0  0.182371  0  1.040941  0  0  0.185099  0  1.042058  0  0.062578  0  0.09263  0.180389  0  1.040277  0
H  H34  1  0.86030530  0.12891360  0.14542005  1  0  0.14889  0  1.004127  0  0  0.167937  0  1.060992  0  0  0.1708  0  1.061584  0  0.044612  0  0.088063  0.165874  0  1.060698  0
H  H35  1  0.13969682  0.12892932  0.64541339  1  0  0.148937  0  1.004162  0  0  0.167994  0  1.061015  0  0  0.170856  0  1.061605  0  0.044647  0  0.088054  0.16593  0  1.060721  0
H  H36  1  0.86135147  0.29395526  0.18398443  1  0  0.155914  0  0.982588  0  0  0.175772  0  1.03692  0  0  0.178449  0  1.037902  0  0.063647  0  0.090073  0.173838  0  1.036343  0
H  H37  1  0.13861521  0.29397377  0.68398372  1  0  0.155889  0  0.982594  0  0  0.175745  0  1.036955  0  0  0.178431  0  1.037923  0  0.063899  0  0.090061  0.173813  0  1.036374  0
H  H38  1  0.39071398  0.17091870  0.33932346  1  0  0.158612  0  1.012209  0  0  0.175945  0  1.070395  0  0  0.178985  0  1.071087  0  0.063608  0  0.088879  0.173717  0  1.070091  0
H  H39  1  0.60925401  0.17091685  0.83932868  1  0  0.15873  0  1.01214  0  0  0.176051  0  1.07032  0  0  0.179099  0  1.070997  0  0.063628  0  0.088927  0.173822  0  1.070021  0
H  H40  1  0.47356728  0.29115505  0.29255046  1  0  0.159214  0  0.982567  0  0  0.177767  0  1.038111  0  0  0.180418  0  1.039319  0  0.051801  0  0.089953  0.175848  0  1.037362  0
H  H41  1  0.52643877  0.29114857  0.79255065  1  0  0.159194  0  0.982694  0  0  0.177783  0  1.038186  0  0  0.180438  0  1.039383  0  0.051891  0  0.089979  0.175862  0  1.037445  0
H  H42  1  0.49937100  0.13126237  0.23994570  1  0  0.163819  0  0.975552  0  0  0.184285  0  1.028045  0  0  0.187207  0  1.028815  0  0.037561  0  0.093519  0.18218  0  1.027618  0
H  H43  1  0.50061931  0.13126145  0.73995106  1  0  0.163864  0  0.975509  0  0  0.184317  0  1.02802  0  0  0.187241  0  1.028784  0  0.03755  0  0.093545  0.182212  0  1.027594  0
H  H44  1  0.58288456  0.93715320  0.03791900  1  0  0.153409  0  0.993933  0  0  0.171042  0  1.052278  0  0  0.173881  0  1.052997  0  0.020465  0  0.088399  0.169008  0  1.051877  0
H  H45  1  0.41710050  0.93713562  0.53793271  1  0  0.153478  0  0.993938  0  0  0.171104  0  1.052248  0  0  0.173943  0  1.052965  0  0.020198  0  0.088438  0.169068  0  1.051854  0
H  H46  1  0.52490824  0.79038833  0.97154175  1  0  0.154966  0  0.988474  0  0  0.174207  0  1.044269  0  0  0.176443  0  1.045955  0  0.051257  0  0.089189  0.172531  0  1.043263  0
H  H47  1  0.47507156  0.79037631  0.47155635  1  0  0.154868  0  0.988593  0  0  0.174105  0  1.044408  0  0  0.176343  0  1.046095  0  0.051408  0  0.089144  0.172431  0  1.043399  0
H  H48  1  0.56927257  0.80333575  0.08134357  1  0  0.165296  0  0.980714  0  0  0.186536  0  1.031885  0  0  0.189185  0  1.033236  0  0.061648  0  0.092048  0.184633  0  1.031034  0
H  H49  1  0.43072299  0.80332650  0.58136045  1  0  0.165232  0  0.980739  0  0  0.18652  0  1.031853  0  0  0.18916  0  1.033205  0  0.061553  0  0.092031  0.184614  0  1.031004  0
H  H50  1  0.90121740  0.94171847  0.08814409  1  0  0.150647  0  1.002866  0  0  0.168992  0  1.06048  0  0  0.171788  0  1.061229  0  0.030269  0  0.087106  0.166973  0  1.060087  0
H  H51  1  0.09876765  0.94173327  0.58814585  1  0  0.150611  0  1.002795  0  0  0.168958  0  1.060432  0  0  0.171755  0  1.061178  0  0.030315  0  0.087086  0.166938  0  1.060044  0
H  H52  1  0.94627611  0.80083249  0.11951655  1  0  0.156954  0  0.99385  0  0  0.175276  0  1.052238  0  0  0.177595  0  1.054103  0  0.065521  0  0.088811  0.173566  0  1.051069  0
H  H53  1  0.05372339  0.80084544  0.61951434  1  0  0.156964  0  0.993787  0  0  0.175311  0  1.052159  0  0  0.177627  0  1.054025  0  0.06533  0  0.088811  0.173601  0  1.050996  0
H  H54  1  0.92749235  0.80009242  0.00991585  1  0  0.160479  0  0.983428  0  0  0.180618  0  1.037149  0  0  0.183214  0  1.038362  0  0.07404  0  0.090954  0.178726  0  1.03641  0
H  H55  1  0.07252421  0.80010630  0.50991868  1  0  0.160455  0  0.983522  0  0  0.180636  0  1.03719  0  0  0.183232  0  1.038403  0  0.074059  0  0.090964  0.178741  0  1.036456  0
H  H56  1  0.10459967  0.88417017  0.37316972  1  0  0.149022  0  0.959785  0  0  0.164728  0  1.022372  0  0  0.16799  0  1.020865  0  0.107566  0  0.097688  0.162389  0  1.023476  0
H  H57  1  0.89543264  0.88417664  0.87317627  1  0  0.14892  0  0.959758  0  0  0.164628  0  1.022358  0  0  0.167897  0  1.020848  0  0.107342  0  0.097614  0.162289  0  1.023461  0
H  H58  1  0.32349149  0.94174622  0.38127078  1  0  0.151256  0  0.947321  0  0  0.169519  0  1.006758  0  0  0.172335  0  1.006277  0  0.084696  0  0.102853  0.167534  0  1.007101  0
H  H59  1  0.67653294  0.94175177  0.88127411  1  0  0.151253  0  0.947212  0  0  0.169483  0  1.006705  0  0  0.172295  0  1.006228  0  0.084422  0  0.102826  0.167506  0  1.00704  0
H  H60  1  0.28379751  0.78557422  0.32705576  1  0  0.135496  0  0.95008  0  0  0.152367  0  1.011934  0  0  0.155272  0  1.010639  0  0.067011  0  0.094681  0.150268  0  1.012891  0
H  H61  1  0.71623349  0.78558162  0.82705694  1  0  0.135499  0  0.950041  0  0  0.152333  0  1.011938  0  0  0.15524  0  1.010641  0  0.066308  0  0.094672  0.150234  0  1.012896  0
H  H62  1  0.40675696  0.90409547  0.75777655  1  0  0.147586  0  0.960577  0  0  0.164437  0  1.02144  0  0  0.167366  0  1.020398  0  0.087906  0  0.098993  0.162328  0  1.022231  0
H  H63  1  0.59323597  0.90408066  0.25776990  1  0  0.14747  0  0.960688  0  0  0.164245  0  1.02165  0  0  0.167171  0  1.020614  0  0.08794  0  0.0989  0.162137  0  1.022439  0
H  H64  1  0.18222214  0.95072505  0.76302501  1  0  0.157307  0  0.94743  0  0  0.175644  0  1.006716  0  0  0.178571  0  1.006073  0  0.123966  0  0.105179  0.173585  0  1.007162  0
H  H65  1  0.81776029  0.95070747  0.26302649  1  0  0.157171  0  0.947577  0  0  0.175542  0  1.006842  0  0  0.178471  0  1.006198  0  0.124225  0  0.105114  0.173483  0  1.007288  0
H  H66  1  0.23532465  0.79654104  0.76700961  1  0  0.130879  0  0.955538  0  0  0.150455  0  1.014895  0  0  0.152676  0  1.014322  0  0.007725  0  0.093994  0.148867  0  1.015319  0
H  H67  1  0.76464990  0.79652717  0.26701045  1  0  0.130786  0  0.955538  0  0  0.150379  0  1.014883  0  0  0.152599  0  1.014312  0  0.007569  0  0.093982  0.148794  0  1.015305  0
H  H68  1  0.22775208  0.63119687  0.88273974  1  0  0.142657  0  0.944335  0  0  0.159459  0  1.004625  0  0  0.162335  0  1.003411  0  0.054652  0  0.098811  0.157372  0  1.00553  0
H  H69  1  0.77226841  0.63118114  0.38274641  1  0  0.142548  0  0.944429  0  0  0.159438  0  1.00465  0  0  0.162317  0  1.003428  0  0.054167  0  0.098804  0.157351  0  1.005557  0
H  H70  1  0.19549678  0.46664919  0.86374773  1  0  0.150376  0  0.949044  0  0  0.166609  0  1.010572  0  0  0.169905  0  1.009096  0  0.108623  0  0.101211  0.164262  0  1.011636  0
H  H71  1  0.80451846  0.46663532  0.36375469  1  0  0.150446  0  0.949217  0  0  0.166693  0  1.010737  0  0  0.16999  0  1.009259  0  0.108845  0  0.101292  0.164346  0  1.011799  0
H  H72  1  0.41122385  0.52968785  0.87453744  1  0  0.150527  0  0.955001  0  0  0.166547  0  1.018751  0  0  0.169712  0  1.017419  0  0.095319  0  0.101461  0.164291  0  1.0197  0
H  H73  1  0.58879665  0.52967767  0.37454622  1  0  0.150298  0  0.955068  0  0  0.166365  0  1.018806  0  0  0.169521  0  1.017483  0  0.09482  0  0.101384  0.164113  0  1.01975  0
H  H74  1  0.30425356  0.61088211  0.45984256  1  0  0.13315  0  0.95918  0  0  0.151724  0  1.019866  0  0  0.154166  0  1.018942  0  0.049557  0  0.095632  0.149957  0  1.020569  0
H  H75  1  0.69574199  0.61086824  0.95984402  1  0  0.133111  0  0.959322  0  0  0.151682  0  1.01999  0  0  0.154122  0  1.019067  0  0.049643  0  0.09562  0.149917  0  1.020693  0
H  H76  1  0.25810406  0.45886557  0.47436396  1  0  0.136366  0  0.94739  0  0  0.156755  0  1.006904  0  0  0.159139  0  1.00613  0  0.053356  0  0.100653  0.155074  0  1.007437  0
H  H77  1  0.74187968  0.45886465  0.97438278  1  0  0.136475  0  0.947063  0  0  0.156756  0  1.006743  0  0  0.159139  0  1.005969  0  0.053653  0  0.100693  0.155079  0  1.007273  0
H  H78  1  0.08325628  0.56000179  0.46659991  1  0  0.140793  0  0.950535  0  0  0.163193  0  1.006036  0  0  0.165043  0  1.006067  0  0.070176  0  0.102992  0.16184  0  1.006061  0
H  H79  1  0.91673533  0.55999439  0.96661341  1  0  0.140746  0  0.950764  0  0  0.163152  0  1.006238  0  0  0.165  0  1.006271  0  0.070115  0  0.102994  0.1618  0  1.006262  0
C  C80  1  0.53585034  0.57836925  0.16828085  1  0  -0.713164  0  3.498558  0  0  -0.758602  0  3.732413  0  0  -0.774042  0  3.737941  0  -0.465852  0  -0.323821  -0.747985  0  3.728787  0
C  C81  1  0.46416753  0.57836093  0.66829298  1  0  -0.713009  0  3.498621  0  0  -0.758412  0  3.732421  0  0  -0.773854  0  3.737956  0  -0.466988  0  -0.323814  -0.747795  0  3.728797  0
C  C82  1  0.01415411  0.58015003  0.18361878  1  0  -0.716608  0  3.496811  0  0  -0.761402  0  3.729059  0  0  -0.776869  0  3.734879  0  -0.442841  0  -0.322932  -0.750762  0  3.725223  0
C  C83  1  0.98583751  0.58014911  0.68362842  1  0  -0.716359  0  3.496971  0  0  -0.761196  0  3.729142  0  0  -0.776661  0  3.734966  0  -0.442452  0  -0.322899  -0.750551  0  3.725302  0
C  C84  1  0.58518166  0.23709522  0.02439788  1  0  -0.71046  0  3.491533  0  0  -0.755002  0  3.720384  0  0  -0.770317  0  3.726062  0  -0.44098  0  -0.321407  -0.744443  0  3.716604  0
C  C85  1  0.41482308  0.23709985  0.52440290  1  0  -0.710559  0  3.491684  0  0  -0.755199  0  3.720428  0  0  -0.770516  0  3.726102  0  -0.421548  0  -0.321435  -0.744638  0  3.716648  0
C  C86  1  0.07798213  0.21519858  0.95044506  1  0  -0.709611  0  3.487136  0  0  -0.757061  0  3.724527  0  0  -0.772544  0  3.729441  0  -0.450453  0  -0.320538  -0.746427  0  3.721347  0
C  C87  1  0.92201080  0.21518840  0.45044894  1  0  -0.709392  0  3.48732  0  0  -0.756827  0  3.724667  0  0  -0.772322  0  3.729623  0  -0.449822  0  -0.320444  -0.746196  0  3.721481  0
C  C88  1  0.89650243  0.20551299  0.19806021  1  0  -0.697911  0  3.49351  0  0  -0.746264  0  3.724829  0  0  -0.762112  0  3.731083  0  -0.444132  0  -0.319163  -0.73538  0  3.720676  0
C  C89  1  0.10349838  0.20551299  0.69805776  1  0  -0.6979  0  3.49341  0  0  -0.746337  0  3.724674  0  0  -0.762181  0  3.730916  0  -0.444716  0  -0.319178  -0.735453  0  3.72052  0
C  C90  1  0.41385042  0.19909109  0.28058467  1  0  -0.711194  0  3.491539  0  0  -0.759627  0  3.722607  0  0  -0.7763  0  3.729428  0  -0.417556  0  -0.32319  -0.748195  0  3.718058  0
C  C91  1  0.58613726  0.19908554  0.78059113  1  0  -0.711406  0  3.491581  0  0  -0.759849  0  3.722636  0  0  -0.776527  0  3.729454  0  -0.417701  0  -0.323305  -0.748419  0  3.718095  0
C  C92  1  0.51445970  0.84975812  0.03507396  1  0  -0.710983  0  3.499592  0  0  -0.762272  0  3.736164  0  0  -0.778559  0  3.743336  0  -0.405425  0  -0.325882  -0.751096  0  3.731366  0
C  C93  1  0.48553061  0.84975442  0.53508989  1  0  -0.710956  0  3.499692  0  0  -0.76227  0  3.736244  0  0  -0.778552  0  3.74341  0  -0.405174  0  -0.325838  -0.751095  0  3.731448  0
C  C94  1  0.97039571  0.85314576  0.07176460  1  0  -0.702161  0  3.492867  0  0  -0.754025  0  3.729525  0  0  -0.770134  0  3.736422  0  -0.437723  0  -0.324848  -0.742967  0  3.724959  0
C  C95  1  0.02959722  0.85314854  0.57176198  1  0  -0.702207  0  3.492864  0  0  -0.754139  0  3.72949  0  0  -0.770245  0  3.736372  0  -0.437712  0  -0.324871  -0.74307  0  3.724905  0
C  C96  1  0.20876618  0.47797310  0.34915025  1  0  0.757024  0  3.824689  0  0  0.714827  0  4.116752  0  0  0.748965  0  4.10867  0  1.552393  0  0.227147  0.691659  0  4.121431  0
C  C97  1  0.79123200  0.47795275  0.84916413  1  0  0.757307  0  3.824009  0  0  0.715136  0  4.116089  0  0  0.749273  0  4.107996  0  1.553003  0  0.22732  0.69197  0  4.120773  0
C  C98  1  0.21027570  0.92567573  0.26077387  1  0  0.764231  0  3.806835  0  0  0.718427  0  4.103839  0  0  0.753166  0  4.095105  0  1.542256  0  0.230995  0.694835  0  4.109012  0
C  C99  1  0.78974217  0.92568221  0.76077613  1  0  0.764634  0  3.806613  0  0  0.71869  0  4.103758  0  0  0.75343  0  4.095018  0  1.542604  0  0.231154  0.695093  0  4.108942  0
C  C100  1  0.23056111  0.87973811  0.34007864  1  0  -0.474773  0  3.635486  0  0  -0.546664  0  3.866299  0  0  -0.554906  0  3.867595  0  -0.132909  0  -0.249528  -0.540796  0  3.865291  0
C  C101  1  0.76945938  0.87973996  0.84008077  1  0  -0.474745  0  3.635158  0  0  -0.546573  0  3.866125  0  0  -0.554829  0  3.867416  0  -0.132084  0  -0.249422  -0.540712  0  3.865114  0
C  C102  1  0.28590954  0.93637521  0.88034541  1  0  0.771324  0  3.802151  0  0  0.727921  0  4.0936  0  0  0.762734  0  4.084733  0  1.562336  0  0.23505  0.704264  0  4.098854  0
C  C103  1  0.71405452  0.93636781  0.38034728  1  0  0.771116  0  3.802326  0  0  0.727804  0  4.09365  0  0  0.762617  0  4.084782  0  1.562137  0  0.23505  0.704145  0  4.098908  0
C  C104  1  0.27912717  0.89288905  0.78597332  1  0  -0.471835  0  3.634649  0  0  -0.545992  0  3.86251  0  0  -0.553963  0  3.864014  0  -0.101907  0  -0.247679  -0.540319  0  3.861327  0
C  C105  1  0.72085264  0.89287332  0.28597387  1  0  -0.471508  0  3.634668  0  0  -0.545649  0  3.862508  0  0  -0.553615  0  3.864013  0  -0.102234  0  -0.247578  -0.539975  0  3.861321  0
C  C106  1  0.26849485  0.55447536  0.99028320  1  0  0.753029  0  3.82186  0  0  0.707761  0  4.115622  0  0  0.742267  0  4.107677  0  1.544253  0  0.227964  0.684322  0  4.120201  0
C  C107  1  0.73152171  0.55446704  0.49029043  1  0  0.753267  0  3.821476  0  0  0.70796  0  4.115379  0  0  0.742458  0  4.107428  0  1.543489  0  0.228054  0.68452  0  4.119962  0
C  C108  1  0.27506457  0.54533095  0.89699857  1  0  -0.473528  0  3.642842  0  0  -0.546078  0  3.875849  0  0  -0.554078  0  3.876522  0  -0.139631  0  -0.24663  -0.540378  0  3.875272  0
C  C109  1  0.72495330  0.54532077  0.39700612  1  0  -0.47333  0  3.643147  0  0  -0.545987  0  3.876133  0  0  -0.553984  0  3.876815  0  -0.138939  0  -0.246632  -0.540288  0  3.875552  0
C  C110  1  0.21560368  0.53144827  0.44328132  1  0  -0.45569  0  3.636303  0  0  -0.53085  0  3.863396  0  0  -0.537509  0  3.865238  0  -0.07993  0  -0.242062  -0.526063  0  3.861961  0
C  C111  1  0.78438269  0.53143902  0.94329330  1  0  -0.455742  0  3.636302  0  0  -0.53078  0  3.863484  0  0  -0.537437  0  3.865326  0  -0.080267  0  -0.242069  -0.526001  0  3.862049  0
O  O112  1  0.30690245  0.52820587  0.30259591  1  0  -0.669673  0  1.997602  0  0  -0.597603  0  2.23195  0  0  -0.625869  0  2.223625  0  -1.190728  0  -0.291727  -0.577949  0  2.237026  0
O  O113  1  0.69309704  0.52816609  0.80260057  1  0  -0.669754  0  1.997224  0  0  -0.597706  0  2.23165  0  0  -0.625969  0  2.223322  0  -1.19101  0  -0.291795  -0.578051  0  2.236726  0
O  O114  1  0.25401784  0.32247641  0.13801065  1  0  -1.018936  0  1.837293  0  0  -0.9021  0  2.112308  0  0  -0.934644  0  2.094177  0  -1.260675  0  -0.449665  -0.879453  0  2.124218  0
O  O115  1  0.74598165  0.32245605  0.63801657  1  0  -1.019087  0  1.837311  0  0  -0.902295  0  2.112325  0  0  -0.934813  0  2.094178  0  -1.260737  0  -0.449697  -0.879638  0  2.124211  0
O  O116  1  0.24940000  0.08060129  0.09659248  1  0  -1.028337  0  1.815789  0  0  -0.913071  0  2.092421  0  0  -0.944949  0  2.072781  0  -1.273994  0  -0.446005  -0.890854  0  2.105319  0
O  O117  1  0.75059555  0.08059019  0.59659988  1  0  -1.028452  0  1.815484  0  0  -0.913237  0  2.092125  0  0  -0.94511  0  2.072495  0  -1.273825  0  -0.446012  -0.891022  0  2.105022  0
O  O118  1  0.10805321  0.38660757  0.32191433  1  0  -0.671536  0  1.999624  0  0  -0.604831  0  2.233539  0  0  -0.632477  0  2.226991  0  -1.220363  0  -0.293827  -0.585652  0  2.237434  0
O  O119  1  0.89194760  0.38658815  0.82193509  1  0  -0.671631  0  1.999521  0  0  -0.605033  0  2.233522  0  0  -0.63266  0  2.226961  0  -1.220785  0  -0.293889  -0.585857  0  2.237424  0
O  O120  1  0.10994865  0.01702055  0.26177153  1  0  -0.672874  0  1.993878  0  0  -0.603019  0  2.226449  0  0  -0.630707  0  2.219541  0  -1.214508  0  -0.292144  -0.583819  0  2.230563  0
O  O121  1  0.89006397  0.01703350  0.76177972  1  0  -0.673001  0  1.993818  0  0  -0.603134  0  2.226523  0  0  -0.630821  0  2.21962  0  -1.214439  0  -0.292189  -0.583929  0  2.230632  0
O  O122  1  0.38284607  0.02944715  0.91204320  1  0  -0.675641  0  2.015285  0  0  -0.603347  0  2.250406  0  0  -0.631685  0  2.243389  0  -1.213877  0  -0.29114  -0.583629  0  2.254562  0
O  O123  1  0.61713636  0.02944807  0.41204457  1  0  -0.67554  0  2.015498  0  0  -0.603243  0  2.250517  0  0  -0.631579  0  2.243495  0  -1.213583  0  -0.291068  -0.58353  0  2.254685  0
O  O124  1  0.19144075  0.87971313  0.92401493  1  0  -0.669446  0  2.003585  0  0  -0.599866  0  2.238424  0  0  -0.627796  0  2.229713  0  -1.212249  0  -0.287234  -0.580491  0  2.243745  0
O  O125  1  0.80851411  0.87969000  0.42400633  1  0  -0.669323  0  2.003415  0  0  -0.599882  0  2.238338  0  0  -0.627811  0  2.229626  0  -1.212257  0  -0.287277  -0.580511  0  2.243663  0
O  O126  1  0.29981949  0.87003680  0.19605275  1  0  -0.665915  0  2.007815  0  0  -0.592303  0  2.248064  0  0  -0.620767  0  2.240075  0  -1.201568  0  -0.283328  -0.572532  0  2.252855  0
O  O127  1  0.70021019  0.87003217  0.69605752  1  0  -0.666204  0  2.007987  0  0  -0.592413  0  2.248205  0  0  -0.62083  0  2.240138  0  -1.20171  0  -0.283403  -0.572649  0  2.253014  0
O  O128  1  0.24419017  0.65656071  0.04258094  1  0  -0.669993  0  2.022215  0  0  -0.594398  0  2.257044  0  0  -0.623274  0  2.251193  0  -1.221991  0  -0.276477  -0.574363  0  2.260458  0
O  O129  1  0.75581458  0.65655979  0.54258814  1  0  -0.670278  0  2.022086  0  0  -0.594614  0  2.256927  0  0  -0.623497  0  2.251077  0  -1.221472  0  -0.276581  -0.574588  0  2.260351  0
O  O130  1  0.28778135  0.45447977  0.01672569  1  0  -0.673774  0  2.017655  0  0  -0.596633  0  2.253365  0  0  -0.626853  0  2.247178  0  -1.202454  0  -0.281113  -0.575551  0  2.256726  0
O  O131  1  0.71224046  0.45447884  0.51673717  1  0  -0.673692  0  2.017278  0  0  -0.59664  0  2.253106  0  0  -0.626841  0  2.246928  0  -1.202242  0  -0.281126  -0.575567  0  2.25649  0
