# generated using pymatgen
data_ZnH4C14Br2NO6
_symmetry_space_group_name_H-M   'P 1'
_cell_length_a   11.81312992
_cell_length_b   12.21151525
_cell_length_c   13.25086011
_cell_angle_alpha   84.34811504
_cell_angle_beta   85.84806180
_cell_angle_gamma   87.09230652
_symmetry_Int_Tables_number   1
_chemical_formula_structural   ZnH4C14Br2NO6
_chemical_formula_sum   'Zn2 H8 C28 Br4 N2 O12'
_cell_volume   1895.40291042
_cell_formula_units_Z   2
loop_
 _symmetry_equiv_pos_site_id
 _symmetry_equiv_pos_as_xyz
  1  'x, y, z'
loop_
 _atom_site_type_symbol
 _atom_site_label
 _atom_site_symmetry_multiplicity
 _atom_site_fract_x
 _atom_site_fract_y
 _atom_site_fract_z
 _atom_site_occupancy
 _atom_site_pbe_bader_charge
 _atom_site_pbe_bader_spin_density
 _atom_site_pbe_cm5_charge
 _atom_site_pbe_ddec_charge
 _atom_site_pbe_ddec_spin_density
 _atom_site_pbe_ddec_sum_bond_order
 _atom_site_pbe_magmom
Zn  Zn0  1  0.49703380  0.62097289  0.49001124  1  1.30444  0  0.678675  0.857351  0  2.335794  0
Zn  Zn1  1  0.50298251  0.37902889  0.50999028  1  1.301932  0  0.678673  0.85732  0  2.335835  0
H  H2  1  0.67818249  0.60488417  0.17513331  1  0.071938  0  0.110508  0.120798  0  0.981888  0
H  H3  1  0.32184368  0.39508306  0.82485658  1  0.071953  0  0.1106  0.120969  0  0.981769  0
H  H4  1  0.30140729  0.38356276  0.01334517  1  0.088249  0  0.09436  0.10015  0  1.040356  0
H  H5  1  0.69859944  0.61643402  0.98664586  1  0.087596  0  0.094364  0.100107  0  1.040419  0
H  H6  1  0.40891591  0.75206501  0.64263483  1  0.197028  0  0.128263  0.125798  0  1.010971  0
H  H7  1  0.59104198  0.24795124  0.35736698  1  0.197827  0  0.128196  0.125801  0  1.010968  0
H  H8  1  0.53626905  0.78212689  0.21589647  1  0.622255  0  0.347305  0.396025  0  0.841993  0
H  H9  1  0.46376709  0.21783300  0.78416766  1  0.622671  0  0.347206  0.395767  0  0.842114  0
C  C10  1  0.47983369  0.49136228  0.69807671  1  1.579114  0  0.218657  0.614942  0  4.174892  0
C  C11  1  0.52839939  0.98493553  0.45267246  1  0.058398  0  0.017969  0.011222  0  3.906244  0
C  C12  1  0.28240025  0.51228435  0.49321620  1  1.6926  0  0.221892  0.658228  0  4.248755  0
C  C13  1  0.71760942  0.48771904  0.50677789  1  1.692283  0  0.221994  0.658276  0  4.248646  0
C  C14  1  0.16024173  0.50970279  0.49457429  1  0.115337  0  -0.015245  -0.142339  0  3.866306  0
C  C15  1  0.83976968  0.49028742  0.50541412  1  0.116012  0  -0.015244  -0.14223  0  3.866242  0
C  C16  1  0.05698656  0.50344592  0.49796134  1  -0.292178  0  -0.016239  0.021848  0  4.245532  0
C  C17  1  0.94302916  0.49651301  0.50202517  1  -0.189341  0  -0.016313  0.021636  0  4.245637  0
C  C18  1  0.52602176  0.51215156  0.18801828  1  0.077468  0  -0.021774  -0.070995  0  3.989769  0
C  C19  1  0.47399497  0.48784280  0.81198238  1  0.076843  0  -0.021807  -0.070837  0  3.989464  0
C  C20  1  0.37240686  0.42515073  0.97182133  1  -0.066626  0  -0.097356  -0.130109  0  4.013469  0
C  C21  1  0.52017832  0.50863865  0.30192808  1  1.579047  0  0.218671  0.615022  0  4.174916  0
C  C22  1  0.62761955  0.57482474  0.02817384  1  -0.06632  0  -0.097371  -0.130125  0  4.013522  0
C  C23  1  0.38354527  0.43182685  0.86735304  1  0.00552  0  -0.089236  -0.099592  0  4.000988  0
C  C24  1  0.61647405  0.56815352  0.13264348  1  0.004979  0  -0.089232  -0.099342  0  4.001142  0
C  C25  1  0.55343246  0.53456487  0.86436433  1  -0.146881  0  -0.009093  0.039738  0  3.899572  0
C  C26  1  0.44657466  0.46543686  0.13563304  1  -0.146702  0  -0.009119  0.039695  0  3.899639  0
C  C27  1  0.54694705  0.52810265  0.97274058  1  0.089489  0  -0.009861  0.041219  0  3.981924  0
C  C28  1  0.45307265  0.47188679  0.02725512  1  0.034733  0  -0.009888  0.041196  0  3.981838  0
C  C29  1  0.58614007  0.82631897  0.33764302  1  1.588103  0  0.224881  0.527235  0  4.212208  0
C  C30  1  0.41391073  0.17367808  0.66240210  1  1.589084  0  0.225202  0.527529  0  4.211278  0
C  C31  1  0.57378227  0.07231977  0.38485502  1  -0.042243  0  0.002805  0.038222  0  3.937248  0
C  C32  1  0.42616627  0.92769478  0.61512315  1  -0.042381  0  0.002792  0.038011  0  3.937944  0
C  C33  1  0.55995415  0.17953226  0.40916812  1  0.509158  0  0.047152  0.039955  0  3.90643  0
C  C34  1  0.44004136  0.82047434  0.59083984  1  0.509658  0  0.047191  0.040076  0  3.906615  0
C  C35  1  0.46572287  0.12827219  0.56606615  1  0.594965  0  0.150164  0.11882  0  3.83366  0
C  C36  1  0.53429337  0.87173454  0.43395607  1  0.594538  0  0.150373  0.119136  0  3.833857  0
C  C37  1  0.47157811  0.01507919  0.54732794  1  0.010419  0  0.017885  0.011288  0  3.9066  0
Br  Br38  1  0.32182731  0.39497466  0.21033663  1  -0.047014  0  0.038965  -0.043101  0  1.426649  0
Br  Br39  1  0.67815592  0.60505823  0.78966569  1  -0.047184  0  0.038976  -0.043105  0  1.426684  0
Br  Br40  1  0.65667485  0.05389367  0.26006936  1  0.032385  0  0.096542  0.019121  0  1.424165  0
Br  Br41  1  0.34305116  0.94616398  0.73979531  1  0.032173  0  0.096567  0.019234  0  1.424579  0
N  N42  1  0.49279855  0.79357963  0.50183503  1  -1.223419  0  -0.288645  -0.18122  0  3.449896  0
N  N43  1  0.50723553  0.20642391  0.49819129  1  -1.224417  0  -0.288517  -0.180989  0  3.44964  0
O  O44  1  0.47305528  0.58482738  0.64777467  1  -1.168724  0  -0.308345  -0.554109  0  2.384504  0
O  O45  1  0.50799251  0.83058357  0.26804050  1  -1.105734  0  -0.328223  -0.468289  0  2.260012  0
O  O46  1  0.31876068  0.21589543  0.66938419  1  -1.09479  0  -0.264286  -0.432175  0  2.110054  0
O  O47  1  0.49204676  0.16938623  0.73201432  1  -1.107015  0  -0.328338  -0.468202  0  2.259291  0
O  O48  1  0.52693232  0.41518082  0.35223950  1  -1.168782  0  -0.308351  -0.554108  0  2.384859  0
O  O49  1  0.48878103  0.39808002  0.66266587  1  -1.16269  0  -0.308739  -0.541471  0  2.350483  0
O  O50  1  0.51123674  0.60192754  0.33733281  1  -1.162581  0  -0.308669  -0.541439  0  2.350249  0
O  O51  1  0.32490955  0.60661486  0.48800959  1  -1.134104  0  -0.313034  -0.532592  0  2.253735  0
O  O52  1  0.67510337  0.39338855  0.51198890  1  -1.13403  0  -0.313053  -0.532574  0  2.253786  0
O  O53  1  0.33517259  0.41853604  0.49788502  1  -1.140399  0  -0.308292  -0.535316  0  2.309841  0
O  O54  1  0.66483176  0.58146732  0.50211684  1  -1.140214  0  -0.308274  -0.535311  0  2.309932  0
O  O55  1  0.68130936  0.78414623  0.33064558  1  -1.094425  0  -0.264284  -0.432165  0  2.110218  0
