# generated using pymatgen
data_Gd2CuH28(C10O11)2
_symmetry_space_group_name_H-M   'P 1'
_cell_length_a   6.97930483
_cell_length_b   10.02238521
_cell_length_c   11.40177331
_cell_angle_alpha   107.83832679
_cell_angle_beta   101.72796037
_cell_angle_gamma   98.34782642
_symmetry_Int_Tables_number   1
_chemical_formula_structural   Gd2CuH28(C10O11)2
_chemical_formula_sum   'Gd2 Cu1 H28 C20 O22'
_cell_volume   724.70812772
_cell_formula_units_Z   1
loop_
 _symmetry_equiv_pos_site_id
 _symmetry_equiv_pos_as_xyz
  1  'x, y, z'
loop_
 _atom_site_type_symbol
 _atom_site_label
 _atom_site_symmetry_multiplicity
 _atom_site_fract_x
 _atom_site_fract_y
 _atom_site_fract_z
 _atom_site_occupancy
 _atom_site_hle17_ddec_charge
 _atom_site_hle17_ddec_spin_density
 _atom_site_hle17_ddec_sum_bond_order
 _atom_site_hle17_magmom
 _atom_site_hse06_10hf_ddec_charge
 _atom_site_hse06_10hf_ddec_spin_density
 _atom_site_hse06_10hf_ddec_sum_bond_order
 _atom_site_hse06_10hf_magmom
 _atom_site_hse06_ddec_charge
 _atom_site_hse06_ddec_spin_density
 _atom_site_hse06_ddec_sum_bond_order
 _atom_site_hse06_magmom
 _atom_site_pbe_cm5_charge
 _atom_site_pbe_ddec_charge
 _atom_site_pbe_ddec_spin_density
 _atom_site_pbe_ddec_sum_bond_order
 _atom_site_pbe_magmom
Gd  Gd0  1  0.63425629  0.71591227  0.09840228  1  2.208539  -8e-06  1.721894  0.0  2.133132  8.4e-05  2.054647  0.0  2.180986  4.3e-05  2.008208  0.0  1.459105  2.094961  0.000157  2.093691  0.0
Gd  Gd1  1  0.36574006  0.28408691  0.90159534  1  2.208602  -8e-06  1.721857  0.0  2.133153  8.3e-05  2.054651  0.0  2.180978  4.5e-05  2.008259  0.0  1.4591  2.094923  0.000157  2.093791  0.0
Cu  Cu2  1  0.00000323  0.99999750  0.49999896  1  0.995845  0.692136  1.603446  0.517  0.986728  0.784244  1.974554  0.635  1.077126  0.846446  1.91111  0.719  0.730161  0.923315  0.741088  2.02922  0.582
H  H3  1  0.43366485  0.59141513  0.34435657  1  0.117076  0.00084  0.942819  0.001  0.128201  0.000704  1.007094  0.001  0.129874  0.000462  1.006495  0.001  0.109718  0.126888  0.000867  1.007803  0.001
H  H4  1  0.56633966  0.40858174  0.65564659  1  0.117103  0.000841  0.942779  0.001  0.128257  0.000704  1.007026  0.001  0.129928  0.000462  1.00643  0.001  0.10975  0.126943  0.000867  1.007735  0.001
H  H5  1  0.61134178  0.59214177  0.48020217  1  0.111345  -0.000113  0.93452  0.0  0.130114  0.000117  0.990529  0.0  0.130988  3e-05  0.991596  0.0  0.107144  0.129487  0.000179  0.989987  0.0
H  H6  1  0.38866452  0.40785617  0.51980064  1  0.111372  -0.000117  0.934534  0.0  0.13016  0.000117  0.990526  0.0  0.131043  3e-05  0.991582  0.0  0.107174  0.129531  0.000178  0.989984  0.0
H  H7  1  0.51412230  0.64779244  0.67493572  1  0.129639  2.9e-05  0.96956  0.0  0.142391  -3e-05  1.033351  0.0  0.144482  -2.8e-05  1.03338  0.0  0.10192  0.140819  -1.2e-05  1.033535  0.0
H  H8  1  0.48587707  0.35220660  0.32506748  1  0.129636  3.6e-05  0.969602  0.0  0.142399  -2.9e-05  1.033374  0.0  0.144491  -2.8e-05  1.0334  0.0  0.101938  0.140828  -1.2e-05  1.033558  0.0
H  H9  1  0.32302130  0.75619709  0.70037535  1  0.128454  0.000221  0.989457  0.0  0.138941  0.000157  1.055279  0.0  0.141949  0.000115  1.053699  0.0  0.103604  0.136663  0.000227  1.056703  0.0
H  H10  1  0.67697287  0.24380420  0.29962526  1  0.12844  0.000231  0.989439  0.0  0.138931  0.000157  1.055274  0.0  0.141939  0.000115  1.053694  0.0  0.10358  0.136651  0.000227  1.056708  0.0
H  H11  1  0.98679331  0.53303263  0.19699032  1  0.12547  2e-05  0.931918  0.0  0.136474  1.2e-05  0.997042  0.0  0.139257  1.1e-05  0.995023  0.0  0.116137  0.134495  1.6e-05  0.998492  0.0
H  H12  1  0.01319584  0.46697639  0.80300403  1  0.125312  1.9e-05  0.93208  0.0  0.136321  1.1e-05  0.997282  0.0  0.139088  1.1e-05  0.995254  0.0  0.116086  0.134343  1.6e-05  0.998732  0.0
H  H13  1  0.89413831  0.46825176  0.30631797  1  0.113521  -3.1e-05  0.916584  0.0  0.133221  -2e-05  0.968651  0.0  0.134803  -1.5e-05  0.968508  0.0  0.107399  0.13211  -2.5e-05  0.968819  0.0
H  H14  1  0.10586771  0.53175495  0.69368029  1  0.113527  -3.3e-05  0.916568  0.0  0.133254  -2e-05  0.968639  0.0  0.134816  -1.5e-05  0.968491  0.0  0.107445  0.132143  -2.5e-05  0.968805  0.0
H  H15  1  0.04180343  0.90326351  0.14583330  1  0.451522  2e-05  0.793991  0.0  0.437455  1.3e-05  0.839929  0.0  0.445835  1.5e-05  0.830842  0.0  0.335455  0.431345  1e-05  0.846626  0.0
H  H16  1  0.95819695  0.09673457  0.85416447  1  0.451536  2e-05  0.793975  0.0  0.437466  1.3e-05  0.839922  0.0  0.445846  1.5e-05  0.830835  0.0  0.335479  0.431355  1e-05  0.846621  0.0
H  H17  1  0.06908620  0.85548046  0.26804533  1  0.440181  -0.000214  0.861064  0.0  0.402809  -0.00024  0.936109  0.0  0.414639  -0.000248  0.918154  0.0  0.298989  0.394477  -0.000214  0.948705  0.0
H  H18  1  0.93091814  0.14452082  0.73195381  1  0.44017  -0.000214  0.861084  0.0  0.402801  -0.00024  0.936122  0.0  0.414628  -0.000248  0.918171  0.0  0.299009  0.394469  -0.000214  0.948718  0.0
H  H19  1  0.16407379  0.16915133  0.25841733  1  0.139254  7.4e-05  0.95889  0.0  0.149831  8e-05  1.022315  0.0  0.153913  4.5e-05  1.018935  0.0  0.101057  0.146946  0.000117  1.02468  0.0
H  H20  1  0.83591908  0.83085548  0.74157856  1  0.139237  8.3e-05  0.958908  0.0  0.149834  8e-05  1.022315  0.0  0.153918  4.4e-05  1.018936  0.0  0.101094  0.146953  0.000117  1.024684  0.0
H  H21  1  0.00679819  0.26351484  0.35311265  1  0.125968  -5.6e-05  0.978796  0.0  0.137654  -1.7e-05  1.041979  0.0  0.14089  -2.9e-05  1.040298  0.0  0.095382  0.13537  4e-06  1.043051  0.0
H  H22  1  0.99319831  0.73649409  0.64688515  1  0.125941  -5.5e-05  0.978828  0.0  0.137606  -1.7e-05  1.042045  0.0  0.14084  -2.9e-05  1.040371  0.0  0.095395  0.135323  4e-06  1.043117  0.0
H  H23  1  0.52461757  0.00809626  0.14590278  1  0.459744  -1.8e-05  0.787178  0.0  0.443707  -1.2e-05  0.834226  0.0  0.452025  -1e-05  0.822104  0.0  0.340921  0.437536  -1.4e-05  0.843282  0.0
H  H24  1  0.47538721  0.99190177  0.85409636  1  0.459729  -2e-05  0.78718  0.0  0.443691  -1.1e-05  0.834242  0.0  0.452009  -1e-05  0.822119  0.0  0.340913  0.437521  -1.4e-05  0.843297  0.0
H  H25  1  0.66560537  0.01773525  0.27875519  1  0.443253  7.6e-05  0.851855  0.0  0.411804  0.000127  0.916647  0.0  0.422414  4.7e-05  0.901168  0.0  0.303931  0.404284  0.000222  0.92756  0.0
H  H26  1  0.33440156  0.98226492  0.72124482  1  0.443263  7.4e-05  0.851837  0.0  0.411834  0.000127  0.916593  0.0  0.422443  4.7e-05  0.901116  0.0  0.303919  0.404311  0.000222  0.927508  0.0
H  H27  1  0.23915102  0.56477545  0.10924752  1  0.442254  0.0  0.86166  0.0  0.411978  1e-06  0.924611  0.0  0.422843  -1e-06  0.908762  0.0  0.300725  0.404256  2e-06  0.935844  0.0
H  H28  1  0.76085577  0.43521919  0.89075791  1  0.442337  0.0  0.861537  0.0  0.412046  1e-06  0.924495  0.0  0.422908  -1e-06  0.908648  0.0  0.300768  0.404322  2e-06  0.935729  0.0
H  H29  1  0.29762039  0.71166546  0.23357631  1  0.435907  -1e-05  0.869634  0.0  0.406636  -4e-06  0.930739  0.0  0.417118  0.0  0.915384  0.0  0.298631  0.399141  -6e-06  0.941713  0.0
H  H30  1  0.70238397  0.28832589  0.76643140  1  0.435899  -9e-06  0.869629  0.0  0.406687  -4e-06  0.930646  0.0  0.417165  0.0  0.915295  0.0  0.29865  0.3992  -6e-06  0.941613  0.0
C  C31  1  0.68781074  0.76901432  0.42274317  1  0.733  -0.00894  3.793367  -0.008  0.693411  -0.002962  4.094968  -0.003  0.730647  -0.003488  4.08599  -0.003  0.225371  0.668022  -0.00242  4.099617  -0.003
C  C32  1  0.31219260  0.23098370  0.57725668  1  0.732993  -0.008936  3.79339  -0.008  0.693419  -0.002963  4.094992  -0.003  0.730653  -0.003487  4.086017  -0.003  0.225363  0.668029  -0.00242  4.099632  -0.003
C  C33  1  0.52845729  0.65995392  0.43934557  1  -0.295088  0.00936  3.708807  0.01  -0.337399  0.005796  3.937778  0.006  -0.343079  0.003982  3.947512  0.004  -0.157052  -0.333592  0.00725  3.931634  0.008
C  C34  1  0.47154721  0.34004296  0.56065672  1  -0.295144  0.009362  3.708905  0.01  -0.337525  0.005796  3.937884  0.006  -0.34321  0.003981  3.947619  0.004  -0.157107  -0.333722  0.00725  3.931737  0.008
C  C35  1  0.40646615  0.72609543  0.52661828  1  0.012347  0.008747  3.747493  0.009  0.041146  0.005287  3.984483  0.006  0.034302  0.004048  4.00621  0.004  -0.019809  0.045318  0.006301  3.970144  0.006
C  C36  1  0.59353690  0.27390145  0.47338472  1  0.012188  0.008863  3.747571  0.009  0.041083  0.005286  3.984504  0.006  0.034235  0.004048  4.006236  0.004  -0.019814  0.045266  0.006301  3.970166  0.006
C  C37  1  0.26768590  0.81095507  0.48006850  1  0.660096  -0.005326  3.832901  -0.006  0.607325  -0.001441  4.128443  -0.002  0.64447  -0.001936  4.120992  -0.002  0.223753  0.582284  -0.000912  4.132218  -0.002
C  C38  1  0.73231812  0.18904089  0.51992645  1  0.660257  -0.005327  3.832883  -0.006  0.607401  -0.001442  4.128506  -0.002  0.644542  -0.001936  4.121056  -0.002  0.223757  0.582355  -0.000912  4.132283  -0.002
C  C39  1  0.41428540  0.70875441  0.63936976  1  -0.2401  -0.005263  3.549888  -0.003  -0.302721  -0.001699  3.789671  -0.001  -0.301707  -0.002008  3.802902  -0.001  -0.15907  -0.303422  -0.001542  3.781333  -0.001
C  C40  1  0.58571169  0.29124686  0.36063118  1  -0.240002  -0.005501  3.549828  -0.003  -0.302668  -0.001696  3.789556  -0.001  -0.301649  -0.002009  3.802782  -0.001  -0.159048  -0.303371  -0.001543  3.781225  -0.001
C  C41  1  0.71187234  0.37700319  0.11528534  1  0.739276  6e-06  3.798028  0.0  0.69943  -1.3e-05  4.096555  0.0  0.732009  -3e-06  4.088817  0.0  0.21494  0.677235  -4e-06  4.100732  0.0
C  C42  1  0.28811535  0.62299169  0.88471182  1  0.739298  3e-06  3.797973  0.0  0.699481  -1.3e-05  4.096518  0.0  0.732039  -4e-06  4.088772  0.0  0.214956  0.67728  -4e-06  4.100707  0.0
C  C43  1  0.91793409  0.43473613  0.20992717  1  -0.285654  -2.5e-05  3.690762  0.0  -0.330896  -2e-06  3.925562  0.0  -0.335301  -7e-06  3.934414  0.0  -0.154881  -0.327778  1.5e-05  3.919595  0.0
C  C44  1  0.08206132  0.56526963  0.79006697  1  -0.285453  -1.8e-05  3.690924  0.0  -0.330848  0.0  3.925909  0.0  -0.335157  -8e-06  3.934643  0.0  -0.154888  -0.327734  1.5e-05  3.919941  0.0
C  C45  1  0.04699238  0.32635152  0.19595579  1  0.011046  0.000409  3.756517  0.0  0.042815  0.000203  3.990818  0.0  0.035197  0.000128  4.013818  0.0  -0.022046  0.047324  0.000284  3.975587  0.0
C  C46  1  0.95300922  0.67365528  0.80403935  1  0.010965  0.000429  3.756792  0.0  0.04282  0.0002  3.991051  0.0  0.035172  0.000131  4.014036  0.0  -0.021991  0.047341  0.000284  3.975812  0.0
C  C47  1  0.14462916  0.30152927  0.08826896  1  0.630431  -1.9e-05  3.901919  0.0  0.583806  -2e-06  4.194947  0.0  0.617241  3e-06  4.188434  0.0  0.195861  0.56116  9e-06  4.198472  0.0
C  C48  1  0.85536922  0.69847641  0.91172812  1  0.630607  -5e-06  3.901874  0.0  0.584045  -2e-06  4.19477  0.0  0.617485  2e-06  4.188259  0.0  0.195936  0.561395  1e-05  4.198305  0.0
C  C49  1  0.07419795  0.24971627  0.27328175  1  -0.223657  -4.4e-05  3.542363  0.0  -0.288154  3.1e-05  3.785539  0.0  -0.286448  -7.4e-05  3.796916  0.0  -0.156546  -0.288673  0.000136  3.7775  0.0
C  C50  1  0.92579718  0.75028834  0.72671553  1  -0.223624  -8.8e-05  3.542653  0.0  -0.288162  3.2e-05  3.785843  0.0  -0.286449  -7.7e-05  3.797214  0.0  -0.156645  -0.288696  0.000137  3.777807  0.0
O  O51  1  0.73451424  0.74553849  0.31795483  1  -0.721252  -0.001137  2.0452  0.001  -0.685177  -0.001305  2.308059  0.0  -0.71212  -0.002068  2.296077  0.0  -0.393113  -0.665449  -0.000607  2.315336  0.001
O  O52  1  0.26548941  0.25446064  0.68204362  1  -0.721244  -0.001139  2.045233  0.001  -0.685165  -0.001305  2.30809  0.0  -0.712101  -0.002069  2.296107  0.0  -0.393124  -0.665431  -0.000607  2.315362  0.001
O  O53  1  0.77560431  0.87850626  0.52255110  1  -0.583281  0.085777  2.061234  0.117  -0.55324  0.054504  2.336679  0.081  -0.595437  0.041475  2.329697  0.067  -0.311009  -0.524244  0.062791  2.341267  0.089
O  O54  1  0.22439531  0.12149397  0.47744720  1  -0.58325  0.085781  2.061185  0.117  -0.553227  0.054504  2.336633  0.081  -0.595425  0.041476  2.329652  0.067  -0.311003  -0.524235  0.062793  2.341221  0.089
O  O55  1  0.23124426  0.80040128  0.36412454  1  -0.609968  -0.001198  2.039262  0.0  -0.545622  -0.001106  2.261219  0.0  -0.571958  -0.001646  2.249379  0.0  -0.284734  -0.527288  -0.000516  2.268751  0.001
O  O56  1  0.76876426  0.19959452  0.63587702  1  -0.610111  -0.001189  2.03916  0.0  -0.545761  -0.001106  2.26115  0.0  -0.572081  -0.001645  2.249299  0.0  -0.284806  -0.527424  -0.000515  2.26868  0.001
O  O57  1  0.18913210  0.88951137  0.56166312  1  -0.628615  0.070592  2.12448  0.098  -0.579572  0.049747  2.392091  0.075  -0.620527  0.03832  2.382191  0.063  -0.307866  -0.551244  0.056992  2.398499  0.081
O  O58  1  0.81087092  0.11048553  0.43833814  1  -0.628616  0.070586  2.124617  0.098  -0.579532  0.049739  2.39226  0.075  -0.620489  0.038315  2.38237  0.063  -0.307838  -0.551207  0.056982  2.39867  0.081
O  O59  1  0.60790773  0.46847296  0.09506967  1  -0.809045  2e-05  2.100712  0.0  -0.766424  4e-06  2.355321  0.0  -0.793343  -1e-05  2.346742  0.0  -0.431719  -0.746597  1.1e-05  2.360303  0.0
O  O60  1  0.39207805  0.53152521  0.90492645  1  -0.80907  1.9e-05  2.100787  0.0  -0.766432  4e-06  2.355379  0.0  -0.793354  -1e-05  2.346813  0.0  -0.431707  -0.746603  1.1e-05  2.360362  0.0
O  O61  1  0.64217794  0.24417722  0.05758385  1  -0.656446  5.2e-05  1.924829  0.0  -0.616824  2.7e-05  2.148058  0.0  -0.640982  1e-05  2.140458  0.0  -0.351834  -0.599678  3e-05  2.152921  0.0
O  O62  1  0.35781356  0.75582381  0.94242954  1  -0.656494  5.4e-05  1.924702  0.0  -0.616877  2.6e-05  2.147924  0.0  -0.641044  1.1e-05  2.140335  0.0  -0.351902  -0.599732  3e-05  2.152781  0.0
O  O63  1  0.14774935  0.39260973  0.02882628  1  -0.708927  2.1e-05  2.048805  0.0  -0.657561  1.7e-05  2.285954  0.0  -0.683236  7e-06  2.276358  0.0  -0.372451  -0.639085  2.6e-05  2.291918  0.0
O  O64  1  0.85224619  0.60739164  0.97117012  1  -0.708939  1.6e-05  2.048667  0.0  -0.657632  1.8e-05  2.285835  0.0  -0.683312  5e-06  2.276236  0.0  -0.372461  -0.639155  2.6e-05  2.291782  0.0
O  O65  1  0.22627075  0.19524760  0.05628781  1  -0.673729  5.7e-05  1.935077  0.0  -0.632133  2.8e-05  2.157239  0.0  -0.655845  2.2e-05  2.148188  0.0  -0.366019  -0.615248  4e-05  2.163192  0.0
O  O66  1  0.77372301  0.80475269  0.94370895  1  -0.673785  5.4e-05  1.93514  0.0  -0.632216  2.8e-05  2.157277  0.0  -0.655932  2.2e-05  2.148223  0.0  -0.366043  -0.61534  4e-05  2.163233  0.0
O  O67  1  0.96966694  0.87302639  0.20120864  1  -0.904193  -0.00035  1.877784  0.0  -0.87117  -0.000489  2.078202  0.0  -0.888282  -0.000549  2.046921  0.0  -0.627268  -0.858071  -0.000406  2.099703  0.0
O  O68  1  0.03033488  0.12697169  0.79878842  1  -0.904208  -0.00035  1.877819  0.0  -0.871177  -0.000489  2.078229  0.0  -0.888287  -0.000549  2.046955  0.0  -0.627324  -0.858069  -0.000406  2.099736  0.0
O  O69  1  0.57671140  0.95126967  0.19524851  1  -0.882394  0.00039  1.829729  0.001  -0.843658  0.00028  2.003778  0.0  -0.861544  0.000135  1.973331  0.0  -0.627656  -0.83073  0.000435  2.025669  0.001
O  O70  1  0.42328649  0.04872941  0.80475365  1  -0.882394  0.000395  1.829743  0.001  -0.84366  0.00028  2.003802  0.0  -0.861541  0.000134  1.973357  0.0  -0.627639  -0.830727  0.000435  2.025698  0.001
O  O71  1  0.32710451  0.66339850  0.15149263  1  -0.933911  2.4e-05  1.905282  0.0  -0.895084  7e-06  2.102364  0.0  -0.914621  2e-06  2.07135  0.0  -0.662026  -0.880637  1.5e-05  2.124215  0.0
O  O72  1  0.67290963  0.33659603  0.84851625  1  -0.933984  2.3e-05  1.90524  0.0  -0.895181  7e-06  2.102317  0.0  -0.914712  2e-06  2.07131  0.0  -0.662076  -0.880738  1.5e-05  2.124152  0.0
