# generated using pymatgen
data_MnH3(CO2)3
_symmetry_space_group_name_H-M   'P 1'
_cell_length_a   8.11140723
_cell_length_b   8.10676501
_cell_length_c   8.49756411
_cell_angle_alpha   61.03689810
_cell_angle_beta   61.03296788
_cell_angle_gamma   59.77983423
_symmetry_Int_Tables_number   1
_chemical_formula_structural   MnH3(CO2)3
_chemical_formula_sum   'Mn2 H6 C6 O12'
_cell_volume   400.49143264
_cell_formula_units_Z   2
loop_
 _symmetry_equiv_pos_site_id
 _symmetry_equiv_pos_as_xyz
  1  'x, y, z'
loop_
 _atom_site_type_symbol
 _atom_site_label
 _atom_site_symmetry_multiplicity
 _atom_site_fract_x
 _atom_site_fract_y
 _atom_site_fract_z
 _atom_site_occupancy
 _atom_site_pbe_bader_charge
 _atom_site_pbe_bader_spin_density
 _atom_site_pbe_cm5_charge
 _atom_site_pbe_ddec_charge
 _atom_site_pbe_ddec_spin_density
 _atom_site_pbe_ddec_sum_bond_order
 _atom_site_pbe_magmom
Mn  Mn0  1  0.00002308  0.00003134  0.99999000  1  1.772144  3.735399  0.782653  1.180904  3.83099  2.845303  3.731
Mn  Mn1  1  0.49997450  0.50004925  0.49998978  1  1.77157  3.729771  0.78439  1.18386  3.825014  2.84629  3.725
H  H2  1  0.24765327  0.85915576  0.24625445  1  0.134081  0.001887  0.132953  0.044945  0.000596  0.985078  0.001
H  H3  1  0.64097616  0.25217753  0.25359204  1  0.141796  0.001844  0.132951  0.044937  0.000578  0.985134  0.001
H  H4  1  0.85661469  0.64300532  0.25023650  1  0.159473  0.001667  0.13397  0.045842  0.000487  0.983922  0.001
H  H5  1  0.75234938  0.14082793  0.75374287  1  0.134126  0.001895  0.132766  0.04465  0.000599  0.984749  0.001
H  H6  1  0.35895643  0.74779105  0.74647136  1  0.134048  0.001848  0.132827  0.044776  0.000575  0.98518  0.001
H  H7  1  0.14349781  0.35681141  0.74981559  1  0.161036  0.001657  0.133797  0.045781  0.000482  0.984377  0.001
C  C8  1  0.24750173  0.72277774  0.24681449  1  1.541672  0.016907  0.186583  0.521451  0.016436  4.086626  0.016
C  C9  1  0.77726002  0.25238115  0.25301925  1  1.534575  0.01694  0.18665  0.521488  0.016455  4.086664  0.016
C  C10  1  0.72001957  0.77961834  0.25017295  1  1.518773  0.017575  0.188171  0.522739  0.017003  4.075399  0.016
C  C11  1  0.75246286  0.27730335  0.75313293  1  1.541732  0.016946  0.186677  0.521889  0.016469  4.086184  0.016
C  C12  1  0.22262162  0.74768272  0.74704330  1  1.540156  0.016993  0.186826  0.52173  0.016494  4.085442  0.016
C  C13  1  0.28012413  0.22026406  0.74980786  1  1.520133  0.01754  0.187981  0.522075  0.016998  4.076421  0.016
O  O14  1  0.14572744  0.74285216  0.15761205  1  -1.125738  0.024106  -0.295347  -0.479812  0.007665  2.364407  -0.005
O  O15  1  0.94945010  0.15347777  0.16499292  1  -1.143699  0.046834  -0.286903  -0.482671  0.032599  2.339249  0.02
O  O16  1  0.73720061  0.95188497  0.16118276  1  -1.134821  0.034508  -0.289918  -0.478832  0.020026  2.347588  0.006
O  O17  1  0.34634686  0.55051751  0.33480925  1  -1.142272  0.047567  -0.286859  -0.483399  0.033323  2.337546  0.021
O  O18  1  0.54781946  0.76207201  0.33934665  1  -1.13141  0.032557  -0.29075  -0.478952  0.017977  2.350686  0.004
O  O19  1  0.75721786  0.35421450  0.34216211  1  -1.124523  0.024807  -0.294888  -0.479925  0.008574  2.3646  -0.005
O  O20  1  0.85433748  0.25724042  0.84225037  1  -1.125181  0.024204  -0.295228  -0.480103  0.007819  2.363473  -0.005
O  O21  1  0.05049446  0.84668259  0.83513891  1  -1.142899  0.047035  -0.287036  -0.482766  0.032773  2.339432  0.02
O  O22  1  0.26298391  0.04797346  0.83893535  1  -1.135372  0.034476  -0.289742  -0.478491  0.019968  2.348036  0.006
O  O23  1  0.65352665  0.44946875  0.66513363  1  -1.142643  0.047762  -0.286898  -0.483411  0.033519  2.338791  0.021
O  O24  1  0.45227101  0.23793524  0.66043519  1  -1.133972  0.032529  -0.290676  -0.478567  0.017944  2.350353  0.004
O  O25  1  0.24259470  0.64586172  0.65791387  1  -1.122787  0.024748  -0.294951  -0.480139  0.008637  2.36314  -0.005
