# generated using pymatgen
data_ZnH10C13N2O7
_symmetry_space_group_name_H-M   'P 1'
_cell_length_a   8.02403083
_cell_length_b   9.21058506
_cell_length_c   10.32658534
_cell_angle_alpha   74.46611814
_cell_angle_beta   88.76939929
_cell_angle_gamma   76.76319550
_symmetry_Int_Tables_number   1
_chemical_formula_structural   ZnH10C13N2O7
_chemical_formula_sum   'Zn2 H20 C26 N4 O14'
_cell_volume   715.13673908
_cell_formula_units_Z   2
loop_
 _symmetry_equiv_pos_site_id
 _symmetry_equiv_pos_as_xyz
  1  'x, y, z'
loop_
 _atom_site_type_symbol
 _atom_site_label
 _atom_site_symmetry_multiplicity
 _atom_site_fract_x
 _atom_site_fract_y
 _atom_site_fract_z
 _atom_site_occupancy
 _atom_site_hle17_bader_spin_density
 _atom_site_hle17_ddec_charge
 _atom_site_hle17_ddec_spin_density
 _atom_site_hle17_ddec_sum_bond_order
 _atom_site_hle17_magmom
 _atom_site_hse06_10hf_bader_spin_density
 _atom_site_hse06_10hf_ddec_charge
 _atom_site_hse06_10hf_ddec_spin_density
 _atom_site_hse06_10hf_ddec_sum_bond_order
 _atom_site_hse06_10hf_magmom
 _atom_site_hse06_bader_spin_density
 _atom_site_hse06_ddec_charge
 _atom_site_hse06_ddec_spin_density
 _atom_site_hse06_ddec_sum_bond_order
 _atom_site_hse06_magmom
 _atom_site_pbe_bader_spin_density
 _atom_site_pbe_cm5_charge
 _atom_site_pbe_ddec_charge
 _atom_site_pbe_ddec_spin_density
 _atom_site_pbe_ddec_sum_bond_order
 _atom_site_pbe_magmom
Zn  Zn0  1  0.51146546  0.77379412  0.61685909  1  0  1.095739  0  1.75115  0  0  0.911594  0  2.225487  0  0  0.959894  0  2.166619  0  0  0.696759  0.874401  0  2.268914  0
Zn  Zn1  1  0.48853843  0.22619533  0.38313930  1  0  1.09578  0  1.751086  0  0  0.911614  0  2.22541  0  0  0.959923  0  2.166543  0  0  0.696773  0.874385  0  2.268879  0
H  H2  1  0.49922557  0.55177208  0.80477593  1  0  0.436555  0  0.843323  0  0  0.40945  0  0.906929  0  0  0.419772  0  0.891734  0  0  0.3054  0.402011  0  0.917885  0
H  H3  1  0.50078268  0.44821987  0.19522949  1  0  0.436544  0  0.84338  0  0  0.409491  0  0.906872  0  0  0.419817  0  0.89167  0  0  0.305449  0.402051  0  0.917829  0
H  H4  1  0.48730316  0.46989572  0.68067343  1  0  0.440503  0  0.861864  0  0  0.405722  0  0.931159  0  0  0.417419  0  0.91427  0  0  0.292961  0.397436  0  0.943083  0
H  H5  1  0.51269762  0.53010075  0.31932908  1  0  0.440333  0  0.862072  0  0  0.405554  0  0.931367  0  0  0.417251  0  0.91448  0  0  0.292903  0.397267  0  0.943292  0
H  H6  1  0.52860893  0.71059197  0.13532992  1  0  0.11085  0  0.950768  0  0  0.119756  0  1.013364  0  0  0.123859  0  1.009597  0  0  0.114431  0.116723  0  1.01632  0
H  H7  1  0.47138685  0.28940431  0.86466403  1  0  0.110826  0  0.950844  0  0  0.11976  0  1.013416  0  0  0.123868  0  1.009646  0  0  0.114441  0.116726  0  1.016379  0
H  H8  1  0.19171544  0.06996046  0.84053788  1  0  0.123721  0  0.945846  0  0  0.129185  0  1.014649  0  0  0.133587  0  1.010598  0  0  0.117083  0.126101  0  1.017282  0
H  H9  1  0.80826052  0.93002168  0.15946488  1  0  0.123709  0  0.945785  0  0  0.12914  0  1.01463  0  0  0.13355  0  1.010559  0  0  0.117032  0.126052  0  1.017255  0
H  H10  1  0.17210128  0.07338949  0.25744759  1  0  0.127084  0  0.944177  0  0  0.130129  0  1.013593  0  0  0.134494  0  1.009982  0  0  0.118646  0.127004  0  1.016074  0
H  H11  1  0.82791189  0.92661644  0.74255229  1  0  0.127043  0  0.944202  0  0  0.13008  0  1.013629  0  0  0.13444  0  1.010028  0  0  0.118597  0.126962  0  1.016116  0
H  H12  1  0.81826090  0.55254005  0.76961149  1  0  0.086883  0  0.94938  0  0  0.091189  0  1.019343  0  0  0.094781  0  1.015054  0  0  0.117239  0.088449  0  1.022519  0
H  H13  1  0.18175760  0.44745086  0.23039300  1  0  0.086837  0  0.949492  0  0  0.091169  0  1.019429  0  0  0.094757  0  1.015138  0  0  0.11724  0.088428  0  1.022593  0
H  H14  1  0.12725173  0.46817215  0.72639929  1  0  0.113064  0  0.939422  0  0  0.122385  0  0.996856  0  0  0.125467  0  0.996134  0  0  0.110929  0.120307  0  0.997189  0
H  H15  1  0.87276543  0.53184189  0.27359362  1  0  0.113043  0  0.939511  0  0  0.122351  0  0.996958  0  0  0.125438  0  0.996227  0  0  0.110895  0.120268  0  0.997289  0
H  H16  1  0.24319428  0.60781574  0.51387914  1  0  0.10436  0  0.952223  0  0  0.11579  0  1.010145  0  0  0.118088  0  1.00881  0  0  0.109889  0.113993  0  1.011132  0
H  H17  1  0.75680391  0.39221792  0.48611605  1  0  0.104427  0  0.952035  0  0  0.115755  0  1.010069  0  0  0.118051  0  1.00874  0  0  0.109864  0.11396  0  1.011057  0
H  H18  1  0.04289452  0.83405158  0.35495625  1  0  0.099152  0  0.964655  0  0  0.11033  0  1.024013  0  0  0.112415  0  1.024651  0  0  0.104492  0.108821  0  1.023329  0
H  H19  1  0.95708758  0.16596798  0.64504668  1  0  0.099126  0  0.964639  0  0  0.11028  0  1.024037  0  0  0.112366  0  1.024677  0  0  0.104447  0.108777  0  1.023356  0
H  H20  1  0.73786780  0.90587216  0.41255429  1  0  0.090178  0  0.968103  0  0  0.098355  0  1.033738  0  0  0.101237  0  1.030825  0  0  0.116212  0.096084  0  1.03621  0
H  H21  1  0.26211621  0.09412646  0.58745094  1  0  0.090206  0  0.968142  0  0  0.098361  0  1.033801  0  0  0.101245  0  1.030884  0  0  0.116204  0.096093  0  1.036276  0
C  C22  1  0.42261946  0.80765013  0.35602701  1  0  0.647309  0  3.902591  0  0  0.59382  0  4.196353  0  0  0.627905  0  4.190434  0  0  0.213754  0.570262  0  4.200202  0
C  C23  1  0.57738101  0.19234280  0.64397349  1  0  0.647198  0  3.902564  0  0  0.593725  0  4.196284  0  0  0.627809  0  4.190366  0  0  0.213711  0.570147  0  4.20013  0
C  C24  1  0.35677173  0.88255299  0.21341636  1  0  -0.05638  0  3.738151  0  0  -0.029627  0  3.975185  0  0  -0.039869  0  3.99804  0  0  -0.009275  -0.02353  0  3.961268  0
C  C25  1  0.64322564  0.11743285  0.78658114  1  0  -0.056459  0  3.738287  0  0  -0.029668  0  3.975306  0  0  -0.039912  0  3.998166  0  0  -0.009224  -0.023485  0  3.961285  0
C  C26  1  0.42589216  0.81504141  0.11198306  1  0  -0.036103  0  3.65175  0  0  -0.078295  0  3.899058  0  0  -0.073984  0  3.916695  0  0  -0.060449  -0.081483  0  3.888564  0
C  C27  1  0.57409712  0.18494664  0.88801308  1  0  -0.036004  0  3.651787  0  0  -0.078296  0  3.899096  0  0  -0.073992  0  3.916734  0  0  -0.060401  -0.081512  0  3.888594  0
C  C28  1  0.36845219  0.88144693  0.97785505  1  0  -0.048969  0  3.7368  0  0  -0.023487  0  3.974849  0  0  -0.033988  0  3.999416  0  0  -0.01116  -0.017046  0  3.959101  0
C  C29  1  0.63152902  0.11854341  0.02214554  1  0  -0.04884  0  3.736777  0  0  -0.023256  0  3.974649  0  0  -0.033744  0  3.999198  0  0  -0.011136  -0.016816  0  3.958902  0
C  C30  1  0.44795694  0.80493072  0.87260085  1  0  0.643647  0  3.917461  0  0  0.592886  0  4.20961  0  0  0.626378  0  4.205281  0  0  0.204366  0.569904  0  4.211975  0
C  C31  1  0.55203109  0.19505731  0.12739436  1  0  0.64367  0  3.917819  0  0  0.592962  0  4.209812  0  0  0.626448  0  4.205485  0  0  0.204401  0.569981  0  4.212171  0
C  C32  1  0.23855129  0.01660962  0.94423767  1  0  -0.081103  0  3.678927  0  0  -0.126095  0  3.943198  0  0  -0.122141  0  3.960394  0  0  -0.068511  -0.127566  0  3.931126  0
C  C33  1  0.76142838  0.98338193  0.05576652  1  0  -0.081197  0  3.678613  0  0  -0.126154  0  3.942842  0  0  -0.122225  0  3.960011  0  0  -0.068503  -0.127607  0  3.930773  0
C  C34  1  0.16879338  0.08128293  0.04650811  1  0  0.064426  0  3.710624  0  0  0.053124  0  3.967101  0  0  0.047896  0  3.990477  0  0  0.073543  0.055909  0  3.951347  0
C  C35  1  0.83119900  0.91871688  0.95349084  1  0  0.064289  0  3.71059  0  0  0.052932  0  3.967203  0  0  0.047779  0  3.990479  0  0  0.073464  0.055674  0  3.951514  0
C  C36  1  0.22679495  0.01817893  0.18048541  1  0  -0.073719  0  3.660249  0  0  -0.115114  0  3.921675  0  0  -0.11025  0  3.936664  0  0  -0.062761  -0.117231  0  3.911199  0
C  C37  1  0.77320737  0.98181633  0.81951253  1  0  -0.073619  0  3.660337  0  0  -0.115009  0  3.921789  0  0  -0.110167  0  3.936756  0  0  -0.062759  -0.117144  0  3.911317  0
C  C38  1  0.87319087  0.61111734  0.67863541  1  0  0.129927  0  3.686128  0  0  0.096411  0  3.937421  0  0  0.103625  0  3.955802  0  0  0.049623  0.091245  0  3.925016  0
C  C39  1  0.12682232  0.38887926  0.32136487  1  0  0.13002  0  3.686108  0  0  0.096455  0  3.937437  0  0  0.103677  0  3.955813  0  0  0.0497  0.091292  0  3.92501  0
C  C40  1  0.04550546  0.56484419  0.65379135  1  0  -0.09351  0  3.705288  0  0  -0.105132  0  3.954287  0  0  -0.112624  0  3.976439  0  0  -0.075711  -0.100693  0  3.939379  0
C  C41  1  0.95451047  0.43516985  0.34620256  1  0  -0.093358  0  3.705126  0  0  -0.104953  0  3.954036  0  0  -0.112446  0  3.976186  0  0  -0.07561  -0.100516  0  3.939124  0
C  C42  1  0.10940752  0.64380193  0.53622220  1  0  0.01051  0  3.687626  0  0  -0.009817  0  3.932527  0  0  -0.005644  0  3.951984  0  0  -0.059919  -0.011641  0  3.918744  0
C  C43  1  0.89059846  0.35622137  0.46377541  1  0  0.010177  0  3.687645  0  0  -0.010033  0  3.932516  0  0  -0.005863  0  3.951977  0  0  -0.060033  -0.01186  0  3.918732  0
C  C44  1  0.99888067  0.76882572  0.44808275  1  0  -0.11736  0  3.732962  0  0  -0.125901  0  3.976547  0  0  -0.134206  0  4.000472  0  0  -0.083246  -0.119871  0  3.958661  0
C  C45  1  0.00111727  0.23119058  0.55192163  1  0  -0.117288  0  3.732858  0  0  -0.125808  0  3.976409  0  0  -0.134113  0  4.00033  0  0  -0.083194  -0.119783  0  3.958537  0
C  C46  1  0.82829327  0.80926686  0.47894031  1  0  0.127044  0  3.693024  0  0  0.095474  0  3.937197  0  0  0.102431  0  3.95631  0  0  0.044535  0.090551  0  3.923794  0
C  C47  1  0.17170130  0.19073424  0.52106505  1  0  0.127023  0  3.693088  0  0  0.095435  0  3.937278  0  0  0.102393  0  3.956395  0  0  0.044516  0.090509  0  3.923879  0
N  N48  1  0.02729983  0.22058569  0.01143723  1  0  0.466358  0  3.954258  0  0  0.526441  0  4.20286  0  0  0.547071  0  4.212088  0  0  0.057667  0.512616  0  4.196721  0
N  N49  1  0.97270962  0.77942022  0.98856466  1  0  0.466424  0  3.953871  0  0  0.526434  0  4.202632  0  0  0.547041  0  4.21185  0  0  0.057699  0.51262  0  4.196495  0
N  N50  1  0.76628685  0.73068059  0.59210710  1  0  -0.364094  0  3.353095  0  0  -0.274037  0  3.633492  0  0  -0.2954  0  3.648912  0  0  -0.336778  -0.25914  0  3.622723  0
N  N51  1  0.23370772  0.26931583  0.40789749  1  0  -0.364095  0  3.353215  0  0  -0.274007  0  3.633627  0  0  -0.295373  0  3.649051  0  0  -0.336792  -0.259105  0  3.622841  0
O  O52  1  0.39098745  0.89104734  0.43991680  1  0  -0.638223  0  2.030809  0  0  -0.566518  0  2.308995  0  0  -0.5952  0  2.294478  0  0  -0.315134  -0.545074  0  2.319095  0
O  O53  1  0.60900123  0.10894313  0.56008553  1  0  -0.638177  0  2.030836  0  0  -0.566473  0  2.309032  0  0  -0.595155  0  2.294509  0  0  -0.315092  -0.545028  0  2.319149  0
O  O54  1  0.40195828  0.88196022  0.74914322  1  0  -0.650844  0  2.044276  0  0  -0.574637  0  2.3123  0  0  -0.604592  0  2.298783  0  0  -0.326811  -0.552685  0  2.322386  0
O  O55  1  0.59803594  0.11803718  0.25084952  1  0  -0.650821  0  2.044343  0  0  -0.574609  0  2.312324  0  0  -0.604568  0  2.298811  0  0  -0.32675  -0.552635  0  2.322355  0
O  O56  1  0.50487563  0.66798747  0.38941033  1  0  -0.617144  0  1.983277  0  0  -0.560626  0  2.208602  0  0  -0.585632  0  2.199373  0  0  -0.304238  -0.54234  0  2.214052  0
O  O57  1  0.49514531  0.33201266  0.61058502  1  0  -0.617096  0  1.983161  0  0  -0.560572  0  2.208444  0  0  -0.585578  0  2.19922  0  0  -0.304246  -0.542281  0  2.213899  0
O  O58  1  0.55172190  0.67562582  0.90923348  1  0  -0.606086  0  1.902396  0  0  -0.561019  0  2.114837  0  0  -0.583932  0  2.105489  0  0  -0.318184  -0.544325  0  2.120547  0
O  O59  1  0.44827141  0.32436108  0.09075997  1  0  -0.606149  0  1.90269  0  0  -0.561146  0  2.115092  0  0  -0.584063  0  2.105746  0  0  -0.318276  -0.544454  0  2.120802  0
O  O60  1  0.45848811  0.56740848  0.71148369  1  0  -0.851053  0  1.944373  0  0  -0.781897  0  2.169686  0  0  -0.804088  0  2.131442  0  0  -0.572753  -0.766156  0  2.196841  0
O  O61  1  0.54151083  0.43258570  0.28852331  1  0  -0.850868  0  1.94455  0  0  -0.781763  0  2.169742  0  0  -0.80395  0  2.13149  0  0  -0.572757  -0.76604  0  2.196931  0
O  O62  1  0.96006530  0.27209636  0.10394961  1  0  -0.321727  0  1.749489  0  0  -0.316094  0  1.931211  0  0  -0.327108  0  1.928569  0  0  -0.115737  -0.308682  0  1.932887  0
O  O63  1  0.03997640  0.72792858  0.89604780  1  0  -0.321755  0  1.749154  0  0  -0.316033  0  1.930881  0  0  -0.327044  0  1.928242  0  0  -0.115721  -0.308617  0  1.932559  0
O  O64  1  0.98172256  0.27701332  0.89049616  1  0  -0.360983  0  1.774134  0  0  -0.353745  0  1.969376  0  0  -0.367666  0  1.967626  0  0  -0.126854  -0.344347  0  1.970162  0
O  O65  1  0.01827324  0.72298778  0.10950821  1  0  -0.36096  0  1.774152  0  0  -0.353718  0  1.969454  0  0  -0.367653  0  1.967734  0  0  -0.12685  -0.344317  0  1.97022  0
