# generated using pymatgen
data_CoH10(C3N2)4
_symmetry_space_group_name_H-M   'P 1'
_cell_length_a   8.19448486
_cell_length_b   8.15914391
_cell_length_c   10.19544522
_cell_angle_alpha   86.03177144
_cell_angle_beta   67.18450791
_cell_angle_gamma   78.51116759
_symmetry_Int_Tables_number   1
_chemical_formula_structural   CoH10(C3N2)4
_chemical_formula_sum   'Co2 H20 C24 N16'
_cell_volume   615.71860642
_cell_formula_units_Z   2
loop_
 _symmetry_equiv_pos_site_id
 _symmetry_equiv_pos_as_xyz
  1  'x, y, z'
loop_
 _atom_site_type_symbol
 _atom_site_label
 _atom_site_symmetry_multiplicity
 _atom_site_fract_x
 _atom_site_fract_y
 _atom_site_fract_z
 _atom_site_occupancy
 _atom_site_pbe_cm5_charge
 _atom_site_pbe_ddec_charge
 _atom_site_pbe_ddec_spin_density
 _atom_site_pbe_ddec_sum_bond_order
 _atom_site_pbe_magmom
Co  Co0  1  0.30311180  0.51102600  0.48152693  1  0.677257  0.578634  -0.124562  3.088635  -0.12
Co  Co1  1  0.69254831  0.48245409  0.52193149  1  0.653837  0.584065  -1.791813  3.012622  -1.575
H  H2  1  0.12855558  0.53218842  0.78263780  1  0.118264  0.073341  -0.000197  1.064295  0.0
H  H3  1  0.86608008  0.47721375  0.21306279  1  0.111237  0.065441  -0.00033  1.061729  0.0
H  H4  1  0.91545725  0.39485838  0.98151724  1  0.102806  0.101609  -3.5e-05  1.049181  0.0
H  H5  1  0.09155164  0.60873884  0.01669211  1  0.098458  0.096321  -0.000117  1.057238  0.0
H  H6  1  0.85683525  0.11885745  0.93737320  1  0.108032  0.106173  3.2e-05  1.013136  0.0
H  H7  1  0.15060391  0.88355963  0.06149109  1  0.103968  0.100526  1.1e-05  1.021133  0.0
H  H8  1  0.04166032  0.97844311  0.70216967  1  0.107621  0.115098  -0.000249  1.023629  0.0
H  H9  1  0.96565742  0.02545929  0.29658123  1  0.103808  0.111309  -0.000379  1.024214  0.0
H  H10  1  0.41680277  0.15002834  0.41684129  1  0.108531  0.10485  -0.000204  1.066999  0.0
H  H11  1  0.58481183  0.84964754  0.57881151  1  0.105608  0.102739  0.0002  1.06159  0.0
H  H12  1  0.18207998  0.87700065  0.51837250  1  0.107064  0.109171  0.000135  1.086313  0.0
H  H13  1  0.81834366  0.12342187  0.48667651  1  0.105095  0.10573  0.000418  1.086055  0.0
H  H14  1  0.51714754  0.05756396  0.20628937  1  0.104488  0.111405  -0.000201  1.049454  0.0
H  H15  1  0.47782005  0.93925864  0.79657643  1  0.102595  0.109738  -0.000556  1.05056  0.0
H  H16  1  0.69256801  0.90399076  0.97772088  1  0.109054  0.106907  2.8e-05  0.989131  0.0
H  H17  1  0.30148868  0.09401593  0.02507322  1  0.106409  0.104431  0.000149  0.996336  0.0
H  H18  1  0.65863393  0.60554605  0.96155673  1  0.104898  0.109829  0.000273  1.025999  0.0
H  H19  1  0.33649707  0.39137119  0.04196897  1  0.102616  0.108277  -0.000224  1.029136  0.0
H  H20  1  0.46860186  0.47471858  0.17954456  1  0.115858  0.074275  3.8e-05  1.071928  0.0
H  H21  1  0.53149957  0.52110735  0.82448043  1  0.111568  0.069418  -0.000534  1.067327  -0.001
C  C22  1  0.10927051  0.40797360  0.76800220  1  0.035693  0.075836  0.00084  3.961869  0.0
C  C23  1  0.88932349  0.59994694  0.22793295  1  0.030566  0.078953  0.002842  3.99405  0.001
C  C24  1  0.98716751  0.33283502  0.87842578  1  -0.087937  -0.127483  0.000133  3.9886  0.0
C  C25  1  0.01725182  0.67153011  0.11919911  1  -0.095459  -0.136905  0.00105  4.000258  0.0
C  C26  1  0.95576609  0.17835161  0.85364163  1  -0.068576  -0.020476  0.001353  3.975896  0.001
C  C27  1  0.04950819  0.82555897  0.14470463  1  -0.075281  -0.029051  0.002738  3.988388  0.001
C  C28  1  0.05737636  0.10217004  0.72269351  1  -0.076753  -0.145984  -0.000394  3.915229  -0.001
C  C29  1  0.94723902  0.90298219  0.27527940  1  -0.082212  -0.150697  -0.00089  3.920254  -0.001
C  C30  1  0.18683446  0.17950695  0.61588581  1  0.119975  0.242992  0.001566  3.931404  0.001
C  C31  1  0.81421484  0.82674239  0.37977824  1  0.113414  0.240381  0.002443  3.963139  0.001
C  C32  1  0.30666313  0.08989027  0.48441224  1  -0.083686  -0.139264  0.000341  3.945249  0.0
C  C33  1  0.69432053  0.91202758  0.51342886  1  -0.087362  -0.139385  0.007125  3.9543  0.004
C  C34  1  0.29036138  0.93867628  0.44885025  1  -0.083659  -0.142257  0.000457  3.924547  0.0
C  C35  1  0.71056667  0.06016226  0.55456614  1  -0.089897  -0.148901  0.001565  3.945088  0.0
C  C36  1  0.40438132  0.84648022  0.31776348  1  0.123267  0.25194  0.001068  3.940568  0.0
C  C37  1  0.59597159  0.14917812  0.68707407  1  0.116508  0.24925  0.006827  3.95758  0.004
C  C38  1  0.51172940  0.92677370  0.19791899  1  -0.079765  -0.159408  0.00052  3.915263  0.0
C  C39  1  0.48533315  0.06941293  0.80553957  1  -0.085799  -0.165707  -0.001828  3.927158  -0.003
C  C40  1  0.60835306  0.84173609  0.06981716  1  -0.06864  -0.022509  0.000787  3.992089  0.0
C  C41  1  0.38778196  0.15523978  0.93331969  1  -0.07543  -0.033077  0.008903  4.003695  0.005
C  C42  1  0.59060550  0.67700802  0.06060800  1  -0.088071  -0.13162  0.000226  3.971718  0.0
C  C43  1  0.40621852  0.31991344  0.94303233  1  -0.093246  -0.136881  -0.00077  3.982597  -0.002
C  C44  1  0.48471363  0.60316673  0.18268683  1  0.041165  0.078009  0.000814  3.958959  0.0
C  C45  1  0.51512630  0.39252595  0.82179894  1  0.03502  0.077164  0.005941  3.97596  0.003
N  N46  1  0.20398358  0.33869900  0.63708047  1  -0.301556  -0.226535  0.004314  3.461041  0.002
N  N47  1  0.79118400  0.67114197  0.35709115  1  -0.310424  -0.273105  -0.019538  3.445042  -0.031
N  N48  1  0.39746753  0.68135040  0.30987625  1  -0.287734  -0.214452  0.01162  3.425553  0.009
N  N49  1  0.60523899  0.31346207  0.69512623  1  -0.308167  -0.249033  -0.018594  3.466735  -0.031
N  N50  1  0.57577502  0.37368480  0.41063576  1  -0.285435  -0.461052  -0.010686  3.266436  -0.016
N  N51  1  0.42308923  0.61515692  0.59194664  1  -0.291375  -0.465966  -0.01201  3.304613  -0.018
N  N52  1  0.65223530  0.30025689  0.29828127  1  0.08192  0.394606  -0.003966  4.443893  -0.006
N  N53  1  0.34257322  0.69584482  0.70041717  1  0.081324  0.393821  -0.00457  4.446235  -0.006
N  N54  1  0.72571887  0.22773631  0.18975710  1  -0.170785  -0.357511  -0.024538  2.62542  -0.033
N  N55  1  0.26886855  0.77444604  0.80581955  1  -0.169301  -0.354615  -0.022954  2.631103  -0.032
N  N56  1  0.07723122  0.37488049  0.39179632  1  0.084757  0.404159  -0.006706  4.360358  -0.015
N  N57  1  0.92549506  0.62365507  0.60486908  1  0.080925  0.398292  -0.006097  4.361997  -0.014
N  N58  1  0.22476403  0.40682676  0.35504208  1  -0.252337  -0.41264  -0.014524  3.090604  -0.022
N  N59  1  0.77915082  0.59104733  0.64187700  1  -0.238592  -0.394668  0.010493  3.099668  -0.001
N  N60  1  0.93341455  0.33878113  0.42469296  1  -0.230619  -0.390107  0.010104  3.09254  -0.001
N  N61  1  0.06937097  0.66277412  0.57043816  1  -0.245507  -0.4054  -0.017886  3.086353  -0.027
