# generated using pymatgen
data_CuH7C13NO4
_symmetry_space_group_name_H-M   'P 1'
_cell_length_a   10.55753108
_cell_length_b   10.75301718
_cell_length_c   14.78939071
_cell_angle_alpha   89.98314595
_cell_angle_beta   108.65737303
_cell_angle_gamma   90.04049995
_symmetry_Int_Tables_number   1
_chemical_formula_structural   CuH7C13NO4
_chemical_formula_sum   'Cu4 H28 C52 N4 O16'
_cell_volume   1590.73748272
_cell_formula_units_Z   4
loop_
 _symmetry_equiv_pos_site_id
 _symmetry_equiv_pos_as_xyz
  1  'x, y, z'
loop_
 _atom_site_type_symbol
 _atom_site_label
 _atom_site_symmetry_multiplicity
 _atom_site_fract_x
 _atom_site_fract_y
 _atom_site_fract_z
 _atom_site_occupancy
 _atom_site_pbe_bader_charge
 _atom_site_pbe_bader_spin_density
 _atom_site_pbe_cm5_charge
 _atom_site_pbe_ddec_charge
 _atom_site_pbe_ddec_spin_density
 _atom_site_pbe_ddec_sum_bond_order
 _atom_site_pbe_magmom
Cu  Cu0  1  0.91127024  0.91408612  0.99092587  1  1.080905  0.582085  0.688656  0.77003  0.74655  2.399065  0.583
Cu  Cu1  1  0.08931177  0.41333570  0.50909411  1  1.073277  0.54931  0.686026  0.766093  0.701429  2.397915  0.547
Cu  Cu2  1  0.08874155  0.08588857  0.00907546  1  1.080278  0.582976  0.688708  0.770187  0.747712  2.39912  0.584
Cu  Cu3  1  0.91066505  0.58670594  0.49090463  1  1.073197  -0.547513  0.685479  0.76529  -0.731128  2.398171  -0.545
H  H4  1  0.96090027  0.27974512  0.22529045  1  0.102617  0.000388  0.115577  0.132791  0.000273  0.980155  0.0
H  H5  1  0.03907183  0.77976241  0.27471197  1  0.102073  0.000249  0.115791  0.133164  0.000156  0.980135  0.0
H  H6  1  0.03911353  0.72024353  0.77471540  1  0.102926  3.5e-05  0.11551  0.132742  -5.9e-05  0.980238  0.0
H  H7  1  0.96093298  0.22022902  0.72528033  1  0.101698  0.000342  0.115811  0.133126  0.000263  0.980167  0.0
H  H8  1  0.43240318  0.54436738  0.06958483  1  0.087426  4e-06  0.107239  0.106447  -1e-06  1.000264  0.0
H  H9  1  0.56766213  0.04431323  0.43043520  1  0.087953  -0.0  0.107436  0.106709  -3e-06  0.999941  0.0
H  H10  1  0.56760062  0.45562684  0.93041400  1  0.087374  -3e-06  0.107225  0.106398  -1.3e-05  1.000231  0.0
H  H11  1  0.43232468  0.95569494  0.56956109  1  0.088165  7e-06  0.107475  0.106764  -7e-06  0.999928  0.0
H  H12  1  0.59841682  0.45749227  0.22984427  1  0.106264  -0.00033  0.108381  0.117624  -0.000282  0.995931  0.0
H  H13  1  0.40168094  0.95754717  0.27012786  1  0.105187  0.000377  0.108505  0.117926  0.00028  0.9957  0.0
H  H14  1  0.40158598  0.54250660  0.77015501  1  0.106259  0.000332  0.108381  0.117656  0.000268  0.995887  0.0
H  H15  1  0.59831686  0.04244984  0.72987432  1  0.105084  0.000386  0.108522  0.117987  0.000282  0.995653  0.0
H  H16  1  0.58790671  0.18556060  0.01222363  1  0.091276  0.000278  0.109008  0.114935  0.000165  0.993174  0.0
H  H17  1  0.41205988  0.68556910  0.48775644  1  0.0911  0.000151  0.109052  0.114962  0.000122  0.993774  0.0
H  H18  1  0.41209609  0.81443548  0.98777767  1  0.091311  0.000284  0.108999  0.114941  0.00017  0.993266  0.0
H  H19  1  0.58793392  0.31443070  0.51224551  1  0.091326  -0.000193  0.109082  0.114973  -0.000151  0.99372  0.0
H  H20  1  0.04795704  0.36328522  0.95931972  1  0.101673  -0.000113  0.117941  0.089802  -6.6e-05  0.986658  0.0
H  H21  1  0.95204700  0.86335632  0.54068570  1  0.102024  8.7e-05  0.118096  0.089781  5.9e-05  0.986953  0.0
H  H22  1  0.95204577  0.63671552  0.04067685  1  0.101385  -0.000122  0.11792  0.089773  -7.1e-05  0.986677  0.0
H  H23  1  0.04794981  0.13666115  0.45931896  1  0.101975  -7.6e-05  0.118044  0.089689  -5.4e-05  0.98704  0.0
H  H24  1  0.38543352  0.14541204  0.06411898  1  0.100121  -9.4e-05  0.118731  0.094068  -7.1e-05  0.986029  0.0
H  H25  1  0.61449313  0.64538204  0.43586731  1  0.095367  8e-05  0.11907  0.094252  5.6e-05  0.986096  0.0
H  H26  1  0.61456228  0.85458032  0.93588207  1  0.100189  -9.1e-05  0.118738  0.094081  -6.9e-05  0.986022  0.0
H  H27  1  0.38550867  0.35462520  0.56414052  1  0.095797  -8.6e-05  0.119029  0.094244  -6.3e-05  0.986091  0.0
H  H28  1  0.18351349  0.56034909  0.99354353  1  0.08842  -2e-05  0.106289  0.112874  2e-06  1.012598  0.0
H  H29  1  0.81655379  0.06040015  0.50647562  1  0.088  1.4e-05  0.106305  0.112758  1.5e-05  1.01339  0.0
H  H30  1  0.81649331  0.43964885  0.00645261  1  0.088372  -1.9e-05  0.106318  0.11294  -0.0  1.012645  0.0
H  H31  1  0.18343502  0.93961360  0.49352315  1  0.088113  -2.1e-05  0.106271  0.112731  -2.6e-05  1.013161  0.0
C  C32  1  0.85629905  0.14081312  0.06806243  1  1.570495  -0.002247  0.215058  0.580611  0.000299  4.167407  -0.005
C  C33  1  0.14346122  0.64052121  0.43208088  1  1.568066  -0.000182  0.215724  0.581228  -0.000339  4.171022  -0.001
C  C34  1  0.14370575  0.85918204  0.93193865  1  1.57166  -0.00192  0.215083  0.580579  0.000538  4.167243  -0.004
C  C35  1  0.85653559  0.35947952  0.56791499  1  1.568015  0.000564  0.215476  0.580832  0.000348  4.171422  0.001
C  C36  1  0.43006782  0.34319463  0.07195882  1  0.024514  0.000679  -0.004991  0.018044  0.000452  4.012436  0.001
C  C37  1  0.56994639  0.84316104  0.42804370  1  0.027438  -0.000125  -0.004629  0.018221  -0.000118  4.013796  0.0
C  C38  1  0.56993298  0.65680331  0.92804270  1  0.024469  0.000381  -0.004936  0.018084  0.000222  4.012653  0.0
C  C39  1  0.43004641  0.15684434  0.57195870  1  0.027703  0.000527  -0.004567  0.018403  0.00036  4.013794  0.0
C  C40  1  0.86264864  0.43006499  0.33172426  1  1.560819  0.001202  0.2125  0.575177  0.000856  4.170629  0.002
C  C41  1  0.13753876  0.92990059  0.16852106  1  1.564183  -0.001547  0.212375  0.574816  0.000865  4.166384  -0.004
C  C42  1  0.13735716  0.56993203  0.66827705  1  1.561025  -0.000819  0.212599  0.575446  -0.000868  4.170541  -0.001
C  C43  1  0.86247004  0.07009178  0.83147755  1  1.564625  -0.001875  0.212488  0.574756  0.000624  4.166615  -0.004
C  C44  1  0.57600774  0.32598008  0.11457767  1  0.009879  0.001302  -0.007301  0.061548  0.000862  4.04359  0.001
C  C45  1  0.42401946  0.82595269  0.38547613  1  0.014293  0.000272  -0.007152  0.062407  9.7e-05  4.045173  0.0
C  C46  1  0.42399206  0.67401414  0.88542565  1  0.010054  -0.000179  -0.00742  0.061361  -0.000201  4.043784  0.0
C  C47  1  0.57597834  0.17404804  0.61452132  1  0.014559  0.001581  -0.007126  0.062315  0.001022  4.045111  0.001
C  C48  1  0.85338235  0.29240821  0.19428775  1  -0.028571  0.002103  -0.072888  -0.108124  0.001446  3.909892  0.001
C  C49  1  0.14662841  0.79226434  0.30583170  1  -0.028742  0.002117  -0.073216  -0.108758  0.001401  3.910907  0.002
C  C50  1  0.14662643  0.70757671  0.80572506  1  -0.029203  0.004313  -0.07274  -0.108105  0.002787  3.910109  0.003
C  C51  1  0.85337540  0.20773081  0.69416375  1  -0.028111  4.9e-05  -0.073081  -0.108527  0.000103  3.910956  0.0
C  C52  1  0.78163696  0.22609839  0.11290994  1  -0.047339  0.01549  -0.012024  -0.009953  0.010797  3.988403  0.012
C  C53  1  0.21820270  0.72599084  0.38722784  1  -0.048682  0.001378  -0.010985  -0.007987  0.000857  3.988128  0.001
C  C54  1  0.21836283  0.77388374  0.88710352  1  -0.046837  0.01659  -0.01206  -0.009922  0.011585  3.988697  0.013
C  C55  1  0.78179011  0.27402198  0.61277793  1  -0.048505  0.000427  -0.010977  -0.008066  0.000134  3.987927  0.0
C  C56  1  0.37038555  0.46099024  0.05322915  1  -0.077694  -0.000723  -0.068972  -0.085646  -0.00048  3.950678  0.0
C  C57  1  0.62967760  0.96097468  0.44678774  1  -0.080553  0.000647  -0.069209  -0.086136  0.000397  3.951295  0.0
C  C58  1  0.62961925  0.53900491  0.94676990  1  -0.077582  -0.000726  -0.068963  -0.085533  -0.000489  3.950519  0.0
C  C59  1  0.37031221  0.03903163  0.55321330  1  -0.080626  -0.000623  -0.069245  -0.086161  -0.000423  3.951091  0.0
C  C60  1  0.64903317  0.39297385  0.19604461  1  -0.051068  0.003277  -0.076263  -0.136312  0.002081  3.914851  0.002
C  C61  1  0.35116661  0.89296788  0.30402484  1  -0.058158  -1.1e-05  -0.076985  -0.137923  5.7e-05  3.916475  0.0
C  C62  1  0.35096964  0.60703339  0.80395128  1  -0.051333  0.001395  -0.076214  -0.136318  0.000912  3.914877  0.0
C  C63  1  0.64883519  0.10702076  0.69596947  1  -0.058075  0.001639  -0.076983  -0.138031  0.001171  3.916293  0.001
C  C64  1  0.64297693  0.23989785  0.07475152  1  -0.020974  0.002572  -0.077723  -0.14649  0.001757  3.925366  0.002
C  C65  1  0.35687343  0.73986085  0.42526539  1  -0.019009  -0.002102  -0.078293  -0.147495  -0.001419  3.926894  -0.002
C  C66  1  0.35702386  0.76009079  0.92525473  1  -0.021079  0.002623  -0.077617  -0.146355  0.001783  3.925568  0.002
C  C67  1  0.64311837  0.26014639  0.57473745  1  -0.019447  0.001058  -0.078359  -0.147458  0.000622  3.926892  0.001
C  C68  1  0.78643090  0.37309777  0.23755343  1  -0.008205  3e-06  -0.012211  -0.012206  -0.000166  3.977872  0.0
C  C69  1  0.21378596  0.87291470  0.26257018  1  -0.005063  0.016874  -0.013318  -0.013746  0.011748  3.97962  0.013
C  C70  1  0.21357891  0.62691134  0.76244068  1  -0.008044  0.000983  -0.012373  -0.012293  0.000643  3.978103  0.001
C  C71  1  0.78622185  0.12705907  0.73741333  1  -0.005419  0.015384  -0.013415  -0.013648  0.010738  3.979553  0.012
C  C72  1  0.15649281  0.36147687  0.99148171  1  0.468729  -0.000845  0.049629  0.099141  -0.000571  3.936961  -0.001
C  C73  1  0.84351498  0.86156660  0.50852292  1  0.467077  0.000741  0.049836  0.098931  0.000479  3.937596  0.0
C  C74  1  0.84350900  0.63852200  0.00851463  1  0.469128  -0.000858  0.049728  0.099231  -0.000581  3.937072  -0.001
C  C75  1  0.15648083  0.13845180  0.49148218  1  0.466033  -0.000711  0.050038  0.099366  -0.000475  3.937415  0.0
C  C76  1  0.34517312  0.23950212  0.04925121  1  0.518674  -0.000804  0.052616  0.051803  -0.000588  3.911546  -0.001
C  C77  1  0.65473200  0.73950333  0.45073030  1  0.522554  0.000812  0.052482  0.051864  0.000557  3.911376  0.001
C  C78  1  0.65482368  0.76049210  0.95074872  1  0.5186  -0.000904  0.052564  0.05175  -0.000661  3.911582  -0.001
C  C79  1  0.34527080  0.26050763  0.54927505  1  0.522107  -0.000651  0.052508  0.051855  -0.000458  3.91169  0.0
C  C80  1  0.23224146  0.47017891  0.01132766  1  -0.034976  0.000378  -0.083395  -0.124596  0.000241  3.994124  0.0
C  C81  1  0.76781810  0.97021991  0.48868238  1  -0.033028  -0.000266  -0.083576  -0.124362  -0.000192  3.995117  0.0
C  C82  1  0.76776434  0.52981810  0.98866959  1  -0.035179  0.000369  -0.083444  -0.124735  0.000241  3.994165  0.0
C  C83  1  0.23217171  0.02979291  0.51131865  1  -0.033039  0.000259  -0.083678  -0.124564  0.000172  3.994694  0.0
N  N84  1  0.21216344  0.24814400  0.01140913  1  -1.211696  -0.001639  -0.334503  -0.227752  -0.000482  3.526317  0.0
N  N85  1  0.78773172  0.74824355  0.48858177  1  -1.212268  0.001718  -0.335673  -0.227672  0.000775  3.531614  0.0
N  N86  1  0.78783636  0.75185208  0.98858946  1  -1.211632  -0.00178  -0.334572  -0.227794  -0.00057  3.526464  0.0
N  N87  1  0.21226908  0.25177113  0.51142583  1  -1.211673  -0.001525  -0.335684  -0.227956  -0.000697  3.53167  0.0
O  O88  1  0.80441262  0.03501932  0.03998894  1  -1.097233  0.097581  -0.312255  -0.509222  0.062646  2.31476  0.089
O  O89  1  0.19560125  0.53492794  0.45993208  1  -1.096578  0.087564  -0.311768  -0.508591  0.056577  2.318888  0.079
O  O90  1  0.19559219  0.96499258  0.95999997  1  -1.097268  0.097977  -0.312382  -0.50933  0.062888  2.314533  0.089
O  O91  1  0.80437857  0.46505326  0.54004436  1  -1.096562  -0.086987  -0.311537  -0.508278  -0.058842  2.31925  -0.079
O  O92  1  0.96681968  0.18271794  0.06299800  1  -1.11352  0.089353  -0.312129  -0.528443  0.057327  2.356123  0.082
O  O93  1  0.03302192  0.68255383  0.43693518  1  -1.112185  -0.079302  -0.311659  -0.527568  -0.053777  2.360963  -0.072
O  O94  1  0.03318313  0.81728558  0.93699722  1  -1.114925  0.089225  -0.312225  -0.528528  0.057259  2.356355  0.082
O  O95  1  0.96698288  0.31744783  0.56306725  1  -1.11209  0.079811  -0.311562  -0.527376  0.051669  2.360661  0.072
O  O96  1  0.81134534  0.52347295  0.35989494  1  -1.1027  -0.090361  -0.312253  -0.507009  -0.061055  2.320182  -0.082
O  O97  1  0.18830165  0.02365827  0.14001224  1  -1.103849  0.102213  -0.312671  -0.506501  0.065522  2.318501  0.092
O  O98  1  0.18863745  0.47649709  0.64011058  1  -1.103014  0.090939  -0.312479  -0.507294  0.058682  2.319861  0.082
O  O99  1  0.81169216  0.97637315  0.85999782  1  -1.103824  0.101609  -0.312587  -0.506326  0.065142  2.319083  0.092
O  O100  1  0.97216129  0.37596955  0.37658297  1  -1.114057  0.077805  -0.313067  -0.527644  0.050398  2.381315  0.07
O  O101  1  0.02779367  0.87601790  0.12353961  1  -1.113851  0.087159  -0.312931  -0.527467  0.055951  2.377435  0.079
O  O102  1  0.02784751  0.62402468  0.62342173  1  -1.114466  -0.077374  -0.313075  -0.527778  -0.052504  2.381568  -0.07
O  O103  1  0.97221813  0.12398563  0.87646104  1  -1.113903  0.087435  -0.312982  -0.527528  0.056122  2.377151  0.08
