# generated using pymatgen
data_CuH12C20IN2
_symmetry_space_group_name_H-M   'P 1'
_cell_length_a   10.97076764
_cell_length_b   12.17180538
_cell_length_c   13.24210000
_cell_angle_alpha   90.00000000
_cell_angle_beta   106.41371131
_cell_angle_gamma   90.00000000
_symmetry_Int_Tables_number   1
_chemical_formula_structural   CuH12C20IN2
_chemical_formula_sum   'Cu4 H48 C80 I4 N8'
_cell_volume   1696.20777240
_cell_formula_units_Z   4
loop_
 _symmetry_equiv_pos_site_id
 _symmetry_equiv_pos_as_xyz
  1  'x, y, z'
loop_
 _atom_site_type_symbol
 _atom_site_label
 _atom_site_symmetry_multiplicity
 _atom_site_fract_x
 _atom_site_fract_y
 _atom_site_fract_z
 _atom_site_occupancy
 _atom_site_hle17_bader_spin_density
 _atom_site_hle17_ddec_charge
 _atom_site_hle17_ddec_spin_density
 _atom_site_hle17_ddec_sum_bond_order
 _atom_site_hle17_magmom
 _atom_site_hse06_10hf_bader_spin_density
 _atom_site_hse06_10hf_ddec_charge
 _atom_site_hse06_10hf_ddec_spin_density
 _atom_site_hse06_10hf_ddec_sum_bond_order
 _atom_site_hse06_10hf_magmom
 _atom_site_hse06_bader_spin_density
 _atom_site_hse06_ddec_charge
 _atom_site_hse06_ddec_spin_density
 _atom_site_hse06_ddec_sum_bond_order
 _atom_site_hse06_magmom
 _atom_site_pbe_bader_charge
 _atom_site_pbe_bader_spin_density
 _atom_site_pbe_cm5_charge
 _atom_site_pbe_ddec_charge
 _atom_site_pbe_ddec_spin_density
 _atom_site_pbe_ddec_sum_bond_order
 _atom_site_pbe_magmom
Cu  Cu0  1  0.87334083  0.01652836  0.99319707  1  0  0.332472  0  2.074253  0  0  0.236936  0  2.549421  0  0  0.240038  0  2.502085  0  0.538419  0  0.364943  0.239156  0  2.578245  0
Cu  Cu1  1  0.62665976  0.51652568  0.50680243  1  0  0.33244  0  2.07427  0  0  0.236934  0  2.549425  0  0  0.240029  0  2.502141  0  0.538423  0  0.364925  0.239148  0  2.578231  0
Cu  Cu2  1  0.12665925  0.98347530  0.00680000  1  0  0.33241  0  2.074275  0  0  0.236902  0  2.549403  0  0  0.239967  0  2.502139  0  0.538468  0  0.364927  0.239119  0  2.578223  0
Cu  Cu3  1  0.37333652  0.48347224  0.49319678  1  0  0.332426  0  2.074285  0  0  0.236937  0  2.549442  0  0  0.240013  0  2.502142  0  0.538377  0  0.364924  0.239138  0  2.57826  0
H  H4  1  0.94081445  0.19372722  0.15395780  1  0  0.059202  0  0.994206  0  0  0.066082  0  1.066835  0  0  0.069  0  1.063804  0  0.062185  0  0.095751  0.063893  0  1.069069  0
H  H5  1  0.55918900  0.69372864  0.34604388  1  0  0.059123  0  0.994219  0  0  0.066026  0  1.066835  0  0  0.068942  0  1.063806  0  0.062216  0  0.095742  0.063837  0  1.069071  0
H  H6  1  0.05918943  0.80627070  0.84604394  1  0  0.059133  0  0.99421  0  0  0.066039  0  1.06682  0  0  0.068958  0  1.063789  0  0.062228  0  0.09575  0.063851  0  1.069056  0
H  H7  1  0.44081013  0.30627338  0.65395750  1  0  0.059171  0  0.994212  0  0  0.06604  0  1.066849  0  0  0.068958  0  1.063817  0  0.062245  0  0.095748  0.063851  0  1.069084  0
H  H8  1  0.84770624  0.27843446  0.28792315  1  0  0.099266  0  0.979093  0  0  0.108399  0  1.041289  0  0  0.110545  0  1.042499  0  0.100516  0  0.100771  0.106848  0  1.040686  0
H  H9  1  0.65229816  0.77843916  0.21208177  1  0  0.099279  0  0.979119  0  0  0.108449  0  1.041254  0  0  0.110595  0  1.042463  0  0.100545  0  0.100811  0.106899  0  1.040646  0
H  H10  1  0.15230049  0.72156017  0.71208152  1  0  0.099282  0  0.979148  0  0  0.108456  0  1.041275  0  0  0.110601  0  1.042483  0  0.10044  0  0.10081  0.106905  0  1.040665  0
H  H11  1  0.34770192  0.22156368  0.78792059  1  0  0.09923  0  0.979094  0  0  0.108387  0  1.041266  0  0  0.110533  0  1.042475  0  0.100495  0  0.100765  0.106834  0  1.040659  0
H  H12  1  0.64756977  0.19776360  0.31400230  1  0  0.097616  0  0.961674  0  0  0.106627  0  1.025556  0  0  0.109908  0  1.023345  0  0.11371  0  0.094626  0.104181  0  1.027117  0
H  H13  1  0.85243463  0.69776995  0.18600111  1  0  0.097662  0  0.961782  0  0  0.106672  0  1.025678  0  0  0.109941  0  1.023478  0  0.113648  0  0.094646  0.104221  0  1.027243  0
H  H14  1  0.35243601  0.80223021  0.68600139  1  0  0.097665  0  0.961764  0  0  0.106674  0  1.025664  0  0  0.109944  0  1.023463  0  0.113641  0  0.09464  0.104224  0  1.027229  0
H  H15  1  0.14756545  0.30223208  0.81400125  1  0  0.097647  0  0.961775  0  0  0.106675  0  1.02564  0  0  0.109939  0  1.023446  0  0.113631  0  0.09464  0.104219  0  1.027217  0
H  H16  1  0.55403015  0.03105127  0.20661187  1  0  0.111081  0  0.948728  0  0  0.122415  0  1.005012  0  0  0.1248  0  1.005888  0  0.091323  0  0.106396  0.120789  0  1.004455  0
H  H17  1  0.94597330  0.53105516  0.29338754  1  0  0.111091  0  0.948759  0  0  0.122459  0  1.005007  0  0  0.12483  0  1.0059  0  0.091428  0  0.106415  0.120832  0  1.00445  0
H  H18  1  0.44597373  0.96894500  0.79338760  1  0  0.111076  0  0.94878  0  0  0.122442  0  1.00503  0  0  0.124814  0  1.005922  0  0.091409  0  0.1064  0.120815  0  1.004473  0
H  H19  1  0.05402488  0.46894605  0.70661211  1  0  0.111054  0  0.948787  0  0  0.122405  0  1.005055  0  0  0.124781  0  1.005942  0  0.091392  0  0.106381  0.120778  0  1.004498  0
H  H20  1  0.67215720  0.72940371  0.87590574  1  0  0.099117  0  0.959356  0  0  0.106333  0  1.026653  0  0  0.109045  0  1.02598  0  0.059972  0  0.098197  0.104344  0  1.027258  0
H  H21  1  0.82784720  0.22940229  0.62409842  1  0  0.099044  0  0.959337  0  0  0.106242  0  1.026657  0  0  0.108954  0  1.025986  0  0.059796  0  0.098157  0.104254  0  1.02726  0
H  H22  1  0.32784478  0.27059913  0.12409782  1  0  0.099089  0  0.959406  0  0  0.106312  0  1.026689  0  0  0.109023  0  1.026019  0  0.059982  0  0.098202  0.104322  0  1.027293  0
H  H23  1  0.17215574  0.77059563  0.37590310  1  0  0.099108  0  0.959338  0  0  0.106318  0  1.026638  0  0  0.10903  0  1.025966  0  0.059967  0  0.098197  0.104328  0  1.027242  0
H  H24  1  0.56039865  0.56277847  0.78510490  1  0  0.092758  0  0.963676  0  0  0.101857  0  1.026435  0  0  0.104144  0  1.026328  0  0.100276  0  0.09576  0.100184  0  1.026551  0
H  H25  1  0.93960575  0.06277705  0.71489624  1  0  0.092677  0  0.963632  0  0  0.101774  0  1.026425  0  0  0.104061  0  1.026319  0  0.100297  0  0.095717  0.100102  0  1.02654  0
H  H26  1  0.43960428  0.43722273  0.21489737  1  0  0.09274  0  0.963655  0  0  0.10182  0  1.026449  0  0  0.104107  0  1.026343  0  0.100258  0  0.095745  0.100147  0  1.026565  0
H  H27  1  0.06039719  0.93721922  0.28510301  1  0  0.092729  0  0.963736  0  0  0.101868  0  1.026441  0  0  0.104155  0  1.026336  0  0.100421  0  0.095756  0.100193  0  1.026558  0
H  H28  1  0.37446635  0.48811987  0.83491694  1  0  0.081192  0  0.996937  0  0  0.090849  0  1.060749  0  0  0.091965  0  1.062993  0  0.095346  0  0.094381  0.09002  0  1.059341  0
H  H29  1  0.12553986  0.98812047  0.66508305  1  0  0.081224  0  0.996827  0  0  0.090834  0  1.060686  0  0  0.091949  0  1.06293  0  0.095282  0  0.094396  0.090005  0  1.059277  0
H  H30  1  0.62554038  0.51187887  0.16508623  1  0  0.08123  0  0.996829  0  0  0.09085  0  1.060675  0  0  0.091966  0  1.062919  0  0.095284  0  0.0944  0.090021  0  1.059267  0
H  H31  1  0.87446497  0.01187909  0.33491589  1  0  0.08122  0  0.996891  0  0  0.090849  0  1.060731  0  0  0.091965  0  1.062976  0  0.095326  0  0.094391  0.090019  0  1.059323  0
H  H32  1  0.29227544  0.58371949  0.96733977  1  0  0.09633  0  0.94361  0  0  0.110725  0  0.997855  0  0  0.113414  0  0.996767  0  0.050186  0  0.103632  0.108833  0  0.998564  0
H  H33  1  0.20772508  0.08371971  0.53265737  1  0  0.096411  0  0.9437  0  0  0.110808  0  0.997927  0  0  0.113496  0  0.996843  0  0.050446  0  0.103693  0.108916  0  0.998636  0
H  H34  1  0.70772464  0.41628007  0.03265957  1  0  0.096318  0  0.943615  0  0  0.110711  0  0.997865  0  0  0.1134  0  0.99678  0  0.050539  0  0.103629  0.108818  0  0.998575  0
H  H35  1  0.79227500  0.91627985  0.46733895  1  0  0.096323  0  0.943614  0  0  0.110715  0  0.997864  0  0  0.113404  0  0.996777  0  0.050132  0  0.103631  0.108822  0  0.998573  0
H  H36  1  0.43788245  0.83181005  0.33995248  1  0  0.100165  0  0.989904  0  0  0.108461  0  1.056047  0  0  0.112138  0  1.054478  0  0.103753  0  0.094301  0.105784  0  1.057238  0
H  H37  1  0.06210762  0.33181766  0.16004221  1  0  0.100173  0  0.98997  0  0  0.108424  0  1.056152  0  0  0.112097  0  1.05458  0  0.103717  0  0.094285  0.105751  0  1.057337  0
H  H38  1  0.56210813  0.16818458  0.66004237  1  0  0.100162  0  0.989902  0  0  0.108412  0  1.05609  0  0  0.112085  0  1.054518  0  0.103739  0  0.094268  0.105738  0  1.057277  0
H  H39  1  0.93788581  0.66818847  0.83995557  1  0  0.100191  0  0.989872  0  0  0.108465  0  1.056028  0  0  0.112142  0  1.054459  0  0.103742  0  0.094301  0.105787  0  1.057222  0
H  H40  1  0.40223518  0.97961474  0.45781617  1  0  0.090134  0  0.948449  0  0  0.101784  0  1.007632  0  0  0.104957  0  1.004691  0  0.114349  0  0.103874  0.09939  0  1.009908  0
H  H41  1  0.09776153  0.47962154  0.04218234  1  0  0.090138  0  0.948502  0  0  0.101768  0  1.007712  0  0  0.104942  0  1.004771  0  0.114303  0  0.103866  0.099376  0  1.009987  0
H  H42  1  0.59776110  0.02037989  0.54218379  1  0  0.090162  0  0.948508  0  0  0.10179  0  1.007717  0  0  0.104963  0  1.004776  0  0.114323  0  0.103885  0.099397  0  1.009992  0
H  H43  1  0.90223665  0.52038377  0.95781806  1  0  0.090107  0  0.948506  0  0  0.10178  0  1.007672  0  0  0.104954  0  1.004731  0  0.114319  0  0.103865  0.099385  0  1.00995  0
H  H44  1  0.27383795  0.14660110  0.37523681  1  0  0.097401  0  0.99459  0  0  0.103442  0  1.06207  0  0  0.106286  0  1.062178  0  0.116752  0  0.094851  0.101214  0  1.06249  0
H  H45  1  0.22616637  0.64660416  0.12476499  1  0  0.097408  0  0.994565  0  0  0.103433  0  1.062063  0  0  0.106278  0  1.062171  0  0.117062  0  0.094846  0.101206  0  1.062481  0
H  H46  1  0.72616593  0.85339682  0.62476568  1  0  0.097388  0  0.994595  0  0  0.103427  0  1.062083  0  0  0.106273  0  1.062189  0  0.117097  0  0.094851  0.101199  0  1.062502  0
H  H47  1  0.77383752  0.35339868  0.87523750  1  0  0.097417  0  0.994564  0  0  0.103468  0  1.06204  0  0  0.106314  0  1.062146  0  0.116734  0  0.094848  0.101238  0  1.062463  0
H  H48  1  0.16842415  0.14436149  0.18132082  1  0  0.065051  0  0.980366  0  0  0.071293  0  1.053356  0  0  0.074517  0  1.050179  0  0.103943  0  0.098505  0.068888  0  1.055711  0
H  H49  1  0.33157637  0.64436045  0.31868085  1  0  0.065049  0  0.980375  0  0  0.071282  0  1.053378  0  0  0.074508  0  1.050198  0  0.103983  0  0.098495  0.068877  0  1.055734  0
H  H50  1  0.83157688  0.85564217  0.81868177  1  0  0.065057  0  0.980355  0  0  0.071288  0  1.053359  0  0  0.074512  0  1.050182  0  0.103861  0  0.0985  0.068883  0  1.055714  0
H  H51  1  0.66842561  0.35563911  0.68132195  1  0  0.065079  0  0.980365  0  0  0.07133  0  1.05334  0  0  0.074553  0  1.050164  0  0.103969  0  0.098509  0.068924  0  1.055695  0
C  C52  1  0.85611965  0.15966654  0.16978417  1  0  0.117088  0  3.714317  0  0  0.087955  0  3.96334  0  0  0.093871  0  3.979391  0  0.478875  0  0.03558  0.084166  0  3.952747  0
C  C53  1  0.64388379  0.65966796  0.33021600  1  0  0.117232  0  3.714359  0  0  0.088084  0  3.963396  0  0  0.093998  0  3.979447  0  0.478492  0  0.035604  0.08429  0  3.952803  0
C  C54  1  0.14388423  0.84033220  0.83021531  1  0  0.117208  0  3.714391  0  0  0.08806  0  3.963434  0  0  0.093983  0  3.979477  0  0.478474  0  0.035587  0.084269  0  3.95284  0
C  C55  1  0.35611534  0.34033242  0.66978387  1  0  0.117159  0  3.714386  0  0  0.088059  0  3.963406  0  0  0.093969  0  3.97945  0  0.478478  0  0.035588  0.084267  0  3.95281  0
C  C56  1  0.80314669  0.20688467  0.24324553  1  0  -0.119837  0  3.738723  0  0  -0.130814  0  3.986213  0  0  -0.136591  0  4.006766  0  -0.027446  0  -0.086241  -0.127163  0  3.972411  0
C  C57  1  0.69685581  0.70688774  0.25675668  1  0  -0.120012  0  3.738888  0  0  -0.131022  0  3.9864  0  0  -0.136797  0  4.006947  0  -0.027099  0  -0.086311  -0.127366  0  3.972595  0
C  C58  1  0.19685720  0.79311160  0.75675621  1  0  -0.119998  0  3.738968  0  0  -0.131002  0  3.986472  0  0  -0.136774  0  4.007017  0  -0.027113  0  -0.086296  -0.127342  0  3.972662  0
C  C59  1  0.30314237  0.29311264  0.74324448  1  0  -0.119886  0  3.7388  0  0  -0.130893  0  3.986307  0  0  -0.13667  0  4.006855  0  -0.026992  0  -0.086261  -0.127235  0  3.972498  0
C  C60  1  0.69246951  0.16142716  0.25805197  1  0  -0.006227  0  3.724418  0  0  -0.023977  0  3.970597  0  0  -0.019031  0  3.985675  0  -0.09309  0  -0.070265  -0.027089  0  3.960499  0
C  C61  1  0.80753489  0.66143187  0.24194917  1  0  -0.006112  0  3.724477  0  0  -0.023882  0  3.970655  0  0  -0.018922  0  3.985731  0  -0.09321  0  -0.07026  -0.026989  0  3.960557  0
C  C62  1  0.30753532  0.83856829  0.74194923  1  0  -0.006147  0  3.724508  0  0  -0.023922  0  3.970689  0  0  -0.018964  0  3.985766  0  -0.093073  0  -0.070273  -0.027032  0  3.960592  0
C  C63  1  0.19246519  0.33857015  0.75805168  1  0  -0.006156  0  3.724485  0  0  -0.023935  0  3.970667  0  0  -0.018972  0  3.985748  0  -0.093225  0  -0.070261  -0.027042  0  3.960569  0
C  C64  1  0.64056461  0.06961991  0.19904349  1  0  -0.147461  0  3.67797  0  0  -0.16092  0  3.916009  0  0  -0.167667  0  3.93464  0  0.040583  0  -0.075993  -0.156533  0  3.90352  0
C  C65  1  0.85943789  0.56962298  0.30095721  1  0  -0.147561  0  3.678128  0  0  -0.161055  0  3.91617  0  0  -0.167793  0  3.934801  0  0.040495  0  -0.076039  -0.156669  0  3.90368  0
C  C66  1  0.35943927  0.93037718  0.80095674  1  0  -0.147567  0  3.678118  0  0  -0.16105  0  3.916157  0  0  -0.16779  0  3.934788  0  0.04047  0  -0.07603  -0.156663  0  3.903668  0
C  C67  1  0.14055934  0.43037740  0.69904448  1  0  -0.147418  0  3.678115  0  0  -0.160917  0  3.91613  0  0  -0.167656  0  3.93476  0  0.040616  0  -0.075986  -0.15653  0  3.90364  0
C  C68  1  0.69987757  0.02563219  0.12657321  1  0  0.269277  0  3.84173  0  0  0.266232  0  4.076125  0  0  0.27638  0  4.091466  0  0.53673  0  0.119971  0.259328  0  4.066087  0
C  C69  1  0.80012398  0.52563361  0.37342575  1  0  0.269201  0  3.841853  0  0  0.266196  0  4.07621  0  0  0.276345  0  4.091544  0  0.536816  0  0.119983  0.259291  0  4.066171  0
C  C70  1  0.30012441  0.97436655  0.87342506  1  0  0.269238  0  3.8417  0  0  0.266223  0  4.076094  0  0  0.276379  0  4.091426  0  0.536831  0  0.119999  0.259318  0  4.066055  0
C  C71  1  0.19987325  0.47436595  0.62657519  1  0  0.269028  0  3.841771  0  0  0.266087  0  4.076075  0  0  0.276228  0  4.091407  0  0.536457  0  0.120003  0.25918  0  4.066036  0
C  C72  1  0.64902458  0.93192174  0.06661102  1  0  -0.124632  0  3.819288  0  0  -0.130283  0  4.085408  0  0  -0.132561  0  4.108849  0  0.027643  0  -0.037398  -0.129139  0  4.070826  0
C  C73  1  0.85097981  0.43192196  0.43338861  1  0  -0.124636  0  3.819461  0  0  -0.130299  0  4.085557  0  0  -0.132574  0  4.108993  0  0.028052  0  -0.037421  -0.129155  0  4.070976  0
C  C74  1  0.35098025  0.06807947  0.93338867  1  0  -0.124603  0  3.819391  0  0  -0.130264  0  4.085497  0  0  -0.132536  0  4.108927  0  0.02806  0  -0.037401  -0.12912  0  4.070915  0
C  C75  1  0.14901647  0.56808253  0.56661135  1  0  -0.124424  0  3.819404  0  0  -0.130111  0  4.085477  0  0  -0.13239  0  4.108912  0  0.028612  0  -0.037395  -0.128969  0  4.070901  0
C  C76  1  0.60222342  0.84889379  0.02001535  1  0  -0.050655  0  3.851201  0  0  -0.05047  0  4.105935  0  0  -0.052025  0  4.133384  0  -0.364192  0  -0.024466  -0.049598  0  4.088462  0
C  C77  1  0.89777813  0.34889483  0.47998362  1  0  -0.050549  0  3.851377  0  0  -0.050391  0  4.106059  0  0  -0.051942  0  4.133505  0  -0.364548  0  -0.024425  -0.049518  0  4.088585  0
C  C78  1  0.39777666  0.15110495  0.97998399  1  0  -0.050581  0  3.851425  0  0  -0.0504  0  4.106138  0  0  -0.051952  0  4.133581  0  -0.364442  0  -0.024424  -0.049528  0  4.088663  0
C  C79  1  0.10222480  0.65110144  0.52002168  1  0  -0.050547  0  3.851286  0  0  -0.050353  0  4.105986  0  0  -0.051904  0  4.133427  0  -0.364759  0  -0.024359  -0.04948  0  4.088517  0
C  C80  1  0.54389395  0.75223188  0.97068763  1  0  0.07091  0  3.859139  0  0  0.083308  0  4.081455  0  0  0.084449  0  4.103041  0  0.073677  0  0.004893  0.082344  0  4.067013  0
C  C81  1  0.95610569  0.25223045  0.52931013  1  0  0.070689  0  3.859403  0  0  0.083193  0  4.081555  0  0  0.084332  0  4.103144  0  0.073628  0  0.004851  0.08223  0  4.067113  0
C  C82  1  0.45610423  0.24776932  0.02931202  1  0  0.070722  0  3.859405  0  0  0.083145  0  4.081683  0  0  0.084284  0  4.103271  0  0.07696  0  0.004811  0.082182  0  4.067239  0
C  C83  1  0.04389439  0.74776910  0.47068920  1  0  0.070705  0  3.85911  0  0  0.083111  0  4.081395  0  0  0.084252  0  4.102983  0  0.07346  0  0.004832  0.082148  0  4.066951  0
C  C84  1  0.58886306  0.69693441  0.89508068  1  0  -0.098354  0  3.707071  0  0  -0.11773  0  3.952405  0  0  -0.120222  0  3.971995  0  0.034872  0  -0.080935  -0.11615  0  3.939242  0
C  C85  1  0.91113944  0.19693299  0.60491926  1  0  -0.098235  0  3.707092  0  0  -0.117619  0  3.952386  0  0  -0.120112  0  3.971979  0  0.035081  0  -0.080868  -0.116041  0  3.939225  0
C  C86  1  0.41113797  0.30306679  0.10491964  1  0  -0.098263  0  3.707245  0  0  -0.117647  0  3.95256  0  0  -0.12014  0  3.972153  0  0.034993  0  -0.080905  -0.116068  0  3.939398  0
C  C87  1  0.08886159  0.80306493  0.39507954  1  0  -0.098258  0  3.70707  0  0  -0.117637  0  3.952427  0  0  -0.12013  0  3.97202  0  0.034889  0  -0.080903  -0.116058  0  3.939266  0
C  C88  1  0.52697970  0.60340104  0.84553493  1  0  -0.053991  0  3.757586  0  0  -0.069315  0  4.010629  0  0  -0.070147  0  4.031041  0  -0.056621  0  -0.087044  -0.068503  0  3.996694  0
C  C89  1  0.97302280  0.10339879  0.65446350  1  0  -0.054048  0  3.757446  0  0  -0.069382  0  4.0105  0  0  -0.070216  0  4.030915  0  -0.056562  0  -0.087132  -0.06857  0  3.996563  0
C  C90  1  0.47302133  0.39660098  0.15446538  1  0  -0.053948  0  3.75761  0  0  -0.069265  0  4.010659  0  0  -0.070095  0  4.031072  0  -0.056713  0  -0.087029  -0.068452  0  3.996723  0
C  C91  1  0.02697918  0.89659830  0.34553402  1  0  -0.054039  0  3.75759  0  0  -0.069399  0  4.010621  0  0  -0.070232  0  4.031036  0  -0.056771  0  -0.087083  -0.068587  0  3.996687  0
C  C92  1  0.42116774  0.56239890  0.87229811  1  0  -0.053484  0  3.757175  0  0  -0.069118  0  4.008367  0  0  -0.070557  0  4.030101  0  -0.072169  0  -0.088054  -0.068235  0  3.993539  0
C  C93  1  0.07883467  0.06239748  0.62769947  1  0  -0.053342  0  3.756959  0  0  -0.068919  0  4.008139  0  0  -0.070352  0  4.029861  0  -0.103939  0  -0.087992  -0.068039  0  3.993318  0
C  C94  1  0.57883424  0.43760148  0.12770167  1  0  -0.053556  0  3.757187  0  0  -0.069149  0  4.008382  0  0  -0.070584  0  4.030105  0  -0.103961  0  -0.088106  -0.068266  0  3.993555  0
C  C95  1  0.92116636  0.93759961  0.37229783  1  0  -0.053547  0  3.75706  0  0  -0.069149  0  4.008259  0  0  -0.070585  0  4.029982  0  -0.072188  0  -0.088125  -0.068263  0  3.993431  0
C  C96  1  0.37519804  0.61554878  0.94714749  1  0  -0.100073  0  3.725877  0  0  -0.118804  0  3.970463  0  0  -0.121012  0  3.990197  0  0.018962  0  -0.080747  -0.116837  0  3.956603  0
C  C97  1  0.12480153  0.11554736  0.55284867  1  0  -0.100208  0  3.726018  0  0  -0.118955  0  3.970628  0  0  -0.121163  0  3.990364  0  0.050427  0  -0.080776  -0.116989  0  3.956767  0
C  C98  1  0.62480109  0.38445242  0.05285163  1  0  -0.100057  0  3.725922  0  0  -0.118789  0  3.970496  0  0  -0.120999  0  3.990234  0  0.050399  0  -0.080726  -0.116824  0  3.956637  0
C  C99  1  0.87519855  0.88445137  0.44714840  1  0  -0.100032  0  3.725827  0  0  -0.118765  0  3.970403  0  0  -0.120972  0  3.99014  0  0.019045  0  -0.080699  -0.1168  0  3.956543  0
C  C100  1  0.43445113  0.71123139  0.99693007  1  0  0.066781  0  3.850794  0  0  0.077899  0  4.077241  0  0  0.078287  0  4.099316  0  0.11873  0  0.004106  0.077513  0  4.062352  0
C  C101  1  0.06554653  0.21122996  0.50306716  1  0  0.066923  0  3.850782  0  0  0.078017  0  4.077195  0  0  0.078407  0  4.099269  0  0.118735  0  0.004135  0.077632  0  4.062307  0
C  C102  1  0.56554610  0.28877064  0.00306860  1  0  0.066867  0  3.850763  0  0  0.077983  0  4.077191  0  0  0.078375  0  4.099264  0  0.115273  0  0.004162  0.077599  0  4.062303  0
C  C103  1  0.93445165  0.78876959  0.49693174  1  0  0.06682  0  3.8509  0  0  0.077935  0  4.077341  0  0  0.078323  0  4.099415  0  0.118687  0  0.004085  0.077552  0  4.062451  0
C  C104  1  0.38770318  0.77162341  0.06951752  1  0  -0.052982  0  3.831488  0  0  -0.051517  0  4.084618  0  0  -0.052215  0  4.112443  0  -0.286784  0  -0.023846  -0.051198  0  4.066994  0
C  C105  1  0.11229543  0.27162281  0.43047992  1  0  -0.053036  0  3.83151  0  0  -0.051582  0  4.08466  0  0  -0.052282  0  4.112489  0  -0.286048  0  -0.023866  -0.051263  0  4.067037  0
C  C106  1  0.61229500  0.22837861  0.93048062  1  0  -0.052955  0  3.831382  0  0  -0.051495  0  4.08451  0  0  -0.052196  0  4.112341  0  -0.285866  0  -0.023837  -0.051175  0  4.066885  0
C  C107  1  0.88770560  0.72837921  0.56951813  1  0  -0.052909  0  3.831414  0  0  -0.051444  0  4.084542  0  0  -0.052142  0  4.11237  0  -0.286019  0  -0.023786  -0.051127  0  4.066917  0
C  C108  1  0.35215189  0.83339321  0.12811323  1  0  -0.128554  0  3.800285  0  0  -0.131232  0  4.062631  0  0  -0.134653  0  4.086755  0  -0.046608  0  -0.038253  -0.129741  0  4.048043  0
C  C109  1  0.14784387  0.33339343  0.37188506  1  0  -0.128555  0  3.800284  0  0  -0.1312  0  4.062637  0  0  -0.134623  0  4.086765  0  -0.047622  0  -0.038243  -0.129711  0  4.048052  0
C  C110  1  0.64784629  0.16660963  0.87188566  1  0  -0.128625  0  3.800282  0  0  -0.131289  0  4.062647  0  0  -0.134712  0  4.086777  0  -0.047737  0  -0.038286  -0.129799  0  4.048059  0
C  C111  1  0.85215336  0.66660530  0.62811513  1  0  -0.128737  0  3.800289  0  0  -0.131419  0  4.062658  0  0  -0.134844  0  4.086788  0  -0.047612  0  -0.038364  -0.129929  0  4.048068  0
C  C112  1  0.32371504  0.91113682  0.19814406  1  0  0.269377  0  3.835888  0  0  0.266749  0  4.069776  0  0  0.277231  0  4.085087  0  0.509925  0  0.116546  0.259553  0  4.060117  0
C  C113  1  0.17627787  0.41113868  0.30185206  1  0  0.269511  0  3.835788  0  0  0.266833  0  4.069782  0  0  0.277314  0  4.085092  0  0.510239  0  0.116577  0.259633  0  4.060121  0
C  C114  1  0.67628029  0.08886356  0.80185341  1  0  0.269431  0  3.83581  0  0  0.266758  0  4.069744  0  0  0.277237  0  4.08506  0  0.510181  0  0.11656  0.259565  0  4.060087  0
C  C115  1  0.82371936  0.58886334  0.69814586  1  0  0.269564  0  3.835727  0  0  0.266934  0  4.069621  0  0  0.277414  0  4.084933  0  0.510185  0  0.116633  0.259738  0  4.05996  0
C  C116  1  0.38002335  0.90300162  0.30720810  1  0  -0.15638  0  3.7047  0  0  -0.169641  0  3.940926  0  0  -0.17669  0  3.959506  0  0.008424  0  -0.083685  -0.165144  0  3.928718  0
C  C117  1  0.11996861  0.40300595  0.19278855  1  0  -0.156394  0  3.704772  0  0  -0.169598  0  3.941048  0  0  -0.176638  0  3.95962  0  0.008367  0  -0.083637  -0.165104  0  3.928839  0
C  C118  1  0.61997008  0.09699629  0.69278968  1  0  -0.156358  0  3.704623  0  0  -0.169569  0  3.940903  0  0  -0.176609  0  3.959474  0  0.008389  0  -0.083643  -0.165075  0  3.928694  0
C  C119  1  0.88002672  0.59699772  0.80721043  1  0  -0.156403  0  3.704572  0  0  -0.169644  0  3.94082  0  0  -0.176692  0  3.959398  0  0.008335  0  -0.083672  -0.165149  0  3.928611  0
C  C120  1  0.36081522  0.98628425  0.37290798  1  0  -0.012187  0  3.752133  0  0  -0.031426  0  4.002146  0  0  -0.026667  0  4.017748  0  -0.128379  0  -0.07404  -0.034575  0  3.991664  0
C  C121  1  0.13918054  0.48628858  0.12709031  1  0  -0.012269  0  3.752233  0  0  -0.031496  0  4.002235  0  0  -0.026738  0  4.017836  0  -0.128347  0  -0.074086  -0.034647  0  3.991756  0
C  C122  1  0.63918201  0.01371284  0.62709145  1  0  -0.012251  0  3.752243  0  0  -0.031475  0  4.00224  0  0  -0.026717  0  4.017843  0  -0.128334  0  -0.074056  -0.034624  0  3.991759  0
C  C123  1  0.86081764  0.51371508  0.87291009  1  0  -0.01218  0  3.752201  0  0  -0.031438  0  4.0022  0  0  -0.02668  0  4.017802  0  -0.128304  0  -0.074052  -0.034585  0  3.991716  0
C  C124  1  0.28789294  0.07710031  0.32808045  1  0  -0.117442  0  3.745504  0  0  -0.129718  0  3.993805  0  0  -0.134617  0  4.013046  0  -0.04408  0  -0.088464  -0.126659  0  3.980966  0
C  C125  1  0.21210568  0.57710256  0.17191851  1  0  -0.11739  0  3.745438  0  0  -0.129631  0  3.993708  0  0  -0.134533  0  4.012952  0  -0.044386  0  -0.08843  -0.126574  0  3.980872  0
C  C126  1  0.71210715  0.92289925  0.67192040  1  0  -0.117378  0  3.745485  0  0  -0.129636  0  3.993753  0  0  -0.134536  0  4.012997  0  -0.04449  0  -0.088443  -0.126578  0  3.980915  0
C  C127  1  0.78789440  0.42290029  0.82808159  1  0  -0.117416  0  3.745459  0  0  -0.129685  0  3.993737  0  0  -0.134586  0  4.012976  0  -0.043996  0  -0.088435  -0.126624  0  3.980889  0
C  C128  1  0.23042629  0.07732460  0.21994293  1  0  0.123905  0  3.69512  0  0  0.096488  0  3.943106  0  0  0.102863  0  3.957387  0  0.486475  0  0.03902  0.09215  0  3.933858  0
C  C129  1  0.26957233  0.57732520  0.28005602  1  0  0.123871  0  3.695198  0  0  0.096475  0  3.943181  0  0  0.10285  0  3.957466  0  0.486365  0  0.039009  0.092134  0  3.933931  0
C  C130  1  0.76957379  0.92267660  0.78005716  1  0  0.12388  0  3.695129  0  0  0.096465  0  3.9431  0  0  0.102837  0  3.957388  0  0.486578  0  0.039008  0.09213  0  3.933854  0
C  C131  1  0.73042870  0.42267518  0.71994429  1  0  0.123792  0  3.695138  0  0  0.096366  0  3.943128  0  0  0.102743  0  3.957412  0  0.486345  0  0.038965  0.09203  0  3.93388  0
I  I132  1  0.97680095  0.81849567  0.03957555  1  0  -0.502888  0  1.325254  0  0  -0.453085  0  1.707898  0  0  -0.473586  0  1.678424  0  -0.511825  0  -0.233619  -0.437361  0  1.726647  0
I  I133  1  0.52319395  0.31849425  0.46042336  1  0  -0.502859  0  1.325226  0  0  -0.453082  0  1.7079  0  0  -0.473589  0  1.678434  0  -0.511824  0  -0.233613  -0.437359  0  1.726647  0
I  I134  1  0.02319438  0.18150635  0.96042267  1  0  -0.502865  0  1.325275  0  0  -0.453093  0  1.70797  0  0  -0.473592  0  1.678491  0  -0.511853  0  -0.23362  -0.437369  0  1.726717  0
I  I135  1  0.47680233  0.68150367  0.53957660  1  0  -0.502874  0  1.325262  0  0  -0.453077  0  1.707918  0  0  -0.473579  0  1.678445  0  -0.511863  0  -0.233608  -0.437349  0  1.72666  0
N  N136  1  0.80710823  0.07120801  0.11134733  1  0  -0.307906  0  3.300428  0  0  -0.237696  0  3.579559  0  0  -0.247817  0  3.584871  0  -1.17581  0  -0.347813  -0.232009  0  3.57612  0
N  N137  1  0.69289331  0.57120779  0.38865239  1  0  -0.307835  0  3.300387  0  0  -0.237646  0  3.579529  0  0  -0.247773  0  3.584857  0  -1.175778  0  -0.347805  -0.231958  0  3.576085  0
N  N138  1  0.19289375  0.92879237  0.88865170  1  0  -0.307831  0  3.300342  0  0  -0.237661  0  3.579511  0  0  -0.247796  0  3.584838  0  -1.175739  0  -0.347807  -0.231977  0  3.576077  0
N  N139  1  0.30710297  0.42879177  0.61134757  1  0  -0.307849  0  3.300395  0  0  -0.237719  0  3.579551  0  0  -0.247815  0  3.584842  0  -1.175696  0  -0.347838  -0.232026  0  3.576106  0
N  N140  1  0.24448507  0.99605766  0.15513996  1  0  -0.306036  0  3.288594  0  0  -0.238047  0  3.566804  0  0  -0.247726  0  3.571742  0  -1.178591  0  -0.345215  -0.232596  0  3.563731  0
N  N141  1  0.25551259  0.49605870  0.34485878  1  0  -0.306102  0  3.288625  0  0  -0.238159  0  3.56694  0  0  -0.247839  0  3.571882  0  -1.178424  0  -0.345252  -0.232694  0  3.56385  0
N  N142  1  0.75551501  0.00394436  0.84485938  1  0  -0.306106  0  3.288626  0  0  -0.238087  0  3.566844  0  0  -0.247768  0  3.571788  0  -1.17856  0  -0.345267  -0.232648  0  3.563786  0
N  N143  1  0.74448749  0.50394168  0.65514132  1  0  -0.306101  0  3.288633  0  0  -0.238128  0  3.56689  0  0  -0.247811  0  3.571837  0  -1.178518  0  -0.345244  -0.232679  0  3.563816  0
