# generated using pymatgen
data_Ag2H24C28S3(OF)4
_symmetry_space_group_name_H-M   'P 1'
_cell_length_a   10.90016174
_cell_length_b   11.89692475
_cell_length_c   12.96270779
_cell_angle_alpha   107.11472146
_cell_angle_beta   111.44063605
_cell_angle_gamma   94.73507222
_symmetry_Int_Tables_number   1
_chemical_formula_structural   Ag2H24C28S3(OF)4
_chemical_formula_sum   'Ag4 H48 C56 S6 O8 F8'
_cell_volume   1460.81636460
_cell_formula_units_Z   2
loop_
 _symmetry_equiv_pos_site_id
 _symmetry_equiv_pos_as_xyz
  1  'x, y, z'
loop_
 _atom_site_type_symbol
 _atom_site_label
 _atom_site_symmetry_multiplicity
 _atom_site_fract_x
 _atom_site_fract_y
 _atom_site_fract_z
 _atom_site_occupancy
 _atom_site_hle17_bader_spin_density
 _atom_site_hle17_ddec_charge
 _atom_site_hle17_ddec_spin_density
 _atom_site_hle17_ddec_sum_bond_order
 _atom_site_hle17_magmom
 _atom_site_hse06_10hf_bader_spin_density
 _atom_site_hse06_10hf_ddec_charge
 _atom_site_hse06_10hf_ddec_spin_density
 _atom_site_hse06_10hf_ddec_sum_bond_order
 _atom_site_hse06_10hf_magmom
 _atom_site_hse06_bader_spin_density
 _atom_site_hse06_ddec_charge
 _atom_site_hse06_ddec_spin_density
 _atom_site_hse06_ddec_sum_bond_order
 _atom_site_hse06_magmom
 _atom_site_pbe_bader_spin_density
 _atom_site_pbe_cm5_charge
 _atom_site_pbe_ddec_charge
 _atom_site_pbe_ddec_spin_density
 _atom_site_pbe_ddec_sum_bond_order
 _atom_site_pbe_magmom
Ag  Ag0  1  0.87834311  0.47440269  0.20257294  1  0  0.388289  0  1.660199  0  0  0.262109  0  2.151778  0  0  0.28803  0  2.103151  0  0  0.360332  0.244326  0  2.184957  0
Ag  Ag1  1  0.12165830  0.52559732  0.79742919  1  0  0.388252  0  1.660254  0  0  0.26207  0  2.151835  0  0  0.287991  0  2.103209  0  0  0.360327  0.244286  0  2.185012  0
Ag  Ag2  1  0.86790084  0.36399672  0.87283996  1  0  0.55979  0  1.411227  0  0  0.443297  0  1.856816  0  0  0.471344  0  1.807291  0  0  0.410377  0.423263  0  1.891475  0
Ag  Ag3  1  0.13209938  0.63600239  0.12715924  1  0  0.559823  0  1.41118  0  0  0.443327  0  1.856773  0  0  0.471375  0  1.807249  0  0  0.410382  0.423292  0  1.891422  0
H  H4  1  0.91985156  0.58119421  0.49887331  1  0  0.097419  0  0.933353  0  0  0.117037  0  0.990633  0  0  0.118014  0  0.990284  0  0  0.100715  0.116219  0  0.99109  0
H  H5  1  0.08014811  0.41880670  0.50112697  1  0  0.097419  0  0.933335  0  0  0.117046  0  0.990615  0  0  0.118024  0  0.990265  0  0  0.100712  0.116228  0  0.991072  0
H  H6  1  0.06326487  0.63978656  0.48107149  1  0  0.102842  0  0.918089  0  0  0.125016  0  0.969447  0  0  0.125986  0  0.968755  0  0  0.103671  0.124272  0  0.970026  0
H  H7  1  0.93673360  0.36021345  0.51892741  1  0  0.102788  0  0.918131  0  0  0.125006  0  0.969452  0  0  0.125977  0  0.96876  0  0  0.103667  0.124263  0  0.97003  0
H  H8  1  0.07299526  0.88333224  0.50738115  1  0  0.079275  0  0.99861  0  0  0.083333  0  1.076022  0  0  0.085985  0  1.075183  0  0  0.090458  0.081465  0  1.076575  0
H  H9  1  0.92700420  0.11666777  0.49261728  1  0  0.07929  0  0.998619  0  0  0.083346  0  1.07603  0  0  0.085997  0  1.075192  0  0  0.090454  0.08148  0  1.07658  0
H  H10  1  0.06757717  0.07689543  0.64251360  1  0  0.082421  0  0.993337  0  0  0.087966  0  1.068319  0  0  0.090643  0  1.067244  0  0  0.092539  0.085995  0  1.069284  0
H  H11  1  0.93242250  0.92310549  0.35748437  1  0  0.082449  0  0.993283  0  0  0.087995  0  1.06826  0  0  0.090672  0  1.067187  0  0  0.092557  0.086028  0  1.069223  0
H  H12  1  0.90849613  0.88802171  0.81851430  1  0  0.093336  0  0.946774  0  0  0.104359  0  1.007246  0  0  0.107275  0  1.005659  0  0  0.097397  0.102191  0  1.008544  0
H  H13  1  0.09150397  0.11198101  0.18148507  1  0  0.093329  0  0.946726  0  0  0.104349  0  1.007206  0  0  0.107266  0  1.005618  0  0  0.097391  0.102181  0  1.008507  0
H  H14  1  0.91151082  0.69342116  0.68109506  1  0  0.092929  0  0.974477  0  0  0.102484  0  1.041551  0  0  0.104691  0  1.040768  0  0  0.093527  0.100764  0  1.042363  0
H  H15  1  0.08848884  0.30657975  0.31890522  1  0  0.092908  0  0.974449  0  0  0.102475  0  1.041513  0  0  0.10468  0  1.040731  0  0  0.09353  0.100764  0  1.042301  0
H  H16  1  0.05774043  0.17933656  0.85812567  1  0  0.121363  0  0.920085  0  0  0.138502  0  0.977482  0  0  0.139337  0  0.977197  0  0  0.106735  0.137736  0  0.97793  0
H  H17  1  0.94225804  0.82066345  0.14187322  1  0  0.121367  0  0.920044  0  0  0.138504  0  0.97746  0  0  0.139339  0  0.977174  0  0  0.106735  0.137739  0  0.977903  0
H  H18  1  0.92162920  0.10223456  0.87015630  1  0  0.111717  0  0.92969  0  0  0.128803  0  0.986771  0  0  0.130359  0  0.985308  0  0  0.103622  0.1276  0  0.987931  0
H  H19  1  0.07836906  0.89776455  0.12984152  1  0  0.111692  0  0.929724  0  0  0.128822  0  0.98675  0  0  0.130379  0  0.985288  0  0  0.103622  0.12762  0  0.98791  0
H  H20  1  0.65402569  0.08889005  0.71668909  1  0  0.097461  0  0.964036  0  0  0.110285  0  1.032825  0  0  0.110821  0  1.033802  0  0  0.097401  0.10982  0  1.032348  0
H  H21  1  0.34597629  0.91110817  0.28331196  1  0  0.097471  0  0.964015  0  0  0.110292  0  1.032816  0  0  0.110828  0  1.033794  0  0  0.097418  0.109824  0  1.032341  0
H  H22  1  0.62389049  0.15918070  0.60897626  1  0  0.110137  0  0.930076  0  0  0.128225  0  0.986639  0  0  0.128709  0  0.98745  0  0  0.104709  0.127865  0  0.986089  0
H  H23  1  0.37610831  0.84081661  0.39102355  1  0  0.110092  0  0.930074  0  0  0.128186  0  0.986649  0  0  0.12867  0  0.987459  0  0  0.104681  0.127827  0  0.986094  0
H  H24  1  0.63216558  0.87583015  0.65642471  1  0  0.087193  0  0.969345  0  0  0.097719  0  1.034002  0  0  0.099688  0  1.033884  0  0  0.096295  0.096321  0  1.034114  0
H  H25  1  0.36783499  0.12416626  0.34357540  1  0  0.08716  0  0.969387  0  0  0.097681  0  1.034048  0  0  0.09965  0  1.03393  0  0  0.096295  0.096289  0  1.034157  0
H  H26  1  0.63635236  0.68266769  0.52014963  1  0  0.094845  0  0.944593  0  0  0.107277  0  1.000846  0  0  0.10989  0  0.999587  0  0  0.098407  0.105338  0  1.001854  0
H  H27  1  0.36364646  0.31732962  0.47984787  1  0  0.094868  0  0.944583  0  0  0.107295  0  1.000837  0  0  0.109909  0  0.999577  0  0  0.098413  0.10536  0  1.001845  0
H  H28  1  0.69273181  0.86346808  0.29259183  1  0  0.093447  0  0.975423  0  0  0.104666  0  1.037245  0  0  0.106558  0  1.037872  0  0  0.097865  0.103244  0  1.037022  0
H  H29  1  0.30726841  0.13653103  0.70740814  1  0  0.093487  0  0.97546  0  0  0.104717  0  1.037251  0  0  0.106601  0  1.037904  0  0  0.097881  0.103293  0  1.037031  0
H  H30  1  0.68660177  0.05557699  0.42729885  1  0  0.09019  0  0.948348  0  0  0.102267  0  1.007838  0  0  0.104557  0  1.007779  0  0  0.097986  0.100678  0  1.007884  0
H  H31  1  0.31339824  0.94442122  0.57270158  1  0  0.090193  0  0.94839  0  0  0.102277  0  1.007872  0  0  0.104566  0  1.007812  0  0  0.097994  0.100692  0  1.007904  0
H  H32  1  0.66844352  0.56854038  0.34876879  1  0  0.100759  0  0.928747  0  0  0.115944  0  0.988276  0  0  0.117502  0  0.986902  0  0  0.098427  0.114792  0  0.989245  0
H  H33  1  0.33155594  0.43145963  0.65122965  1  0  0.100777  0  0.928718  0  0  0.115956  0  0.988245  0  0  0.117511  0  0.986874  0  0  0.09842  0.11481  0  0.98921  0
H  H34  1  0.63798389  0.62515830  0.23063033  1  0  0.127538  0  0.92645  0  0  0.144805  0  0.982259  0  0  0.146628  0  0.980599  0  0  0.107065  0.143323  0  0.983657  0
H  H35  1  0.36201655  0.37484172  0.76936841  1  0  0.127562  0  0.926462  0  0  0.144822  0  0.982266  0  0  0.146652  0  0.980585  0  0  0.10708  0.143343  0  0.983668  0
H  H36  1  0.62249055  0.30326371  0.22470594  1  0  0.102097  0  0.963111  0  0  0.116321  0  1.026493  0  0  0.11786  0  1.024894  0  0  0.093743  0.115148  0  1.027687  0
H  H37  1  0.37750890  0.69673630  0.77529327  1  0  0.102069  0  0.963064  0  0  0.116292  0  1.026467  0  0  0.117832  0  1.024865  0  0  0.093733  0.115114  0  1.027662  0
H  H38  1  0.77342201  0.26379205  0.30404056  1  0  0.09342  0  0.956626  0  0  0.112198  0  1.01716  0  0  0.112322  0  1.018156  0  0  0.09625  0.111986  0  1.01661  0
H  H39  1  0.22657766  0.73620886  0.69595973  1  0  0.093405  0  0.956589  0  0  0.112185  0  1.017131  0  0  0.11231  0  1.018125  0  0  0.09624  0.111971  0  1.016577  0
H  H40  1  0.43517649  0.16625585  0.20062918  1  0  0.087265  0  0.980897  0  0  0.093163  0  1.051472  0  0  0.096636  0  1.048448  0  0  0.089516  0.090497  0  1.05396  0
H  H41  1  0.56482416  0.83374506  0.79937142  1  0  0.087182  0  0.980884  0  0  0.093114  0  1.051425  0  0  0.096588  0  1.048401  0  0  0.089491  0.09045  0  1.053904  0
H  H42  1  0.29701192  0.95912757  0.11281775  1  0  0.084811  0  0.950694  0  0  0.098906  0  1.009078  0  0  0.101455  0  1.007761  0  0  0.096167  0.097004  0  1.010213  0
H  H43  1  0.70298752  0.04087243  0.88718299  1  0  0.084875  0  0.950637  0  0  0.098894  0  1.009102  0  0  0.101442  0  1.007785  0  0  0.096154  0.096993  0  1.010232  0
H  H44  1  0.63195673  0.81988096  0.06475535  1  0  0.100925  0  0.965849  0  0  0.107978  0  1.032933  0  0  0.111374  0  1.030594  0  0  0.095975  0.105406  0  1.034831  0
H  H45  1  0.36804414  0.18012085  0.93524555  1  0  0.100926  0  0.96583  0  0  0.10798  0  1.032912  0  0  0.111375  0  1.030575  0  0  0.095967  0.105413  0  1.034814  0
H  H46  1  0.76760315  0.02808935  0.14709305  1  0  0.084017  0  0.987997  0  0  0.0928  0  1.05295  0  0  0.09466  0  1.053913  0  0  0.092773  0.091533  0  1.052236  0
H  H47  1  0.23239673  0.97191246  0.85290600  1  0  0.084001  0  0.987948  0  0  0.092774  0  1.052918  0  0  0.094633  0  1.05388  0  0  0.092761  0.091509  0  1.052201  0
H  H48  1  0.68669148  0.27686197  0.93636969  1  0  0.089133  0  0.96337  0  0  0.102197  0  1.03975  0  0  0.104675  0  1.035785  0  0  0.088738  0.100195  0  1.042939  0
H  H49  1  0.31331015  0.72313895  0.06363198  1  0  0.089111  0  0.963401  0  0  0.102179  0  1.039769  0  0  0.104657  0  1.035804  0  0  0.088733  0.100172  0  1.042958  0
H  H50  1  0.57216880  0.31625418  0.00310120  1  0  0.114471  0  0.931578  0  0  0.128131  0  0.990987  0  0  0.130075  0  0.989946  0  0  0.101416  0.12659  0  0.99192  0
H  H51  1  0.42783262  0.68374583  0.99689939  1  0  0.114482  0  0.931539  0  0  0.12814  0  0.990947  0  0  0.130086  0  0.989906  0  0  0.101415  0.126596  0  0.991875  0
C  C52  1  0.96789758  0.65809487  0.48644635  1  0  -0.191235  0  3.674296  0  0  -0.241309  0  3.93514  0  0  -0.240102  0  3.946427  0  0  -0.143625  -0.242058  0  3.92746  0
C  C53  1  0.03210188  0.34190514  0.51355286  1  0  -0.191191  0  3.674285  0  0  -0.24134  0  3.935178  0  0  -0.240129  0  3.946467  0  0  -0.143637  -0.242094  0  3.927503  0
C  C54  1  0.98732222  0.77489322  0.58219039  1  0  0.082505  0  3.780919  0  0  0.108871  0  4.009072  0  0  0.107783  0  4.034874  0  0  -0.023569  0.109574  0  3.99157  0
C  C55  1  0.01267745  0.22510769  0.41780912  1  0  0.082484  0  3.780763  0  0  0.108879  0  4.008896  0  0  0.107779  0  4.034717  0  0  -0.023573  0.10958  0  3.991402  0
C  C56  1  0.03679031  0.88407296  0.57559960  1  0  -0.109533  0  3.741032  0  0  -0.127651  0  3.984058  0  0  -0.130295  0  4.005992  0  0  -0.094427  -0.125705  0  3.969045  0
C  C57  1  0.96320914  0.11592706  0.42439883  1  0  -0.109537  0  3.741027  0  0  -0.127669  0  3.984075  0  0  -0.130309  0  4.006014  0  0  -0.09442  -0.125722  0  3.969063  0
C  C58  1  0.03301599  0.99274707  0.65098927  1  0  -0.103535  0  3.7336  0  0  -0.12181  0  3.977498  0  0  -0.124039  0  3.998903  0  0  -0.091973  -0.120235  0  3.962989  0
C  C59  1  0.96698369  0.00725384  0.34900870  1  0  -0.103576  0  3.733659  0  0  -0.121881  0  3.977526  0  0  -0.124112  0  3.998934  0  0  -0.091986  -0.120292  0  3.962992  0
C  C60  1  0.98084610  0.99529515  0.73561617  1  0  0.093225  0  3.766289  0  0  0.115343  0  3.997797  0  0  0.114933  0  4.022451  0  0  -0.018029  0.115658  0  3.980973  0
C  C61  1  0.01915379  0.00470667  0.26438212  1  0  0.093108  0  3.766336  0  0  0.115308  0  3.997743  0  0  0.114899  0  4.022397  0  0  -0.018087  0.115613  0  3.980942  0
C  C62  1  0.94470668  0.88743517  0.75024070  1  0  -0.106855  0  3.738301  0  0  -0.128643  0  3.990686  0  0  -0.131434  0  4.012747  0  0  -0.091174  -0.126665  0  3.975671  0
C  C63  1  0.05529320  0.11256664  0.24975836  1  0  -0.106726  0  3.738124  0  0  -0.128531  0  3.990472  0  0  -0.131323  0  4.012532  0  0  -0.091111  -0.126555  0  3.975466  0
C  C64  1  0.94733494  0.77774587  0.67355588  1  0  -0.11924  0  3.757171  0  0  -0.14122  0  4.00861  0  0  -0.144429  0  4.032451  0  0  -0.097331  -0.138971  0  3.992539  0
C  C65  1  0.05266517  0.22225684  0.32644272  1  0  -0.11925  0  3.756944  0  0  -0.141246  0  4.008361  0  0  -0.144448  0  4.032205  0  0  -0.097346  -0.138991  0  3.992289  0
C  C66  1  0.96232081  0.11198236  0.80674137  1  0  -0.178934  0  3.63159  0  0  -0.224141  0  3.883564  0  0  -0.222368  0  3.894469  0  0  -0.14118  -0.225263  0  3.876191  0
C  C67  1  0.03767964  0.88801766  0.19325660  1  0  -0.178884  0  3.631553  0  0  -0.224152  0  3.883498  0  0  -0.222381  0  3.894402  0  0  -0.141161  -0.225274  0  3.876127  0
C  C68  1  0.68328190  0.09981664  0.64722235  1  0  -0.180303  0  3.639194  0  0  -0.225816  0  3.891507  0  0  -0.223957  0  3.902666  0  0  -0.141325  -0.227108  0  3.883935  0
C  C69  1  0.31671811  0.90018157  0.35277731  1  0  -0.180247  0  3.639144  0  0  -0.225799  0  3.891534  0  0  -0.223939  0  3.902694  0  0  -0.141316  -0.227088  0  3.88396  0
C  C70  1  0.66583098  0.98085026  0.55523790  1  0  0.090576  0  3.766705  0  0  0.111242  0  4.003167  0  0  0.110656  0  4.028536  0  0  -0.019448  0.111822  0  3.985994  0
C  C71  1  0.33416903  0.01914796  0.44476099  1  0  0.090583  0  3.766691  0  0  0.111257  0  4.003163  0  0  0.110676  0  4.028529  0  0  -0.019427  0.111838  0  3.985994  0
C  C72  1  0.64476706  0.87350536  0.57621917  1  0  -0.112308  0  3.749026  0  0  -0.130382  0  3.994836  0  0  -0.133247  0  4.017876  0  0  -0.09389  -0.128469  0  3.97907  0
C  C73  1  0.35523373  0.12649196  0.42377971  1  0  -0.112202  0  3.749015  0  0  -0.130273  0  3.994819  0  0  -0.133139  0  4.017857  0  0  -0.093875  -0.128362  0  3.979062  0
C  C74  1  0.64682994  0.76420807  0.49893739  1  0  -0.114424  0  3.755972  0  0  -0.134592  0  4.001399  0  0  -0.137479  0  4.024573  0  0  -0.092429  -0.132338  0  3.985485  0
C  C75  1  0.35316886  0.23578924  0.50106242  1  0  -0.114506  0  3.756079  0  0  -0.134707  0  4.001484  0  0  -0.137596  0  4.02466  0  0  -0.092457  -0.132453  0  3.985577  0
C  C76  1  0.67083189  0.75972463  0.39909131  1  0  0.095417  0  3.764369  0  0  0.118416  0  3.997513  0  0  0.116999  0  4.02415  0  0  -0.018878  0.119175  0  3.979641  0
C  C77  1  0.32916735  0.24027448  0.60090681  1  0  0.095415  0  3.764426  0  0  0.1185  0  3.997434  0  0  0.117084  0  4.024073  0  0  -0.018896  0.119253  0  3.979573  0
C  C78  1  0.67978569  0.86553876  0.37252564  1  0  -0.109925  0  3.726914  0  0  -0.128601  0  3.970055  0  0  -0.131493  0  3.993424  0  0  -0.092415  -0.126873  0  3.954769  0
C  C79  1  0.32021396  0.13446214  0.62747618  1  0  -0.109968  0  3.726928  0  0  -0.128677  0  3.970053  0  0  -0.131572  0  3.993417  0  0  -0.092394  -0.12694  0  3.954766  0
C  C80  1  0.67673101  0.97431769  0.44907463  1  0  -0.108347  0  3.731544  0  0  -0.127711  0  3.980682  0  0  -0.130386  0  4.002715  0  0  -0.092524  -0.125924  0  3.966066  0
C  C81  1  0.32326997  0.02568052  0.55092611  1  0  -0.108346  0  3.731544  0  0  -0.12772  0  3.980696  0  0  -0.130394  0  4.002726  0  0  -0.092536  -0.125927  0  3.966076  0
C  C82  1  0.69427036  0.64649263  0.32609894  1  0  -0.186495  0  3.634924  0  0  -0.233968  0  3.892254  0  0  -0.232561  0  3.902576  0  0  -0.143321  -0.234702  0  3.885158  0
C  C83  1  0.30572987  0.35350649  0.67390026  1  0  -0.18655  0  3.634954  0  0  -0.234004  0  3.892202  0  0  -0.232594  0  3.902523  0  0  -0.143311  -0.234742  0  3.885118  0
C  C84  1  0.68717412  0.23830388  0.21776028  1  0  -0.195891  0  3.664767  0  0  -0.241814  0  3.917874  0  0  -0.240778  0  3.929689  0  0  -0.148071  -0.24234  0  3.909814  0
C  C85  1  0.31282674  0.76169793  0.78224062  1  0  -0.195826  0  3.664641  0  0  -0.241757  0  3.917776  0  0  -0.240722  0  3.929593  0  0  -0.148034  -0.242276  0  3.909706  0
C  C86  1  0.61077576  0.11150102  0.17956033  1  0  0.095287  0  3.758696  0  0  0.118717  0  3.989669  0  0  0.117723  0  4.015507  0  0  -0.019519  0.119252  0  3.972134  0
C  C87  1  0.38922587  0.88849989  0.82044057  1  0  0.095267  0  3.758807  0  0  0.11868  0  3.989808  0  0  0.117687  0  4.015646  0  0  -0.019534  0.119213  0  3.972272  0
C  C88  1  0.47969071  0.09021779  0.17358687  1  0  -0.122491  0  3.765391  0  0  -0.143373  0  4.017572  0  0  -0.146314  0  4.039571  0  0  -0.098628  -0.141258  0  4.002811  0
C  C89  1  0.52030818  0.90978402  0.82641342  1  0  -0.122381  0  3.765507  0  0  -0.143279  0  4.01765  0  0  -0.146221  0  4.039651  0  0  -0.09857  -0.14116  0  4.002875  0
C  C90  1  0.40247049  0.97339655  0.12513428  1  0  -0.122365  0  3.775558  0  0  -0.142691  0  4.026511  0  0  -0.145183  0  4.048572  0  0  -0.098754  -0.140951  0  4.011553  0
C  C91  1  0.59752896  0.02660346  0.87486493  1  0  -0.122401  0  3.775663  0  0  -0.142679  0  4.026611  0  0  -0.145172  0  4.048674  0  0  -0.098758  -0.140939  0  4.011649  0
C  C92  1  0.45507776  0.87518519  0.08248983  1  0  0.090751  0  3.775863  0  0  0.113625  0  4.006158  0  0  0.112635  0  4.032685  0  0  -0.019806  0.114326  0  3.988033  0
C  C93  1  0.54492191  0.12481572  0.91750968  1  0  0.090719  0  3.775937  0  0  0.113615  0  4.006189  0  0  0.112629  0  4.032713  0  0  -0.019796  0.114312  0  3.988078  0
C  C94  1  0.58917922  0.89602496  0.09565714  1  0  -0.108052  0  3.725243  0  0  -0.124314  0  3.96797  0  0  -0.126827  0  3.988407  0  0  -0.090934  -0.122446  0  3.954198  0
C  C95  1  0.41082122  0.10397505  0.90434315  1  0  -0.108013  0  3.725201  0  0  -0.124283  0  3.967924  0  0  -0.126797  0  3.988359  0  0  -0.090904  -0.122421  0  3.954167  0
C  C96  1  0.66592051  0.01281279  0.14339406  1  0  -0.103496  0  3.744014  0  0  -0.122189  0  3.986285  0  0  -0.124369  0  4.00861  0  0  -0.092045  -0.120589  0  3.971063  0
C  C97  1  0.33407916  0.98718812  0.85660545  1  0  -0.103515  0  3.743976  0  0  -0.122197  0  3.986256  0  0  -0.124376  0  4.008578  0  0  -0.092072  -0.120594  0  3.971031  0
C  C98  1  0.63164167  0.24913799  0.98436213  1  0  -0.181416  0  3.633628  0  0  -0.22388  0  3.882513  0  0  -0.223864  0  3.894618  0  0  -0.143732  -0.223774  0  3.87453  0
C  C99  1  0.36835799  0.75086292  0.01563816  1  0  -0.18137  0  3.633619  0  0  -0.223836  0  3.882532  0  0  -0.22382  0  3.89464  0  0  -0.143709  -0.22373  0  3.874542  0
C  C100  1  0.10139892  0.36931384  0.13864484  1  0  0.539963  0  4.009947  0  0  0.489537  0  4.303903  0  0  0.52038  0  4.300425  0  0  0.176231  0.46862  0  4.305699  0
C  C101  1  0.89860228  0.63068527  0.86135621  1  0  0.539969  0  4.0099  0  0  0.489574  0  4.303871  0  0  0.520421  0  4.300384  0  0  0.176248  0.468621  0  4.305652  0
C  C102  1  0.24297810  0.33897793  0.15732933  1  0  0.315733  0  3.61483  0  0  0.27791  0  3.909367  0  0  0.291297  0  3.898664  0  0  0.186893  0.267551  0  3.918658  0
C  C103  1  0.75702289  0.66102028  0.84267141  1  0  0.315773  0  3.614684  0  0  0.277858  0  3.909486  0  0  0.291234  0  3.898804  0  0  0.186916  0.267666  0  3.91848  0
C  C104  1  0.33385090  0.42537810  0.13216014  1  0  0.311974  0  3.634514  0  0  0.272944  0  3.928719  0  0  0.286942  0  3.917272  0  0  0.186506  0.262784  0  3.937573  0
C  C105  1  0.66614932  0.57462101  0.86783983  1  0  0.312126  0  3.634278  0  0  0.272903  0  3.928856  0  0  0.286899  0  3.917415  0  0  0.186528  0.2627  0  3.937691  0
C  C106  1  0.26498585  0.43133576  0.00573882  1  0  0.54433  0  3.970228  0  0  0.495696  0  4.259298  0  0  0.526085  0  4.256801  0  0  0.190144  0.475004  0  4.260393  0
C  C107  1  0.73501394  0.56866154  0.99426129  1  0  0.54422  0  3.97024  0  0  0.495613  0  4.259378  0  0  0.526001  0  4.256881  0  0  0.190091  0.47492  0  4.260478  0
S  S108  1  0.86900359  0.66017801  0.33820871  1  0  0.037154  0  2.683456  0  0  0.071249  0  3.121984  0  0  0.065701  0  3.111297  0  0  -0.006606  0.074986  0  3.129375  0
S  S109  1  0.13099586  0.33982200  0.66179126  1  0  0.037167  0  2.683425  0  0  0.071254  0  3.121972  0  0  0.065705  0  3.111283  0  0  -0.00661  0.074998  0  3.129363  0
S  S110  1  0.85746962  0.19042366  0.71624158  1  0  -0.003402  0  2.630846  0  0  0.040438  0  3.052399  0  0  0.030128  0  3.043438  0  0  -0.002247  0.047698  0  3.058504  0
S  S111  1  0.14252885  0.80957635  0.28375732  1  0  -0.003441  0  2.630831  0  0  0.040414  0  3.052416  0  0  0.030103  0  3.043455  0  0  -0.002257  0.047671  0  3.058516  0
S  S112  1  0.77026325  0.25922511  0.12279589  1  0  0.05045  0  2.649897  0  0  0.088374  0  3.068738  0  0  0.08161  0  3.062222  0  0  -0.002201  0.093025  0  3.073166  0
S  S113  1  0.22973696  0.74077400  0.87720562  1  0  0.050433  0  2.649937  0  0  0.088366  0  3.06878  0  0  0.081601  0  3.062267  0  0  -0.002241  0.093009  0  3.073206  0
O  O114  1  0.10362739  0.46059335  0.22096523  1  0  -0.602651  0  2.066045  0  0  -0.549781  0  2.336249  0  0  -0.57462  0  2.320922  0  0  -0.346006  -0.532134  0  2.346076  0
O  O115  1  0.89637338  0.53940396  0.77903596  1  0  -0.602618  0  2.065953  0  0  -0.549744  0  2.336151  0  0  -0.574583  0  2.320817  0  0  -0.345993  -0.532099  0  2.345997  0
O  O116  1  0.00476392  0.30284834  0.04545581  1  0  -0.587483  0  2.067288  0  0  -0.545351  0  2.329243  0  0  -0.569999  0  2.32041  0  0  -0.325478  -0.527785  0  2.334816  0
O  O117  1  0.99523531  0.69715077  0.95454385  1  0  -0.587516  0  2.067349  0  0  -0.545383  0  2.329302  0  0  -0.570032  0  2.320464  0  0  -0.325506  -0.527817  0  2.334891  0
O  O118  1  0.29919844  0.37243852  0.92851999  1  0  -0.53798  0  1.95209  0  0  -0.503285  0  2.174541  0  0  -0.52559  0  2.168065  0  0  -0.30271  -0.487423  0  2.178446  0
O  O119  1  0.70079993  0.62755698  0.07147920  1  0  -0.537933  0  1.952109  0  0  -0.503214  0  2.174543  0  0  -0.525518  0  2.168067  0  0  -0.302683  -0.487348  0  2.178439  0
O  O120  1  0.17523106  0.49590347  0.99363977  1  0  -0.605767  0  2.18065  0  0  -0.525441  0  2.468167  0  0  -0.556279  0  2.454365  0  0  -0.338173  -0.503727  0  2.477117  0
O  O121  1  0.82476994  0.50409475  0.00636020  1  0  -0.605753  0  2.180666  0  0  -0.525424  0  2.468187  0  0  -0.55626  0  2.454382  0  0  -0.338152  -0.503715  0  2.477146  0
F  F122  1  0.22972857  0.22386991  0.08302797  1  0  -0.205048  0  1.180255  0  0  -0.166022  0  1.347155  0  0  -0.174644  0  1.335346  0  0  -0.101012  -0.1596  0  1.355689  0
F  F123  1  0.77027242  0.77612830  0.91697276  1  0  -0.205099  0  1.180198  0  0  -0.166036  0  1.347142  0  0  -0.174655  0  1.335336  0  0  -0.101019  -0.159655  0  1.355609  0
F  F124  1  0.31143783  0.34109994  0.27161371  1  0  -0.213043  0  1.159438  0  0  -0.175808  0  1.322095  0  0  -0.183053  0  1.308141  0  0  -0.111766  -0.170406  0  1.332236  0
F  F125  1  0.68856479  0.65890098  0.72838672  1  0  -0.213065  0  1.159415  0  0  -0.175792  0  1.322121  0  0  -0.183037  0  1.308167  0  0  -0.111786  -0.17043  0  1.332196  0
F  F126  1  0.36862510  0.53847784  0.21769386  1  0  -0.21476  0  1.197159  0  0  -0.176702  0  1.371917  0  0  -0.184462  0  1.356881  0  0  -0.110621  -0.17105  0  1.382448  0
F  F127  1  0.63137435  0.46152217  0.78230534  1  0  -0.214801  0  1.197133  0  0  -0.176681  0  1.37196  0  0  -0.184441  0  1.35692  0  0  -0.110622  -0.171028  0  1.382504  0
F  F128  1  0.45316784  0.38701151  0.14652048  1  0  -0.20949  0  1.216923  0  0  -0.171664  0  1.393601  0  0  -0.180188  0  1.380286  0  0  -0.098043  -0.165279  0  1.402685  0
F  F129  1  0.54683336  0.61298760  0.85348057  1  0  -0.209517  0  1.216865  0  0  -0.171629  0  1.39361  0  0  -0.180153  0  1.380292  0  0  -0.098046  -0.165241  0  1.402703  0
