# generated using pymatgen
data_DyCoH11C12(N2O5)2
_symmetry_space_group_name_H-M   'P 1'
_cell_length_a   8.96452532
_cell_length_b   13.00345582
_cell_length_c   18.08336721
_cell_angle_alpha   98.09079732
_cell_angle_beta   104.35176045
_cell_angle_gamma   110.14111698
_symmetry_Int_Tables_number   1
_chemical_formula_structural   DyCoH11C12(N2O5)2
_chemical_formula_sum   'Dy4 Co4 H44 C48 N16 O40'
_cell_volume   1857.12361663
_cell_formula_units_Z   4
loop_
 _symmetry_equiv_pos_site_id
 _symmetry_equiv_pos_as_xyz
  1  'x, y, z'
loop_
 _atom_site_type_symbol
 _atom_site_label
 _atom_site_symmetry_multiplicity
 _atom_site_fract_x
 _atom_site_fract_y
 _atom_site_fract_z
 _atom_site_occupancy
 _atom_site_pbe_bader_charge
 _atom_site_pbe_bader_spin_density
 _atom_site_pbe_cm5_charge
 _atom_site_pbe_ddec_charge
 _atom_site_pbe_ddec_spin_density
 _atom_site_pbe_ddec_sum_bond_order
 _atom_site_pbe_magmom
Dy  Dy0  1  0.74318682  0.58938014  0.50461778  1  2.190917  0.001432  1.535256  2.13055  0.001196  2.155929  0.003
Dy  Dy1  1  0.14889077  0.91045438  0.99532968  1  2.191043  0.001445  1.535874  2.13161  0.001232  2.154899  0.003
Dy  Dy2  1  0.25681393  0.41062719  0.49538347  1  2.191074  0.001431  1.53522  2.130524  0.001196  2.155845  0.003
Dy  Dy3  1  0.85109155  0.08954110  0.00466818  1  2.191019  0.001445  1.5359  2.13169  0.001232  2.154695  0.003
Co  Co4  1  0.86383240  0.08728192  0.65680814  1  1.272777  2.618245  0.686235  0.8389  2.830668  2.541992  2.595
Co  Co5  1  0.61951252  0.41273988  0.84317660  1  1.27481  2.618169  0.685937  0.838734  2.829968  2.542887  2.595
Co  Co6  1  0.13616919  0.91272292  0.34319630  1  1.272959  2.618261  0.686222  0.838953  2.830699  2.541982  2.595
Co  Co7  1  0.38049037  0.58725138  0.15682117  1  1.274771  2.61817  0.685924  0.838772  2.829931  2.542641  2.595
H  H8  1  0.09917292  0.61469377  0.56449098  1  0.655894  0.0  0.305497  0.41431  2e-06  0.91016  0.0
H  H9  1  0.41969668  0.88522715  0.93539330  1  0.65302  1e-06  0.305161  0.41365  2e-06  0.911057  0.0
H  H10  1  0.90082248  0.38531035  0.43552148  1  0.655139  0.0  0.305443  0.414185  2e-06  0.910335  0.0
H  H11  1  0.58029321  0.11477341  0.06460652  1  0.653164  1e-06  0.305217  0.413728  2e-06  0.910964  0.0
H  H12  1  0.99880890  0.52230397  0.59921595  1  0.60936  -1.9e-05  0.326505  0.415951  -2.9e-05  0.881006  0.0
H  H13  1  0.37657401  0.97742823  0.90059665  1  0.637382  -2e-05  0.325602  0.415241  -3e-05  0.882098  0.0
H  H14  1  0.00118348  0.47768902  0.40078513  1  0.609443  -1.9e-05  0.326432  0.415708  -2.9e-05  0.881288  0.0
H  H15  1  0.62341421  0.02257145  0.09940013  1  0.636978  -2e-05  0.325628  0.415246  -3e-05  0.882088  0.0
H  H16  1  0.61569114  0.55808814  0.63670666  1  0.677634  7.3e-05  0.300512  0.402516  0.000127  0.941335  0.0
H  H17  1  0.92024207  0.94134381  0.86315027  1  0.65178  7.6e-05  0.300094  0.401594  0.000125  0.942911  0.0
H  H18  1  0.38429595  0.44192934  0.36329609  1  0.677365  7.4e-05  0.300491  0.402457  0.000127  0.941417  0.0
H  H19  1  0.07973743  0.05865078  0.13684439  1  0.651775  7.6e-05  0.300084  0.401533  0.000125  0.943025  0.0
H  H20  1  0.81098491  0.61691123  0.68459184  1  0.638215  3.8e-05  0.340202  0.438645  3.2e-05  0.838639  0.0
H  H21  1  0.00924440  0.88275786  0.81536403  1  0.656  3.4e-05  0.340619  0.438881  3.1e-05  0.838071  0.0
H  H22  1  0.18901469  0.38307833  0.31540537  1  0.638333  3.8e-05  0.340191  0.438634  3.2e-05  0.838649  0.0
H  H23  1  0.99073544  0.11723335  0.18463090  1  0.655766  3.4e-05  0.340665  0.43888  3.1e-05  0.838078  0.0
H  H24  1  0.24322865  0.80600761  0.52508163  1  0.521347  0.001327  0.326555  0.305666  0.00078  0.940195  0.001
H  H25  1  0.41218199  0.69429093  0.97515692  1  0.525565  0.001316  0.326169  0.305954  0.000779  0.940898  0.001
H  H26  1  0.75678331  0.19399724  0.47492298  1  0.521268  0.001327  0.326545  0.30564  0.000781  0.940178  0.001
H  H27  1  0.58781144  0.30570777  0.02483044  1  0.555022  0.001281  0.32624  0.306104  0.00078  0.940798  0.001
H  H28  1  0.46088931  0.11079266  0.58408145  1  0.073039  -5.4e-05  0.103764  0.151934  -5.4e-05  1.009036  0.0
H  H29  1  0.26608296  0.38960393  0.91623765  1  0.040806  -5.8e-05  0.102983  0.151479  -5.5e-05  1.009581  0.0
H  H30  1  0.53911620  0.88921296  0.41591801  1  0.073137  -5.4e-05  0.10379  0.151963  -5.4e-05  1.009056  0.0
H  H31  1  0.73393321  0.61039233  0.08375560  1  0.04035  -5.8e-05  0.102962  0.151437  -5.5e-05  1.009467  0.0
H  H32  1  0.42093060  0.05896790  0.66561453  1  0.042658  -0.00049  0.108141  0.165043  -0.000455  0.966931  0.0
H  H33  1  0.19595848  0.44129481  0.83468827  1  0.095503  -0.000483  0.108181  0.164854  -0.000457  0.966591  0.0
H  H34  1  0.57908002  0.94103860  0.33438731  1  0.042716  -0.00049  0.108184  0.165115  -0.000455  0.967003  0.0
H  H35  1  0.80404585  0.55869299  0.16530383  1  0.09552  -0.000483  0.108117  0.164791  -0.000457  0.966601  0.0
H  H36  1  0.26308712  0.00111267  0.57176354  1  0.103231  -1.6e-05  0.113315  0.174242  -9.9e-05  0.971986  0.0
H  H37  1  0.19040945  0.49943058  0.92862424  1  0.091331  -1.7e-05  0.113362  0.174755  -0.0001  0.972663  0.0
H  H38  1  0.73691989  0.99889555  0.42824022  1  0.103135  -1.6e-05  0.113337  0.17427  -9.9e-05  0.972004  0.0
H  H39  1  0.80959128  0.50055895  0.07137145  1  0.091454  -1.7e-05  0.113384  0.174843  -0.0001  0.972483  0.0
H  H40  1  0.82191137  0.93502309  0.19511123  1  0.038729  -0.000476  0.100778  0.145788  -0.000384  1.003116  0.0
H  H41  1  0.19252489  0.56519793  0.30515005  1  0.042018  -0.000477  0.100624  0.145989  -0.000387  1.003352  0.0
H  H42  1  0.17809419  0.06497079  0.80489321  1  0.038699  -0.000476  0.100725  0.145687  -0.000384  1.003113  0.0
H  H43  1  0.80747698  0.43480342  0.69484525  1  0.041986  -0.000478  0.100613  0.145971  -0.000388  1.003354  0.0
H  H44  1  0.63730366  0.82112336  0.12772435  1  0.06392  -0.000176  0.095642  0.142651  -0.000179  1.044608  0.0
H  H45  1  0.18927489  0.67925593  0.37248496  1  0.073784  -0.00018  0.096377  0.143665  -0.000181  1.043916  0.0
H  H46  1  0.36269943  0.17887813  0.87228106  1  0.06382  -0.000175  0.095621  0.142595  -0.000179  1.044608  0.0
H  H47  1  0.81072867  0.32074043  0.62751615  1  0.073805  -0.00018  0.096367  0.143639  -0.000181  1.043865  0.0
H  H48  1  0.83995546  0.82579474  0.13332137  1  0.037495  -0.000891  0.099079  0.141158  -0.000775  1.009745  -0.001
H  H49  1  0.38155876  0.67449712  0.36674817  1  0.071905  -0.000875  0.098744  0.140609  -0.000771  1.009  -0.001
H  H50  1  0.16004138  0.17420592  0.86668486  1  0.037385  -0.000891  0.099059  0.141112  -0.000775  1.009722  -0.001
H  H51  1  0.61844298  0.32550008  0.63325225  1  0.071789  -0.000875  0.098781  0.140615  -0.000772  1.008943  -0.001
C  C52  1  0.80120992  0.86355087  0.57083488  1  1.627915  -0.001578  0.231331  0.627448  -0.002203  4.181581  -0.001
C  C53  1  0.86649422  0.63642580  0.92920697  1  1.613115  -0.001513  0.23239  0.625932  -0.002156  4.182286  -0.001
C  C54  1  0.19879722  0.13645559  0.42916376  1  1.627699  -0.001582  0.231409  0.627509  -0.002206  4.181267  -0.001
C  C55  1  0.13350977  0.36357128  0.07078486  1  1.612682  -0.001512  0.232387  0.625887  -0.002154  4.182334  -0.001
C  C56  1  0.63335760  0.86237114  0.56865364  1  0.44214  -0.000581  0.097202  0.009786  -0.002288  3.963483  0.0
C  C57  1  0.70200256  0.63775696  0.93122583  1  0.455456  -0.000686  0.096136  0.011037  -0.002363  3.962957  0.0
C  C58  1  0.36664450  0.13763458  0.43135260  1  0.442277  -0.000584  0.09711  0.009736  -0.002292  3.96355  0.0
C  C59  1  0.29800649  0.36224683  0.06876340  1  0.454967  -0.000684  0.096068  0.010906  -0.002361  3.963542  0.0
C  C60  1  0.47095810  0.77894613  0.54463306  1  0.399192  -0.000284  0.089848  -0.002991  -0.000925  3.925044  0.0
C  C61  1  0.64712466  0.72127696  0.95530091  1  0.44235  -0.000237  0.090764  -0.004507  -0.000891  3.925271  0.0
C  C62  1  0.52904221  0.22105453  0.45537359  1  0.399093  -0.000286  0.089832  -0.002963  -0.000927  3.924916  0.0
C  C63  1  0.35287090  0.27872343  0.04468633  1  0.442643  -0.000236  0.090754  -0.004348  -0.00089  3.925256  0.0
C  C64  1  0.39977842  0.65556169  0.52288145  1  1.572459  -0.000742  0.220757  0.606693  -0.001053  4.226233  0.0
C  C65  1  0.72112113  0.84465181  0.97718052  1  1.523176  -0.000774  0.221627  0.609159  -0.001082  4.221541  0.0
C  C66  1  0.60022618  0.34444240  0.47712882  1  1.572494  -0.000743  0.220823  0.606757  -0.001054  4.226322  0.0
C  C67  1  0.27887612  0.15534361  0.02281309  1  1.523534  -0.000773  0.221681  0.609127  -0.001081  4.221578  0.0
C  C68  1  0.46674312  0.94825948  0.58367728  1  1.028361  -0.001649  0.245745  0.438323  -0.002849  3.906826  -0.001
C  C69  1  0.43461954  0.55204477  0.91635361  1  1.028196  -0.001759  0.244442  0.437175  -0.002872  3.907207  -0.001
C  C70  1  0.53326108  0.05174194  0.41632328  1  1.028116  -0.001653  0.24579  0.438433  -0.002852  3.906567  -0.001
C  C71  1  0.56537390  0.44794804  0.08363430  1  1.028459  -0.001759  0.24458  0.437634  -0.002873  3.907039  -0.001
C  C72  1  0.39860334  0.03436054  0.60184313  1  -0.031734  0.00033  -0.223385  -0.469384  -0.000241  3.884317  0.0
C  C73  1  0.26234306  0.46602254  0.89842982  1  -0.018773  0.000325  -0.222164  -0.468558  -0.000239  3.884551  0.0
C  C74  1  0.60140613  0.96564002  0.39815634  1  -0.031427  0.000329  -0.223477  -0.469491  -0.000242  3.884433  0.0
C  C75  1  0.73764810  0.53396440  0.10156112  1  -0.018609  0.000326  -0.222111  -0.468603  -0.000239  3.884281  0.0
C  C76  1  0.96334705  0.73050232  0.40738692  1  1.55524  -0.005362  0.218897  0.597499  -0.006813  4.225947  -0.004
C  C77  1  0.32548562  0.76945628  0.09262267  1  1.529868  -0.005342  0.218606  0.595603  -0.006744  4.227157  -0.004
C  C78  1  0.03666459  0.26949409  0.59261741  1  1.556402  -0.005359  0.219013  0.597475  -0.006811  4.225904  -0.004
C  C79  1  0.67451203  0.23054771  0.90738121  1  1.530122  -0.005345  0.218547  0.595616  -0.006747  4.227208  -0.004
C  C80  1  0.83906676  0.72562565  0.33600863  1  0.382458  -0.002228  0.068429  -0.023103  -0.00393  4.051677  -0.001
C  C81  1  0.27744217  0.77437332  0.16401039  1  0.425298  -0.002327  0.070142  -0.021593  -0.004021  4.051798  -0.001
C  C82  1  0.16094174  0.27436734  0.66399222  1  0.38232  -0.002229  0.068341  -0.023255  -0.003931  4.051929  -0.001
C  C83  1  0.72255647  0.22563237  0.83599377  1  0.425398  -0.002329  0.070115  -0.021609  -0.004025  4.051661  -0.001
C  C84  1  0.67305039  0.65225023  0.29383170  1  0.432758  -0.002985  0.065811  -0.027897  -0.004923  4.051541  -0.002
C  C85  1  0.22685688  0.84773462  0.20616976  1  0.411537  -0.002929  0.065873  -0.028471  -0.004873  4.051651  -0.002
C  C86  1  0.32695878  0.34774785  0.70617193  1  0.432492  -0.002986  0.065826  -0.0279  -0.004925  4.051613  -0.002
C  C87  1  0.77313927  0.15226681  0.79383148  1  0.412279  -0.002933  0.065888  -0.028536  -0.004877  4.051537  -0.002
C  C88  1  0.54834526  0.55525328  0.30652451  1  1.517984  -0.005735  0.217503  0.586835  -0.007177  4.201955  -0.004
C  C89  1  0.18648762  0.94476819  0.19347766  1  1.521192  -0.005736  0.218055  0.589627  -0.007175  4.195895  -0.004
C  C90  1  0.45165270  0.44474138  0.69347464  1  1.518014  -0.005735  0.217527  0.586887  -0.007177  4.202027  -0.004
C  C91  1  0.81350689  0.05523240  0.80652440  1  1.520899  -0.005736  0.218027  0.589698  -0.007178  4.195948  -0.004
C  C92  1  0.75764427  0.77969336  0.22976446  1  0.98809  -0.005033  0.21281  0.417645  -0.006157  3.952872  -0.001
C  C93  1  0.24843639  0.72037580  0.27028706  1  0.994261  -0.004992  0.213621  0.419247  -0.006112  3.94966  -0.001
C  C94  1  0.24235632  0.22030383  0.77023525  1  0.988163  -0.005033  0.212788  0.41748  -0.006158  3.952915  -0.001
C  C95  1  0.75157094  0.27962900  0.72971422  1  0.994274  -0.004995  0.213557  0.419172  -0.006115  3.949726  -0.001
C  C96  1  0.76308153  0.84386757  0.16807742  1  -0.016507  0.000327  -0.236911  -0.4658  -0.000689  3.929871  0.001
C  C97  1  0.25179507  0.65637968  0.33207355  1  -0.06284  0.000321  -0.237206  -0.466501  -0.000684  3.928514  0.001
C  C98  1  0.23691941  0.15613221  0.83192646  1  -0.016339  0.000327  -0.236832  -0.465577  -0.000689  3.929766  0.001
C  C99  1  0.74820979  0.34362089  0.66792646  1  -0.062718  0.000321  -0.237174  -0.466427  -0.000684  3.928447  0.001
N  N100  1  0.62755721  0.96546882  0.59360797  1  -1.19751  0.050594  -0.34511  -0.389413  0.027136  3.508996  0.04
N  N101  1  0.56816821  0.53472760  0.90633859  1  -1.199753  0.050763  -0.344438  -0.389857  0.027166  3.509134  0.04
N  N102  1  0.37244255  0.03453682  0.40639245  1  -1.197567  0.050599  -0.345188  -0.389552  0.027139  3.508782  0.04
N  N103  1  0.43184088  0.46527626  0.09365618  1  -1.199616  0.050747  -0.34435  -0.389867  0.027162  3.509497  0.04
N  N104  1  0.37028179  0.83639829  0.55486517  1  -1.240542  0.00493  -0.363405  -0.266373  0.002251  3.56131  0.004
N  N105  1  0.47886771  0.66393504  0.94517620  1  -1.258772  0.004959  -0.363511  -0.266859  0.00227  3.562814  0.004
N  N106  1  0.62972688  0.16360487  0.44513943  1  -1.240462  0.004931  -0.363335  -0.266446  0.002251  3.56104  0.004
N  N107  1  0.52113033  0.33605775  0.05481117  1  -1.288471  0.004993  -0.363672  -0.267331  0.00227  3.562607  0.004
N  N108  1  0.88943387  0.80482932  0.29480400  1  -1.197909  0.068573  -0.352734  -0.376522  0.035959  3.512745  0.056
N  N109  1  0.28999811  0.69521195  0.20523582  1  -1.193058  0.068678  -0.354506  -0.378928  0.036031  3.512817  0.056
N  N110  1  0.11057133  0.19516788  0.70519628  1  -1.197858  0.068563  -0.352706  -0.376355  0.035955  3.512952  0.056
N  N111  1  0.71000477  0.30479114  0.79476308  1  -1.1932  0.068681  -0.35448  -0.378904  0.036036  3.512896  0.056
N  N112  1  0.62418648  0.68782175  0.22706548  1  -1.200385  0.074645  -0.353553  -0.40036  0.039471  3.515743  0.06
N  N113  1  0.20935227  0.81221576  0.27297227  1  -1.207005  0.074617  -0.353481  -0.400834  0.039436  3.513122  0.06
N  N114  1  0.37582004  0.31217375  0.77293481  1  -1.200186  0.074642  -0.353497  -0.400224  0.03947  3.515809  0.06
N  N115  1  0.79065294  0.18778739  0.72703135  1  -1.207116  0.074621  -0.353477  -0.400714  0.039436  3.513032  0.06
O  O116  1  0.81344754  0.77403903  0.53895615  1  -1.209526  0.005501  -0.445252  -0.70178  0.002611  2.330763  0.004
O  O117  1  0.00010441  0.72585270  0.96122188  1  -1.206286  0.005508  -0.445758  -0.70137  0.002621  2.330206  0.004
O  O118  1  0.18655416  0.22596401  0.46103928  1  -1.209547  0.0055  -0.445243  -0.701796  0.00261  2.330799  0.004
O  O119  1  0.99989527  0.27414686  0.03876634  1  -1.205947  0.005511  -0.445826  -0.701345  0.002622  2.330073  0.004
O  O120  1  0.92412074  0.95760243  0.60263075  1  -1.126283  0.06638  -0.293498  -0.498254  0.033998  2.203795  0.056
O  O121  1  0.86351361  0.54232232  0.89746074  1  -1.124764  0.066241  -0.293469  -0.497283  0.033955  2.204649  0.056
O  O122  1  0.07587724  0.04239819  0.39737340  1  -1.126149  0.0664  -0.293546  -0.498283  0.034007  2.203422  0.056
O  O123  1  0.13648041  0.45767151  0.10254006  1  -1.124571  0.066246  -0.293429  -0.497298  0.033958  2.204615  0.056
O  O124  1  0.48299751  0.59876033  0.50445165  1  -1.21228  -0.000401  -0.424672  -0.729091  -0.000524  2.447652  0.0
O  O125  1  0.87952454  0.90138092  0.99557393  1  -1.207857  -0.000392  -0.42616  -0.730371  -0.000514  2.44232  0.0
O  O126  1  0.51700674  0.40124117  0.49555501  1  -1.212126  -0.000402  -0.424642  -0.729077  -0.000524  2.447974  0.0
O  O127  1  0.12047160  0.09861456  0.00442397  1  -1.207927  -0.000392  -0.426185  -0.730414  -0.000513  2.44225  0.0
O  O128  1  0.25030334  0.60164702  0.52268317  1  -1.194253  -0.000201  -0.354184  -0.63819  -0.000415  2.263669  0.0
O  O129  1  0.62591487  0.89868377  0.97746702  1  -1.201403  -0.000278  -0.353585  -0.638374  -0.000482  2.263809  0.0
O  O130  1  0.74970506  0.39835963  0.47732946  1  -1.194213  -0.000202  -0.354245  -0.638255  -0.000416  2.263649  0.0
O  O131  1  0.37407515  0.10130910  0.02252601  1  -1.201413  -0.000278  -0.353619  -0.63839  -0.000482  2.263892  0.0
O  O132  1  0.93489286  0.65046906  0.44307617  1  -1.215873  0.00319  -0.443817  -0.71279  0.001106  2.335306  0.003
O  O133  1  0.34111552  0.84939425  0.05685963  1  -1.22269  0.003162  -0.443905  -0.71265  0.001084  2.336659  0.003
O  O134  1  0.06511486  0.34952657  0.55693257  1  -1.21674  0.003191  -0.443792  -0.712772  0.001107  2.335238  0.003
O  O135  1  0.65887897  0.15061223  0.94314077  1  -1.222804  0.003159  -0.443854  -0.712656  0.001082  2.336729  0.003
O  O136  1  0.10377347  0.81561995  0.43020989  1  -1.145215  0.063165  -0.289933  -0.531177  0.03243  2.288264  0.055
O  O137  1  0.35825504  0.68440994  0.06987684  1  -1.150286  0.063143  -0.291245  -0.53041  0.032379  2.289518  0.054
O  O138  1  0.89623352  0.18437636  0.56978721  1  -1.145323  0.063172  -0.290027  -0.531113  0.032433  2.288024  0.055
O  O139  1  0.64174536  0.31560075  0.93012303  1  -1.15045  0.063153  -0.291249  -0.530395  0.032385  2.289524  0.055
O  O140  1  0.57508033  0.52609085  0.37276172  1  -1.207261  0.001995  -0.403798  -0.685261  0.000102  2.337993  0.002
O  O141  1  0.17613740  0.97394066  0.12722963  1  -1.203407  0.001992  -0.403618  -0.686215  9.3e-05  2.335688  0.002
O  O142  1  0.42491964  0.47391320  0.62724576  1  -1.207237  0.001994  -0.40388  -0.685291  0.000102  2.338117  0.002
O  O143  1  0.82383191  0.02605226  0.87276638  1  -1.203473  0.001991  -0.40356  -0.686215  9.2e-05  2.335697  0.002
O  O144  1  0.41041100  0.50294402  0.25094225  1  -1.144299  0.067511  -0.302205  -0.523892  0.034415  2.255353  0.059
O  O145  1  0.15637593  0.99707573  0.24906279  1  -1.142324  0.067568  -0.302333  -0.524935  0.03441  2.252654  0.059
O  O146  1  0.58959601  0.49705826  0.74905929  1  -1.144351  0.06753  -0.302184  -0.523936  0.034425  2.255072  0.059
O  O147  1  0.84361199  0.00292144  0.75093592  1  -1.142506  0.067577  -0.302351  -0.525017  0.034416  2.252687  0.059
O  O148  1  0.00801774  0.59554372  0.58875242  1  -1.235829  2.1e-05  -0.625557  -0.837321  -2.9e-05  1.988921  0.0
O  O149  1  0.32321761  0.90414657  0.91102565  1  -1.260864  3.4e-05  -0.624478  -0.836205  -1.9e-05  1.989145  0.0
O  O150  1  0.99197699  0.40445528  0.41125615  1  -1.235333  2.1e-05  -0.625444  -0.836944  -2.9e-05  1.989282  0.0
O  O151  1  0.67677243  0.09585228  0.08897182  1  -1.260535  3.4e-05  -0.624577  -0.836301  -1.9e-05  1.989094  0.0
O  O152  1  0.73067109  0.59995684  0.63290409  1  -1.296446  0.000666  -0.651541  -0.87167  0.000268  2.090909  0.0
O  O153  1  0.99685514  0.89922519  0.86694608  1  -1.289555  0.000659  -0.651736  -0.871209  0.000269  2.089937  0.0
O  O154  1  0.26932111  0.40006743  0.36710104  1  -1.296355  0.000666  -0.651495  -0.871578  0.000268  2.091089  0.0
O  O155  1  0.00313391  0.10077787  0.13305112  1  -1.289357  0.000659  -0.651812  -0.871214  0.000269  2.08993  0.0
