# generated using pymatgen
data_FeAg2H8(C3N2)4
_symmetry_space_group_name_H-M   'P 1'
_cell_length_a   6.62192718
_cell_length_b   8.69608593
_cell_length_c   13.74531283
_cell_angle_alpha   87.14011263
_cell_angle_beta   82.44165220
_cell_angle_gamma   67.62639517
_symmetry_Int_Tables_number   1
_chemical_formula_structural   FeAg2H8(C3N2)4
_chemical_formula_sum   'Fe2 Ag4 H16 C24 N16'
_cell_volume   725.57766347
_cell_formula_units_Z   2
loop_
 _symmetry_equiv_pos_site_id
 _symmetry_equiv_pos_as_xyz
  1  'x, y, z'
loop_
 _atom_site_type_symbol
 _atom_site_label
 _atom_site_symmetry_multiplicity
 _atom_site_fract_x
 _atom_site_fract_y
 _atom_site_fract_z
 _atom_site_occupancy
 _atom_site_hle17_bader_spin_density
 _atom_site_hle17_ddec_charge
 _atom_site_hle17_ddec_spin_density
 _atom_site_hle17_ddec_sum_bond_order
 _atom_site_hle17_magmom
 _atom_site_hse06_10hf_bader_spin_density
 _atom_site_hse06_10hf_ddec_charge
 _atom_site_hse06_10hf_ddec_spin_density
 _atom_site_hse06_10hf_ddec_sum_bond_order
 _atom_site_hse06_10hf_magmom
 _atom_site_hse06_bader_spin_density
 _atom_site_hse06_ddec_charge
 _atom_site_hse06_ddec_spin_density
 _atom_site_hse06_ddec_sum_bond_order
 _atom_site_hse06_magmom
 _atom_site_pbe_bader_spin_density
 _atom_site_pbe_cm5_charge
 _atom_site_pbe_ddec_charge
 _atom_site_pbe_ddec_spin_density
 _atom_site_pbe_ddec_sum_bond_order
 _atom_site_pbe_magmom
Fe  Fe0  1  0.97857078  0.01758597  0.00453752  1  0  0.610157  0  3.196039  0  0  0.585071  0  3.673446  0  0  0.633655  0  3.611421  0  0  0.787299  0.5594  0  3.708256  0
Fe  Fe1  1  0.00394995  0.01761286  0.49521972  1  0  0.609241  0  3.197657  0  0  0.58443  0  3.675043  0  0  0.633072  0  3.612852  0  0  0.787301  0.558707  0  3.709943  0
Ag  Ag2  1  0.48123686  0.03728553  0.24994801  1  0  0.306948  0  2.110232  0  0  0.20095  0  2.616069  0  0  0.210339  0  2.574298  0  0  0.338798  0.196371  0  2.643848  0
Ag  Ag3  1  0.51951882  0.96039902  0.75005386  1  0  0.312885  0  2.074694  0  0  0.201471  0  2.57984  0  0  0.212765  0  2.536748  0  0  0.33211  0.194664  0  2.609922  0
Ag  Ag4  1  0.66394991  0.67284100  0.24988585  1  0  0.314208  0  2.09372  0  0  0.196046  0  2.611746  0  0  0.204317  0  2.569748  0  0  0.365079  0.193379  0  2.638295  0
Ag  Ag5  1  0.33882482  0.32260513  0.74986337  1  0  0.305945  0  2.125186  0  0  0.192201  0  2.643477  0  0  0.200014  0  2.6008  0  0  0.364257  0.189649  0  2.670664  0
H  H6  1  0.48935312  0.16670599  0.98717233  1  0  0.102969  0  0.944316  0  0  0.110799  0  1.00402  0  0  0.110915  0  1.003939  0  0  0.128977  0.110474  0  1.004653  0
H  H7  1  0.34409935  0.16654966  0.51275899  1  0  0.102871  0  0.945072  0  0  0.110888  0  1.004353  0  0  0.110938  0  1.004406  0  0  0.129064  0.110617  0  1.004908  0
H  H8  1  0.51717516  0.82022616  0.01637071  1  0  0.09557  0  0.940695  0  0  0.103221  0  1.002413  0  0  0.102863  0  1.003493  0  0  0.124681  0.10369  0  1.001594  0
H  H9  1  0.66217038  0.82012381  0.48360403  1  0  0.095581  0  0.941825  0  0  0.103482  0  1.003253  0  0  0.10313  0  1.004328  0  0  0.124673  0.103956  0  1.00241  0
H  H10  1  0.17060926  0.42073414  0.05178341  1  0  0.120841  0  0.938332  0  0  0.130795  0  0.99654  0  0  0.133258  0  0.99736  0  0  0.114265  0.128742  0  0.996612  0
H  H11  1  0.40875520  0.42075890  0.44847785  1  0  0.12117  0  0.938331  0  0  0.13044  0  0.99725  0  0  0.13296  0  0.998001  0  0  0.114273  0.12834  0  0.997379  0
H  H12  1  0.83791965  0.56504344  0.94825340  1  0  0.118356  0  0.941117  0  0  0.128281  0  0.999721  0  0  0.130435  0  1.00085  0  0  0.112776  0.12684  0  0.999011  0
H  H13  1  0.59689960  0.56496143  0.55198864  1  0  0.117735  0  0.940593  0  0  0.127789  0  0.999218  0  0  0.129953  0  1.00035  0  0  0.112469  0.126353  0  0.9985  0
H  H14  1  0.24450682  0.61215224  0.16356158  1  0  0.089911  0  0.934284  0  0  0.098046  0  0.996616  0  0  0.099884  0  0.993897  0  0  0.119651  0.096335  0  0.999404  0
H  H15  1  0.14334415  0.61243556  0.33686138  1  0  0.090264  0  0.934951  0  0  0.098596  0  0.997045  0  0  0.100551  0  0.994224  0  0  0.119772  0.096813  0  0.99988  0
H  H16  1  0.75917373  0.38175523  0.83391162  1  0  0.087858  0  0.939121  0  0  0.097129  0  1.000267  0  0  0.098315  0  0.999244  0  0  0.12045  0.096258  0  1.001094  0
H  H17  1  0.85910329  0.38205733  0.66630748  1  0  0.088236  0  0.938306  0  0  0.097383  0  0.99949  0  0  0.098579  0  0.998465  0  0  0.120488  0.096499  0  1.000327  0
H  H18  1  0.90206384  0.29444762  0.14188019  1  0  0.077286  0  0.951904  0  0  0.084585  0  1.015874  0  0  0.08547  0  1.014045  0  0  0.132959  0.083625  0  1.017876  0
H  H19  1  0.80331936  0.29479942  0.35828386  1  0  0.07706  0  0.95242  0  0  0.084323  0  1.016361  0  0  0.085191  0  1.014539  0  0  0.133004  0.083417  0  1.018295  0
H  H20  1  0.10638710  0.70963327  0.85262503  1  0  0.07219  0  0.943784  0  0  0.079248  0  1.009681  0  0  0.079756  0  1.008855  0  0  0.128826  0.078811  0  1.010614  0
H  H21  1  0.18341651  0.71040545  0.64726196  1  0  0.071899  0  0.944382  0  0  0.078883  0  1.010398  0  0  0.079373  0  1.00956  0  0  0.128702  0.078455  0  1.011337  0
C  C22  1  0.16594566  0.23480999  0.86450780  1  0  -0.1045  0  3.342228  0  0  -0.08365  0  3.698947  0  0  -0.071888  0  3.698897  0  0  -0.038432  -0.091674  0  3.698185  0
C  C23  1  0.59926398  0.23473931  0.63515783  1  0  -0.105765  0  3.342677  0  0  -0.085043  0  3.699795  0  0  -0.073286  0  3.699808  0  0  -0.03849  -0.093043  0  3.698962  0
C  C24  1  0.82961553  0.77164068  0.13744883  1  0  -0.116562  0  3.342063  0  0  -0.093936  0  3.697749  0  0  -0.083524  0  3.698544  0  0  -0.042991  -0.100585  0  3.696031  0
C  C25  1  0.39902178  0.77179151  0.36216869  1  0  -0.115867  0  3.340039  0  0  -0.093109  0  3.695527  0  0  -0.082718  0  3.696378  0  0  -0.042839  -0.099724  0  3.693753  0
C  C26  1  0.50966499  0.25239167  0.03629573  1  0  0.166544  0  3.61909  0  0  0.131436  0  3.875271  0  0  0.146799  0  3.887946  0  0  0.068615  0.119656  0  3.868771  0
C  C27  1  0.23802788  0.25241113  0.46375088  1  0  0.166352  0  3.619017  0  0  0.131562  0  3.874921  0  0  0.146942  0  3.887608  0  0  0.068808  0.119736  0  3.868384  0
C  C28  1  0.49833750  0.73740154  0.96448375  1  0  0.167083  0  3.667032  0  0  0.135954  0  3.922981  0  0  0.146249  0  3.941017  0  0  0.073037  0.129037  0  3.910346  0
C  C29  1  0.76389596  0.73745246  0.53549618  1  0  0.16603  0  3.670893  0  0  0.134845  0  3.926581  0  0  0.145169  0  3.944683  0  0  0.07291  0.127942  0  3.913908  0
C  C30  1  0.33386382  0.39377352  0.07239682  1  0  -0.160699  0  3.718449  0  0  -0.173144  0  3.972786  0  0  -0.18583  0  3.993604  0  0  -0.076974  -0.165386  0  3.96109  0
C  C31  1  0.27238254  0.39393202  0.42787656  1  0  -0.160516  0  3.717422  0  0  -0.172458  0  3.972183  0  0  -0.185178  0  3.992987  0  0  -0.077103  -0.164678  0  3.960521  0
C  C32  1  0.67407317  0.59631795  0.92725389  1  0  -0.16539  0  3.714467  0  0  -0.175147  0  3.96395  0  0  -0.188213  0  3.989638  0  0  -0.076701  -0.16628  0  3.946307  0
C  C33  1  0.72939005  0.59644045  0.57289959  1  0  -0.164344  0  3.71428  0  0  -0.174426  0  3.963999  0  0  -0.187461  0  3.989576  0  0  -0.076467  -0.165593  0  3.946441  0
C  C34  1  0.37391999  0.49736993  0.13443838  1  0  0.160402  0  3.68202  0  0  0.127495  0  3.939677  0  0  0.14146  0  3.95295  0  0  0.05784  0.116343  0  3.932877  0
C  C35  1  0.12869136  0.49764133  0.36592328  1  0  0.15963  0  3.683173  0  0  0.126312  0  3.940779  0  0  0.140161  0  3.954143  0  0  0.057549  0.115234  0  3.933924  0
C  C36  1  0.63102269  0.49691071  0.86325414  1  0  0.163501  0  3.684059  0  0  0.131178  0  3.93851  0  0  0.140436  0  3.957014  0  0  0.061865  0.125082  0  3.925768  0
C  C37  1  0.87194696  0.49723819  0.63692377  1  0  0.16375  0  3.684596  0  0  0.131809  0  3.938818  0  0  0.141077  0  3.957316  0  0  0.062333  0.125719  0  3.926052  0
C  C38  1  0.25586395  0.04657773  0.15975385  1  0  -0.074779  0  3.366611  0  0  -0.058703  0  3.719869  0  0  -0.046452  0  3.719677  0  0  -0.03193  -0.067108  0  3.720019  0
C  C39  1  0.69742791  0.04676603  0.34006440  1  0  -0.074578  0  3.366072  0  0  -0.058545  0  3.719417  0  0  -0.046307  0  3.719243  0  0  -0.031791  -0.066962  0  3.719584  0
C  C40  1  0.73875858  0.95713083  0.84233660  1  0  -0.078776  0  3.364743  0  0  -0.061812  0  3.719531  0  0  -0.048961  0  3.718175  0  0  -0.033658  -0.07132  0  3.721492  0
C  C41  1  0.30362593  0.95738475  0.65763213  1  0  -0.077768  0  3.363404  0  0  -0.060697  0  3.717784  0  0  -0.047825  0  3.716377  0  0  -0.033445  -0.070233  0  3.719781  0
C  C42  1  0.73785213  0.32395643  0.12203115  1  0  0.278523  0  3.651408  0  0  0.227296  0  3.924677  0  0  0.245004  0  3.93486  0  0  0.179754  0.214415  0  3.919454  0
C  C43  1  0.93808907  0.32424136  0.37811167  1  0  0.278656  0  3.651027  0  0  0.227356  0  3.924849  0  0  0.245104  0  3.935008  0  0  0.180027  0.2144  0  3.919663  0
C  C44  1  0.27062065  0.67516535  0.87418674  1  0  0.278449  0  3.698245  0  0  0.230353  0  3.973406  0  0  0.244271  0  3.987328  0  0  0.182804  0.220845  0  3.963961  0
C  C45  1  0.05377760  0.67572671  0.62575803  1  0  0.278914  0  3.698404  0  0  0.231218  0  3.97327  0  0  0.245189  0  3.987196  0  0  0.182856  0.221708  0  3.963824  0
N  N46  1  0.57684489  0.46018082  0.15998503  1  0  -0.329456  0  3.184816  0  0  -0.270505  0  3.473845  0  0  -0.289471  0  3.484073  0  0  -0.32083  -0.257665  0  3.468115  0
N  N47  1  0.96286929  0.46054844  0.34031624  1  0  -0.329156  0  3.184262  0  0  -0.269609  0  3.472989  0  0  -0.288595  0  3.483283  0  0  -0.320837  -0.256757  0  3.467245  0
N  N48  1  0.42936303  0.53710028  0.83567551  1  0  -0.336912  0  3.172121  0  0  -0.276253  0  3.457619  0  0  -0.294477  0  3.471075  0  0  -0.322399  -0.263723  0  3.448222  0
N  N49  1  0.03328458  0.53766899  0.66440057  1  0  -0.337788  0  3.173788  0  0  -0.277706  0  3.459739  0  0  -0.295918  0  3.473131  0  0  -0.32265  -0.265171  0  3.450363  0
N  N50  1  0.14755200  0.03367363  0.10189059  1  0  -0.329211  0  3.363959  0  0  -0.2924  0  3.658557  0  0  -0.313429  0  3.669855  0  0  -0.395727  -0.279772  0  3.649976  0
N  N51  1  0.81882738  0.03375940  0.39786289  1  0  -0.329244  0  3.364045  0  0  -0.29246  0  3.658522  0  0  -0.313471  0  3.669759  0  0  -0.395867  -0.279848  0  3.649991  0
N  N52  1  0.82961494  0.98493158  0.90310860  1  0  -0.328865  0  3.3571  0  0  -0.292434  0  3.651617  0  0  -0.313662  0  3.662373  0  0  -0.394216  -0.279586  0  3.643859  0
N  N53  1  0.18534656  0.98506398  0.59670805  1  0  -0.329758  0  3.357294  0  0  -0.293451  0  3.651726  0  0  -0.314675  0  3.662425  0  0  -0.394377  -0.280598  0  3.64401  0
N  N54  1  0.08854531  0.15915459  0.92033663  1  0  -0.328156  0  3.327299  0  0  -0.296965  0  3.628243  0  0  -0.318828  0  3.64028  0  0  -0.389526  -0.283001  0  3.618373  0
N  N55  1  0.75247571  0.15901671  0.57940872  1  0  -0.327023  0  3.328222  0  0  -0.295814  0  3.629029  0  0  -0.317706  0  3.641153  0  0  -0.389724  -0.281834  0  3.619083  0
N  N56  1  0.88820600  0.86183088  0.08498005  1  0  -0.320456  0  3.329478  0  0  -0.289726  0  3.62885  0  0  -0.310664  0  3.64112  0  0  -0.388848  -0.276653  0  3.618808  0
N  N57  1  0.25020119  0.86188082  0.41471670  1  0  -0.320841  0  3.327544  0  0  -0.290118  0  3.627042  0  0  -0.311038  0  3.639279  0  0  -0.388717  -0.277066  0  3.617024  0
N  N58  1  0.71501983  0.21697938  0.05976899  1  0  -0.252562  0  3.274051  0  0  -0.199205  0  3.549896  0  0  -0.228785  0  3.565537  0  0  -0.305703  -0.180311  0  3.539368  0
N  N59  1  0.06807175  0.21705390  0.44021212  1  0  -0.251935  0  3.273332  0  0  -0.199124  0  3.549894  0  0  -0.228742  0  3.565584  0  0  -0.30596  -0.180135  0  3.539247  0
N  N60  1  0.29680912  0.77528325  0.93819792  1  0  -0.283261  0  3.137655  0  0  -0.232303  0  3.405887  0  0  -0.258273  0  3.423608  0  0  -0.276035  -0.213478  0  3.39269  0
N  N61  1  0.92753189  0.77553830  0.56166997  1  0  -0.282845  0  3.139585  0  0  -0.232129  0  3.407444  0  0  -0.258215  0  3.425273  0  0  -0.276036  -0.21333  0  3.394284  0
