# generated using pymatgen
data_KMnH16C12(IO5)3
_symmetry_space_group_name_H-M   'P 1'
_cell_length_a   5.81757386
_cell_length_b   9.07017422
_cell_length_c   10.92409581
_cell_angle_alpha   93.55811654
_cell_angle_beta   92.06169021
_cell_angle_gamma   96.27778052
_symmetry_Int_Tables_number   1
_chemical_formula_structural   KMnH16C12(IO5)3
_chemical_formula_sum   'K1 Mn1 H16 C12 I3 O15'
_cell_volume   571.33278545
_cell_formula_units_Z   1
loop_
 _symmetry_equiv_pos_site_id
 _symmetry_equiv_pos_as_xyz
  1  'x, y, z'
loop_
 _atom_site_type_symbol
 _atom_site_label
 _atom_site_symmetry_multiplicity
 _atom_site_fract_x
 _atom_site_fract_y
 _atom_site_fract_z
 _atom_site_occupancy
 _atom_site_hle17_ddec_charge
 _atom_site_hle17_ddec_spin_density
 _atom_site_hle17_ddec_sum_bond_order
 _atom_site_hle17_magmom
 _atom_site_hse06_10hf_ddec_charge
 _atom_site_hse06_10hf_ddec_spin_density
 _atom_site_hse06_10hf_ddec_sum_bond_order
 _atom_site_hse06_10hf_magmom
 _atom_site_hse06_ddec_charge
 _atom_site_hse06_ddec_spin_density
 _atom_site_hse06_ddec_sum_bond_order
 _atom_site_hse06_magmom
 _atom_site_pbe_cm5_charge
 _atom_site_pbe_ddec_charge
 _atom_site_pbe_ddec_spin_density
 _atom_site_pbe_ddec_sum_bond_order
 _atom_site_pbe_magmom
K  K0  1  0.82558990  0.04051076  0.42508177  1  0.915087  -0.000928  0.46809  0.0  0.84988  -0.000855  0.673411  0.0  0.864713  -0.001033  0.650648  0.0  0.680492  0.838527  -0.000616  0.690126  0.0
Mn  Mn1  1  0.43990321  0.13958399  0.15983623  1  1.236514  4.809427  1.667854  4.705  1.075826  4.740396  2.142017  4.576  1.135053  4.776148  2.0713  4.628  0.593377  1.028962  4.704721  2.193842  4.526
H  H2  1  0.88726751  0.04491579  0.12526579  1  0.398118  -0.000673  0.88643  0.0  0.368299  -0.000199  0.961191  0.001  0.380266  -0.00039  0.948305  0.0  0.310731  0.359796  -1e-05  0.970236  0.001
H  H3  1  0.91814536  0.67454836  0.33150756  1  0.372165  7.4e-05  0.896079  0.0  0.347689  0.000127  0.971243  0.0  0.357959  8.7e-05  0.959492  0.0  0.288297  0.340227  0.00017  0.980023  0.0
H  H4  1  0.22652635  0.41347086  0.24186182  1  0.398284  0.000363  0.860284  0.001  0.369392  0.000899  0.935312  0.002  0.380741  0.000618  0.922483  0.002  0.311618  0.361208  0.001165  0.944597  0.002
H  H5  1  0.09216371  0.38437500  0.43047856  1  0.394244  -4.6e-05  0.875766  0.0  0.36459  -2.1e-05  0.952215  0.0  0.375486  -4.2e-05  0.939761  0.0  0.309539  0.356883  2.4e-05  0.961022  0.0
H  H6  1  0.95498550  0.08020110  0.72203027  1  0.370743  7.9e-05  0.905863  0.0  0.346064  0.000147  0.982154  0.0  0.356303  0.000102  0.970205  0.0  0.294317  0.338777  0.000219  0.990588  0.0
H  H7  1  0.65196031  0.13847892  0.92961769  1  0.400908  8.8e-05  0.887414  0.001  0.370262  0.000586  0.964685  0.002  0.382469  0.000342  0.95096  0.001  0.302916  0.361574  0.000816  0.974368  0.002
H  H8  1  0.28209399  0.17557560  0.39256822  1  0.424594  -8.8e-05  0.885526  0.001  0.391451  0.000423  0.953435  0.002  0.402533  0.000212  0.937338  0.001  0.299899  0.383429  0.00065  0.965108  0.002
H  H9  1  0.31418640  0.99920180  0.38172162  1  0.369115  0.000675  0.958448  0.002  0.339848  0.00155  1.022983  0.003  0.351421  0.001127  1.006194  0.002  0.263993  0.331481  0.001985  1.035092  0.003
H  H10  1  0.73784388  0.83584067  0.01115366  1  0.083357  -0.000147  0.922075  0.0  0.08551  -6.8e-05  0.993642  0.0  0.087854  -0.000122  0.991781  0.0  0.111787  0.083602  -2e-06  0.995428  0.0
H  H11  1  0.96333448  0.69210798  0.12866154  1  0.061112  -0.000148  0.963554  0.0  0.056342  -9.9e-05  1.045696  0.0  0.059435  -0.000132  1.042457  0.0  0.096624  0.054041  -5.9e-05  1.048296  0.0
H  H12  1  0.63727759  0.52497814  0.05716629  1  0.075087  -0.000215  0.900534  0.0  0.080476  -0.00019  0.964315  0.0  0.08201  -0.000201  0.962422  0.0  0.112985  0.079224  -0.000174  0.965944  0.0
H  H13  1  0.53641435  0.54812866  0.33176707  1  0.083152  1e-05  0.935174  0.0  0.084224  0.000237  1.00697  0.0  0.087229  0.000138  1.004048  0.0  0.11042  0.082036  0.000348  1.009288  0.0
H  H14  1  0.25544667  0.46974790  0.61292316  1  0.076684  3e-05  0.942495  0.0  0.076737  4.9e-05  1.019113  0.0  0.078544  4e-05  1.018197  0.0  0.104375  0.075377  5.2e-05  1.019983  0.0
H  H15  1  0.97922025  0.32931938  0.73018044  1  0.060756  -1.2e-05  0.948358  0.0  0.057489  -7e-06  1.028723  0.0  0.060365  -5e-06  1.025934  0.0  0.097834  0.055314  -1e-05  1.030858  0.0
H  H16  1  0.31987866  0.04307675  0.81991928  1  0.087072  3.5e-05  0.903132  0.0  0.090835  0.000283  0.96864  0.0  0.093303  0.000157  0.966419  0.0  0.119368  0.089043  0.00042  0.970319  0.0
H  H17  1  0.33180699  0.38256892  0.85195326  1  0.068997  -0.000129  0.914902  0.0  0.074708  -0.000151  0.98061  0.0  0.076274  -0.000151  0.978754  0.0  0.104608  0.073495  -0.000138  0.98214  0.0
C  C18  1  0.44154250  0.80147508  0.11881883  1  0.592781  0.00138  3.738343  0.001  0.535563  0.003527  4.045452  0.003  0.56835  0.002488  4.03721  0.002  0.242524  0.5131  0.004637  4.050491  0.004
C  C19  1  0.69811730  0.84368214  0.10961442  1  0.057977  0.000261  3.675325  0.0  0.033452  0.001024  3.921381  0.001  0.034517  0.00054  3.929199  0.0  0.001089  0.032507  0.001503  3.916224  0.001
C  C20  1  0.80390341  0.71781815  0.17172648  1  0.138432  0.000406  3.635526  0.0  0.110106  0.000766  3.894307  0.001  0.114974  0.000474  3.902674  0.001  -0.014151  0.106609  0.00109  3.888946  0.001
C  C21  1  0.61045618  0.58736230  0.14414668  1  0.100844  0.000855  3.488135  0.001  0.065577  0.001454  3.748115  0.001  0.071974  0.000967  3.755776  0.001  0.005738  0.061208  0.002001  3.743132  0.002
C  C22  1  0.56701169  0.48217551  0.24684520  1  0.057048  0.000982  3.622643  0.001  0.031802  0.002076  3.872185  0.002  0.033354  0.001371  3.878392  0.001  -0.000892  0.03049  0.002748  3.868032  0.002
C  C23  1  0.77872569  0.39880901  0.27006733  1  0.671548  0.001677  3.806183  0.002  0.618181  0.00461  4.105566  0.004  0.651083  0.003288  4.099723  0.003  0.229734  0.595558  0.00599  4.10864  0.006
C  C24  1  0.49312127  0.30655150  0.61013094  1  0.57776  3.6e-05  3.754431  0.0  0.527324  8.3e-05  4.062794  0.0  0.559371  4.7e-05  4.05337  0.0  0.23297  0.505336  9.6e-05  4.069034  0.0
C  C25  1  0.24767576  0.34820996  0.59343404  1  0.067301  4.2e-05  3.650178  0.0  0.04221  0.00014  3.894306  0.0  0.043223  0.0001  3.902015  0.0  0.000681  0.041297  0.000231  3.889349  0.0
C  C26  1  0.12105979  0.26962301  0.69630578  1  0.137752  0.000293  3.638935  0.0  0.106487  0.000429  3.902722  0.0  0.111288  0.000332  3.911228  0.0  -0.014462  0.103234  0.000538  3.896989  0.0
C  C27  1  0.31298539  0.14624604  0.87823627  1  0.072509  0.001341  3.603294  0.002  0.045067  0.002586  3.857155  0.003  0.04702  0.001825  3.863765  0.002  0.004766  0.043515  0.003353  3.852559  0.003
C  C28  1  0.31900366  0.27683215  0.79563874  1  0.098423  -3.6e-05  3.508316  0.0  0.065051  0.000192  3.767811  0.0  0.071127  -1.1e-05  3.775977  0.0  0.002017  0.060786  0.000427  3.762581  0.0
C  C29  1  0.08555746  0.12648873  0.94630208  1  0.657339  0.00129  3.796148  0.002  0.599701  0.003746  4.100657  0.004  0.632684  0.002511  4.095209  0.003  0.230358  0.577061  0.005154  4.103571  0.005
I  I30  1  0.69620780  0.72731036  0.67765907  1  -0.074624  0.000246  1.507747  0.0  -0.055978  0.000637  1.893199  0.0  -0.046249  0.000371  1.874208  0.0  -0.019854  -0.061975  0.001055  1.907003  0.001
I  I31  1  0.05020284  0.66232640  0.85010606  1  -0.24669  2.3e-05  1.11031  0.0  -0.236497  0.000352  1.440481  0.0  -0.244949  0.000123  1.422479  0.0  -0.12729  -0.230354  0.000767  1.453176  0.001
I  I32  1  0.32162706  0.77751359  0.49738716  1  -0.34561  0.000443  1.172103  0.0  -0.319085  0.000774  1.505444  0.0  -0.334263  0.000395  1.483965  0.0  -0.115591  -0.309096  0.001354  1.521441  0.001
O  O33  1  0.29352200  0.88776206  0.12155571  1  -0.508459  0.018279  2.063264  0.011  -0.453979  0.024203  2.305991  0.015  -0.478583  0.021845  2.297578  0.014  -0.243731  -0.436481  0.026459  2.311359  0.017
O  O34  1  0.39246925  0.65527550  0.12683391  1  -0.296391  0.000264  2.211958  0.001  -0.232345  0.001148  2.450085  0.001  -0.252348  0.000701  2.44654  0.001  -0.149313  -0.218698  0.001605  2.45222  0.002
O  O35  1  0.74966468  0.98915322  0.16305294  1  -0.575263  0.020685  2.215715  0.013  -0.515556  0.028422  2.464745  0.019  -0.534894  0.025252  2.450844  0.016  -0.406197  -0.500889  0.031448  2.473924  0.021
O  O36  1  0.84366284  0.75811786  0.29885317  1  -0.585659  -0.000227  2.101004  0.0  -0.547516  -0.000101  2.33927  0.0  -0.563285  -0.000186  2.327952  0.0  -0.451694  -0.536028  1.6e-05  2.347549  0.0
O  O37  1  0.37138967  0.37657823  0.21285681  1  -0.560353  0.023507  2.16755  0.015  -0.502903  0.031569  2.420046  0.021  -0.521929  0.028205  2.403906  0.018  -0.374364  -0.488522  0.034729  2.43095  0.023
O  O38  1  0.96698593  0.47512149  0.31080167  1  -0.639474  0.002356  1.99354  0.003  -0.577718  0.00384  2.211809  0.004  -0.60416  0.00288  2.202313  0.003  -0.303701  -0.559001  0.004862  2.217952  0.005
O  O39  1  0.75533069  0.26013626  0.24630286  1  -0.632929  0.029087  2.075198  0.02  -0.571292  0.033463  2.340007  0.021  -0.601575  0.0299  2.32935  0.018  -0.331113  -0.548881  0.036886  2.346307  0.024
O  O40  1  0.63583868  0.29714834  0.53199479  1  -0.516692  -0.000274  1.982511  0.0  -0.482796  -0.000304  2.212071  0.0  -0.502231  -0.000331  2.204497  0.0  -0.308937  -0.469471  -0.000144  2.21712  0.0
O  O41  1  0.53363574  0.27606749  0.72816879  1  -0.308143  -8e-06  2.188744  0.0  -0.244677  0.000124  2.422971  0.0  -0.264596  5.4e-05  2.419258  0.0  -0.154514  -0.230969  0.000217  2.425271  0.0
O  O42  1  0.15960580  0.30446442  0.47334422  1  -0.551942  -0.000144  2.198463  0.0  -0.492117  2.2e-05  2.420334  0.001  -0.508284  -0.00013  2.407621  0.0  -0.408793  -0.480545  0.000224  2.429112  0.001
O  O43  1  0.04053254  0.12147161  0.65251363  1  -0.599129  0.000152  2.093967  0.0  -0.563597  0.000327  2.33442  0.0  -0.578331  0.000252  2.321898  0.0  -0.468711  -0.552887  0.000441  2.343032  0.0
O  O44  1  0.50405220  0.16777720  0.96593848  1  -0.587305  0.02854  2.170323  0.017  -0.527446  0.036902  2.42891  0.022  -0.548106  0.032976  2.411484  0.019  -0.381779  -0.511695  0.040535  2.440459  0.025
O  O45  1  0.09920395  0.13770243  0.06320482  1  -0.610071  0.026639  2.093482  0.018  -0.536494  0.031045  2.335857  0.02  -0.567115  0.027935  2.325426  0.017  -0.284368  -0.51418  0.033947  2.342386  0.023
O  O46  1  0.89863532  0.09815111  0.88211306  1  -0.603331  0.001619  2.02364  0.002  -0.549035  0.002926  2.251782  0.004  -0.574875  0.002044  2.242659  0.003  -0.29566  -0.530948  0.003845  2.257723  0.004
O  O47  1  0.30738345  0.08893247  0.33514827  1  -0.863638  0.031891  2.000819  0.018  -0.801112  0.040907  2.209739  0.022  -0.825149  0.036884  2.172641  0.019  -0.607942  -0.783073  0.044421  2.236065  0.025
