# generated using pymatgen
data_H3RhC9O5F6
_symmetry_space_group_name_H-M   'P 1'
_cell_length_a   9.30802667
_cell_length_b   12.75790459
_cell_length_c   12.75781193
_cell_angle_alpha   109.89828647
_cell_angle_beta   88.18862639
_cell_angle_gamma   88.19035530
_symmetry_Int_Tables_number   1
_chemical_formula_structural   H3RhC9O5F6
_chemical_formula_sum   'H12 Rh4 C36 O20 F24'
_cell_volume   1422.39639714
_cell_formula_units_Z   4
loop_
 _symmetry_equiv_pos_site_id
 _symmetry_equiv_pos_as_xyz
  1  'x, y, z'
loop_
 _atom_site_type_symbol
 _atom_site_label
 _atom_site_symmetry_multiplicity
 _atom_site_fract_x
 _atom_site_fract_y
 _atom_site_fract_z
 _atom_site_occupancy
 _atom_site_pbe_bader_spin_density
 _atom_site_pbe_cm5_charge
 _atom_site_pbe_ddec_charge
 _atom_site_pbe_ddec_spin_density
 _atom_site_pbe_ddec_sum_bond_order
 _atom_site_pbe_magmom
H  H0  1  0.90748570  0.79556271  0.67642699  1  0  0.11677  0.142927  0  1.00024  0
H  H1  1  0.09257202  0.32358099  0.20445020  1  0  0.116805  0.142982  0  1.000111  0
H  H2  1  0.09254709  0.20445227  0.32358901  1  0  0.116806  0.143042  0  1.000129  0
H  H3  1  0.90749404  0.67642827  0.79553702  1  0  0.116763  0.142971  0  1.000084  0
H  H4  1  0.79034370  0.16747812  0.92925786  1  0  0.104551  0.114745  0  1.044365  0
H  H5  1  0.20969444  0.07071563  0.83251097  1  0  0.104425  0.114513  0  1.04429  0
H  H6  1  0.20966544  0.83254124  0.07072917  1  0  0.104572  0.114652  0  1.044337  0
H  H7  1  0.79038670  0.92929067  0.16747516  1  0  0.104616  0.114715  0  1.044322  0
H  H8  1  0.72762811  0.25251125  0.13296949  1  0  0.105844  0.107573  0  0.985237  0
H  H9  1  0.27242243  0.86700936  0.74750091  1  0  0.105881  0.107661  0  0.985145  0
H  H10  1  0.27240094  0.74752239  0.86703345  1  0  0.105875  0.107661  0  0.985454  0
H  H11  1  0.72765648  0.13299364  0.25248721  1  0  0.105808  0.107641  0  0.985329  0
Rh  Rh12  1  0.95360823  0.00011319  0.59018851  1  0  0.654472  0.62957  0  3.597877  0
Rh  Rh13  1  0.04637619  0.40981502  0.99987686  1  0  0.654505  0.629724  0  3.597855  0
Rh  Rh14  1  0.04639649  0.99989174  0.40982955  1  0  0.654527  0.629795  0  3.597904  0
Rh  Rh15  1  0.95360612  0.59017675  0.00010531  1  0  0.654443  0.629672  0  3.597963  0
C  C16  1  0.23674473  0.08211102  0.58701298  1  0  0.210343  0.393521  0  4.190429  0
C  C17  1  0.76323146  0.41300032  0.91786101  1  0  0.21046  0.393702  0  4.189883  0
C  C18  1  0.76325276  0.91786716  0.41302319  1  0  0.210304  0.393664  0  4.189932  0
C  C19  1  0.23674424  0.58698325  0.08212459  1  0  0.210358  0.393768  0  4.189814  0
C  C20  1  0.38102214  0.12298976  0.64040561  1  0  0.301933  0.59596  0  4.056158  0
C  C21  1  0.61896867  0.35960571  0.87699078  1  0  0.302065  0.596408  0  4.055627  0
C  C22  1  0.61898238  0.87700092  0.35961610  1  0  0.301973  0.5959  0  4.055429  0
C  C23  1  0.38102124  0.64037970  0.12301815  1  0  0.301926  0.595992  0  4.056058  0
C  C24  1  0.11397674  0.80143433  0.45806340  1  0  0.210307  0.392327  0  4.19748  0
C  C25  1  0.88603888  0.54193957  0.19856255  1  0  0.21053  0.392596  0  4.19697  0
C  C26  1  0.88602722  0.19858075  0.54194724  1  0  0.210364  0.392385  0  4.197011  0
C  C27  1  0.11396275  0.45806331  0.80142187  1  0  0.210393  0.392445  0  4.196708  0
C  C28  1  0.18433584  0.68345737  0.43489747  1  0  0.302155  0.596573  0  4.051357  0
C  C29  1  0.81563956  0.56511538  0.31653504  1  0  0.302238  0.597155  0  4.050288  0
C  C30  1  0.81562426  0.31653237  0.56510367  1  0  0.302174  0.596913  0  4.050834  0
C  C31  1  0.18434554  0.43489122  0.68346094  1  0  0.302192  0.59685  0  4.050965  0
C  C32  1  0.88452968  0.83109143  0.76615074  1  0  -0.067351  -0.144168  0  3.878801  0
C  C33  1  0.11548761  0.23385469  0.16892222  1  0  -0.067411  -0.144248  0  3.878312  0
C  C34  1  0.11548302  0.16893429  0.23385732  1  0  -0.067503  -0.144421  0  3.878196  0
C  C35  1  0.88453530  0.76615500  0.83106921  1  0  -0.067516  -0.144246  0  3.878258  0
C  C36  1  0.85992432  0.95194044  0.81402021  1  0  0.154733  0.369379  0  3.984674  0
C  C37  1  0.14005634  0.18597883  0.04806674  1  0  0.154715  0.369818  0  3.984055  0
C  C38  1  0.14006380  0.04807019  0.18598187  1  0  0.154778  0.369776  0  3.983829  0
C  C39  1  0.85992418  0.81402699  0.95193682  1  0  0.15486  0.369512  0  3.984038  0
C  C40  1  0.82034820  0.00141353  0.93375351  1  0  -0.012355  -0.040024  0  3.983609  0
C  C41  1  0.17964078  0.06624910  0.99858606  1  0  -0.012236  -0.040134  0  3.983661  0
C  C42  1  0.17964152  0.99860639  0.06623535  1  0  -0.012162  -0.04003  0  3.983205  0
C  C43  1  0.82035118  0.93377412  0.00140081  1  0  -0.012168  -0.039869  0  3.983325  0
C  C44  1  0.78689901  0.11612505  0.98194765  1  0  -0.074677  -0.083826  0  3.93108  0
C  C45  1  0.21313853  0.01802897  0.88387824  1  0  -0.074677  -0.083784  0  3.93193  0
C  C46  1  0.21312386  0.88389047  0.01804582  1  0  -0.074734  -0.083769  0  3.931347  0
C  C47  1  0.78691313  0.98197643  0.11612022  1  0  -0.074732  -0.083985  0  3.931739  0
C  C48  1  0.75280548  0.16304609  0.09594579  1  0  -0.077185  -0.064326  0  3.972575  0
C  C49  1  0.24722773  0.90405367  0.83697237  1  0  -0.077167  -0.064208  0  3.973406  0
C  C50  1  0.24721923  0.83697514  0.90405674  1  0  -0.077293  -0.064498  0  3.973388  0
C  C51  1  0.75282793  0.09596488  0.16303617  1  0  -0.077204  -0.064216  0  3.973011  0
O  O52  1  0.14302655  0.06518434  0.65329228  1  0  -0.270979  -0.380127  0  2.479692  0
O  O53  1  0.85694984  0.34672214  0.93481185  1  0  -0.271104  -0.380361  0  2.478954  0
O  O54  1  0.85697764  0.93480876  0.34673889  1  0  -0.271095  -0.380315  0  2.479009  0
O  O55  1  0.14303203  0.65325448  0.06518070  1  0  -0.27101  -0.380239  0  2.479392  0
O  O56  1  0.22959529  0.06652278  0.48378923  1  0  -0.27707  -0.382616  0  2.460175  0
O  O57  1  0.77041811  0.51621802  0.93343549  1  0  -0.277044  -0.382746  0  2.460348  0
O  O58  1  0.77040677  0.93346036  0.51624003  1  0  -0.276907  -0.382612  0  2.460625  0
O  O59  1  0.22958105  0.48375257  0.06652431  1  0  -0.276995  -0.382742  0  2.460059  0
O  O60  1  0.04803039  0.84409421  0.55270871  1  0  -0.280369  -0.408625  0  2.515873  0
O  O61  1  0.95198773  0.44728406  0.15590131  1  0  -0.280504  -0.408845  0  2.515555  0
O  O62  1  0.95203088  0.15591672  0.44729244  1  0  -0.280405  -0.408811  0  2.515205  0
O  O63  1  0.04798136  0.55271889  0.84409109  1  0  -0.28043  -0.408819  0  2.515456  0
O  O64  1  0.86715581  0.15775009  0.61856846  1  0  -0.269058  -0.367482  0  2.455746  0
O  O65  1  0.13282859  0.38142935  0.84225085  1  0  -0.269021  -0.367409  0  2.455542  0
O  O66  1  0.13285713  0.84225313  0.38143016  1  0  -0.269051  -0.367498  0  2.455551  0
O  O67  1  0.86718081  0.61857472  0.15775670  1  0  -0.269186  -0.3677  0  2.455755  0
O  O68  1  0.87248130  0.01469661  0.75673099  1  0  -0.243051  -0.338851  0  2.325954  0
O  O69  1  0.12747888  0.24325764  0.98529921  1  0  -0.243023  -0.339046  0  2.325386  0
O  O70  1  0.12751428  0.98531628  0.24327342  1  0  -0.243002  -0.339002  0  2.325559  0
O  O71  1  0.87249321  0.75673763  0.01469833  1  0  -0.243102  -0.338976  0  2.32573  0
F  F72  1  0.45663521  0.17488747  0.58208041  1  0  -0.098958  -0.188721  0  1.363984  0
F  F73  1  0.54332662  0.41789336  0.82507885  1  0  -0.098908  -0.188761  0  1.36379  0
F  F74  1  0.54330734  0.82510802  0.41790163  1  0  -0.098877  -0.188644  0  1.363896  0
F  F75  1  0.45664106  0.58206274  0.17491676  1  0  -0.098908  -0.188675  0  1.364043  0
F  F76  1  0.35801048  0.19337785  0.74651420  1  0  -0.090214  -0.183014  0  1.381965  0
F  F77  1  0.64198004  0.25347824  0.80660362  1  0  -0.090363  -0.18329  0  1.381568  0
F  F78  1  0.64201630  0.80661572  0.25348726  1  0  -0.090433  -0.183163  0  1.381319  0
F  F79  1  0.35801486  0.74648517  0.19341328  1  0  -0.09036  -0.183172  0  1.381792  0
F  F80  1  0.46224057  0.03270923  0.64262745  1  0  -0.103483  -0.193143  0  1.282359  0
F  F81  1  0.53775565  0.35736579  0.96726980  1  0  -0.103498  -0.193204  0  1.282271  0
F  F82  1  0.53778761  0.96729275  0.35736597  1  0  -0.103446  -0.193112  0  1.282189  0
F  F83  1  0.46223115  0.64261974  0.03273605  1  0  -0.103434  -0.193126  0  1.282256  0
F  F84  1  0.12432031  0.63222671  0.50120200  1  0  -0.098532  -0.188939  0  1.366593  0
F  F85  1  0.87557837  0.49880287  0.36779460  1  0  -0.098463  -0.189102  0  1.366282  0
F  F86  1  0.87556506  0.36777798  0.49878659  1  0  -0.09838  -0.188952  0  1.366656  0
F  F87  1  0.12438234  0.50118284  0.63218945  1  0  -0.098472  -0.188959  0  1.366355  0
F  F88  1  0.32702801  0.69082278  0.45367534  1  0  -0.098447  -0.186367  0  1.305823  0
F  F89  1  0.67293422  0.54636242  0.30914229  1  0  -0.098654  -0.186655  0  1.30555  0
F  F90  1  0.67291227  0.30914453  0.54636586  1  0  -0.0986  -0.186523  0  1.305475  0
F  F91  1  0.32704642  0.45364710  0.69082885  1  0  -0.098517  -0.186457  0  1.305801  0
F  F92  1  0.16973223  0.61737621  0.32687649  1  0  -0.099407  -0.192379  0  1.343875  0
F  F93  1  0.83026326  0.67312995  0.38260386  1  0  -0.099399  -0.192499  0  1.343851  0
F  F94  1  0.83023544  0.38262082  0.67312483  1  0  -0.09946  -0.19251  0  1.343692  0
F  F95  1  0.16970961  0.32686270  0.61740139  1  0  -0.099471  -0.192549  0  1.34375  0
