# generated using pymatgen
data_Gd2Cu3H24(C4O5)6
_symmetry_space_group_name_H-M   'P 1'
_cell_length_a   12.66293087
_cell_length_b   12.66815558
_cell_length_c   16.36743200
_cell_angle_alpha   90.00093255
_cell_angle_beta   90.00079629
_cell_angle_gamma   119.98412444
_symmetry_Int_Tables_number   1
_chemical_formula_structural   Gd2Cu3H24(C4O5)6
_chemical_formula_sum   'Gd4 Cu6 H48 C48 O60'
_cell_volume   2274.19790108
_cell_formula_units_Z   2
loop_
 _symmetry_equiv_pos_site_id
 _symmetry_equiv_pos_as_xyz
  1  'x, y, z'
loop_
 _atom_site_type_symbol
 _atom_site_label
 _atom_site_symmetry_multiplicity
 _atom_site_fract_x
 _atom_site_fract_y
 _atom_site_fract_z
 _atom_site_occupancy
 _atom_site_pbe_bader_charge
 _atom_site_pbe_bader_spin_density
 _atom_site_pbe_cm5_charge
 _atom_site_pbe_ddec_charge
 _atom_site_pbe_ddec_spin_density
 _atom_site_pbe_ddec_sum_bond_order
 _atom_site_pbe_magmom
Gd  Gd0  1  0.33337115  0.66672215  0.24998904  1  2.206622  -0.000631  1.494495  1.941717  -0.001151  2.35038  -0.001
Gd  Gd1  1  0.66664813  0.33327579  0.25001465  1  2.206588  -0.000631  1.494456  1.941651  -0.00115  2.350266  -0.001
Gd  Gd2  1  0.66663533  0.33327878  0.74997518  1  2.207014  -0.000631  1.494394  1.941729  -0.00115  2.350131  -0.001
Gd  Gd3  1  0.33333458  0.66670923  0.75004915  1  2.206852  -0.000631  1.494397  1.941729  -0.00115  2.350159  -0.001
Cu  Cu4  1  0.50002661  0.50001743  0.00001791  1  1.110317  0.577418  0.731659  0.942812  0.736184  1.975723  0.58
Cu  Cu5  1  0.99999475  0.49997778  0.00001770  1  1.108544  0.577391  0.731561  0.942326  0.736169  1.977514  0.58
Cu  Cu6  1  0.49997479  0.99999706  0.99999215  1  1.108711  0.577502  0.731835  0.942791  0.736288  1.97774  0.58
Cu  Cu7  1  0.99999367  0.49997890  0.49999289  1  1.108779  0.577401  0.731641  0.942792  0.736116  1.975163  0.58
Cu  Cu8  1  0.50000819  0.50002114  0.50001632  1  1.109933  0.577436  0.731643  0.942334  0.736254  1.978229  0.58
Cu  Cu9  1  0.49997073  0.99998178  0.50000408  1  1.108468  0.577498  0.731918  0.942471  0.736317  1.978769  0.58
H  H10  1  0.85345744  0.19933659  0.85787508  1  0.101198  0.000234  0.11787  0.115419  0.000116  0.97125  0.0
H  H11  1  0.76948482  0.06342784  0.79765913  1  0.067727  -0.000136  0.106234  0.084152  -0.000172  1.008031  0.0
H  H12  1  0.34587537  0.14657336  0.85785006  1  0.113623  0.000235  0.117897  0.115526  0.000116  0.970928  0.0
H  H13  1  0.29400078  0.23066696  0.79763138  1  0.070667  -0.000138  0.106245  0.084203  -0.000173  1.007808  0.0
H  H14  1  0.80070870  0.65417073  0.85783638  1  0.11191  0.00023  0.117842  0.115545  0.000114  0.970706  0.0
H  H15  1  0.93667793  0.70590324  0.79762447  1  0.074287  -0.000139  0.106206  0.084095  -0.000173  1.0081  0.0
H  H16  1  0.14652167  0.80097061  0.85790454  1  0.098915  0.000233  0.117975  0.115465  0.000114  0.971064  0.0
H  H17  1  0.23064953  0.93665076  0.79752858  1  0.067017  -0.000137  0.106228  0.083979  -0.000173  1.008276  0.0
H  H18  1  0.65429622  0.85348540  0.85791735  1  0.112952  0.000233  0.117797  0.115188  0.000114  0.971172  0.0
H  H19  1  0.70595248  0.76930647  0.79760703  1  0.070964  -0.000138  0.106287  0.0839  -0.000173  1.008236  0.0
H  H20  1  0.19922137  0.34569100  0.85788275  1  0.110415  0.000229  0.117769  0.115336  0.000114  0.97079  0.0
H  H21  1  0.06335456  0.29407815  0.79758767  1  0.075456  -0.000139  0.106158  0.083945  -0.000173  1.008093  0.0
H  H22  1  0.65407172  0.80061677  0.64214170  1  0.111448  0.000232  0.117891  0.115573  0.000115  0.971179  0.0
H  H23  1  0.70597354  0.93654070  0.70236056  1  0.077008  -0.000139  0.106312  0.084234  -0.000173  1.008403  0.0
H  H24  1  0.19943356  0.85348980  0.64212198  1  0.101271  0.000234  0.117806  0.115305  0.000116  0.970967  0.0
H  H25  1  0.06339744  0.76948793  0.70227878  1  0.067937  -0.000136  0.10633  0.084268  -0.000172  1.007879  0.0
H  H26  1  0.14653233  0.34590226  0.64213722  1  0.113236  0.000231  0.117869  0.115462  0.000113  0.970889  0.0
H  H27  1  0.23068606  0.29409643  0.70232867  1  0.071224  -0.000137  0.10623  0.084164  -0.000173  1.008134  0.0
H  H28  1  0.34577538  0.19927958  0.64205708  1  0.110157  0.000231  0.11799  0.115591  0.000115  0.970979  0.0
H  H29  1  0.29400697  0.06349992  0.70237576  1  0.077074  -0.000139  0.106364  0.084239  -0.000173  1.008253  0.0
H  H30  1  0.80077476  0.14648713  0.64207865  1  0.099944  0.000232  0.117802  0.115186  0.000114  0.971224  0.0
H  H31  1  0.93662507  0.23064050  0.70238973  1  0.067635  -0.000137  0.106238  0.083972  -0.000173  1.008171  0.0
H  H32  1  0.85347227  0.65421692  0.64208845  1  0.1126  0.000231  0.117896  0.115457  0.000113  0.970861  0.0
H  H33  1  0.76931844  0.70588764  0.70238444  1  0.071431  -0.000138  0.106163  0.083991  -0.000173  1.008432  0.0
H  H34  1  0.14649480  0.80064962  0.14208302  1  0.100386  0.000234  0.118049  0.115523  0.000116  0.971152  0.0
H  H35  1  0.23046940  0.93651807  0.20233747  1  0.067912  -0.000137  0.106286  0.084084  -0.000173  1.008216  0.0
H  H36  1  0.65419852  0.85347594  0.14213310  1  0.112696  0.000234  0.117864  0.115389  0.000115  0.970906  0.0
H  H37  1  0.70602218  0.76939215  0.20240737  1  0.070232  -0.000138  0.106261  0.084098  -0.000173  1.00774  0.0
H  H38  1  0.19932867  0.34579172  0.14212600  1  0.110836  0.00023  0.117836  0.115344  0.000114  0.97088  0.0
H  H39  1  0.06342400  0.29408261  0.20238862  1  0.076329  -0.000139  0.106172  0.083903  -0.000173  1.008361  0.0
H  H40  1  0.85346490  0.19933204  0.14209511  1  0.100655  0.000234  0.117941  0.115462  0.000116  0.971144  0.0
H  H41  1  0.76948895  0.06343575  0.20232139  1  0.067819  -0.000136  0.106327  0.084248  -0.000172  1.008002  0.0
H  H42  1  0.34585171  0.14654449  0.14211958  1  0.112859  0.000233  0.117828  0.11536  0.000115  0.970915  0.0
H  H43  1  0.29400315  0.23064732  0.20235474  1  0.071171  -0.000137  0.106227  0.084096  -0.000173  1.007866  0.0
H  H44  1  0.80061623  0.65409944  0.14213522  1  0.111266  0.000232  0.117809  0.11537  0.000115  0.970912  0.0
H  H45  1  0.93659851  0.70594110  0.20235210  1  0.07637  -0.000139  0.106216  0.084099  -0.000172  1.00807  0.0
H  H46  1  0.34574016  0.19922569  0.35790133  1  0.110527  0.000231  0.117891  0.115469  0.000114  0.970879  0.0
H  H47  1  0.29402929  0.06342065  0.29758044  1  0.076513  -0.000139  0.106282  0.084266  -0.000174  1.008022  0.0
H  H48  1  0.80079274  0.14648738  0.35788501  1  0.100405  0.000232  0.117782  0.115242  0.000115  0.970871  0.0
H  H49  1  0.93664904  0.23063191  0.29759440  1  0.067661  -0.000137  0.106263  0.084094  -0.000173  1.007701  0.0
H  H50  1  0.85348745  0.65422904  0.35790093  1  0.112693  0.000231  0.117825  0.115413  0.000113  0.97076  0.0
H  H51  1  0.76928179  0.70587807  0.29762333  1  0.071077  -0.000138  0.106233  0.084086  -0.000173  1.008218  0.0
H  H52  1  0.65419552  0.80075966  0.35791569  1  0.110617  0.000231  0.117888  0.115482  0.000115  0.971043  0.0
H  H53  1  0.70596742  0.93657600  0.29762572  1  0.076624  -0.000139  0.106212  0.0841  -0.000173  1.008451  0.0
H  H54  1  0.19924399  0.85345914  0.35788679  1  0.09976  0.000233  0.117849  0.11534  0.000115  0.970834  0.0
H  H55  1  0.06334451  0.76934312  0.29761236  1  0.068078  -0.000137  0.106238  0.084042  -0.000173  1.007886  0.0
H  H56  1  0.14656726  0.34583880  0.35787393  1  0.113358  0.000232  0.117898  0.11556  0.000114  0.970836  0.0
H  H57  1  0.23076148  0.29411905  0.29764576  1  0.070029  -0.000138  0.106236  0.084171  -0.000173  1.008077  0.0
C  C58  1  0.11830757  0.65901938  0.36638398  1  1.613647  -0.000727  0.224994  0.633788  -0.001246  4.146955  -0.002
C  C59  1  0.85183318  0.22656607  0.68212247  1  0.400167  0.010173  -0.056751  -0.110238  0.007331  3.877176  0.008
C  C60  1  0.54069537  0.88173856  0.36640883  1  1.624634  -0.000755  0.225142  0.633918  -0.001249  4.146857  -0.002
C  C61  1  0.37473604  0.14819296  0.68212373  1  0.3734  0.010181  -0.057318  -0.111334  0.007339  3.876466  0.008
C  C62  1  0.34106730  0.45932992  0.36639341  1  1.639583  -0.000774  0.224863  0.633856  -0.001251  4.146971  -0.002
C  C63  1  0.77336557  0.62518164  0.68213855  1  0.371956  0.010186  -0.05722  -0.111236  0.007328  3.876696  0.008
C  C64  1  0.88168758  0.34092019  0.36640576  1  1.613985  -0.000727  0.224584  0.632808  -0.001247  4.148861  -0.002
C  C65  1  0.14816207  0.77340575  0.68212858  1  0.399047  0.010172  -0.057207  -0.111419  0.007331  3.876153  0.008
C  C66  1  0.45928334  0.11828731  0.36640780  1  1.625048  -0.000764  0.225026  0.633873  -0.001251  4.14668  -0.002
C  C67  1  0.62520129  0.85182295  0.68217436  1  0.370034  0.010189  -0.057144  -0.111256  0.00734  3.876449  0.008
C  C68  1  0.65899626  0.54070319  0.36639939  1  1.639588  -0.000772  0.224817  0.633633  -0.001251  4.147325  -0.002
C  C69  1  0.22667069  0.37485124  0.68215343  1  0.370609  0.010194  -0.057206  -0.111386  0.007332  3.876048  0.008
C  C70  1  0.45927660  0.34097465  0.13359994  1  1.63891  -0.000769  0.2249  0.633679  -0.001245  4.147131  -0.002
C  C71  1  0.62524445  0.77339357  0.81788321  1  0.381081  0.010161  -0.05687  -0.110307  0.007329  3.877025  0.008
C  C72  1  0.65899146  0.11825604  0.13359469  1  1.613595  -0.00072  0.224993  0.633672  -0.001247  4.146797  -0.002
C  C73  1  0.22657319  0.85193152  0.81783558  1  0.401431  0.010182  -0.05703  -0.110559  0.007337  3.87712  0.008
C  C74  1  0.88173469  0.54067782  0.13362471  1  1.625154  -0.000766  0.224966  0.633825  -0.001254  4.146883  -0.002
C  C75  1  0.14814363  0.37476350  0.81784605  1  0.372421  0.010176  -0.057026  -0.110926  0.007332  3.875702  0.008
C  C76  1  0.54075736  0.65903065  0.13360974  1  1.639006  -0.00078  0.224923  0.633557  -0.001251  4.14757  -0.002
C  C77  1  0.37478505  0.22667316  0.81784109  1  0.373256  0.010189  -0.057162  -0.111516  0.007331  3.876189  0.008
C  C78  1  0.34097138  0.88172747  0.13358444  1  1.613752  -0.000722  0.225085  0.633457  -0.001248  4.147103  -0.002
C  C79  1  0.77339880  0.14812360  0.81784229  1  0.399528  0.010182  -0.05723  -0.111383  0.007339  3.876459  0.008
C  C80  1  0.11829672  0.45928532  0.13360636  1  1.625157  -0.000769  0.224868  0.633769  -0.001257  4.146723  -0.002
C  C81  1  0.85188289  0.62517693  0.81782205  1  0.372368  0.010177  -0.057059  -0.111229  0.007333  3.875572  0.008
C  C82  1  0.88166007  0.34091995  0.63358268  1  1.614084  -0.000726  0.224793  0.632925  -0.001245  4.148203  -0.002
C  C83  1  0.14813276  0.77337797  0.31785152  1  0.400122  0.010175  -0.056957  -0.111077  0.007332  3.875798  0.008
C  C84  1  0.45925050  0.11827521  0.63358166  1  1.623727  -0.000759  0.225105  0.633761  -0.001251  4.14686  -0.002
C  C85  1  0.62523957  0.85186488  0.31786370  1  0.371601  0.010187  -0.057215  -0.111377  0.00734  3.876419  0.008
C  C86  1  0.65898471  0.54072011  0.63360930  1  1.639427  -0.000772  0.224923  0.634132  -0.001253  4.146776  -0.002
C  C87  1  0.22670845  0.37484295  0.31785194  1  0.372618  0.010188  -0.057161  -0.111438  0.007329  3.876309  0.008
C  C88  1  0.11830352  0.65902921  0.63360855  1  1.612785  -0.000723  0.225047  0.633894  -0.001247  4.146969  -0.002
C  C89  1  0.85185657  0.22657445  0.31785213  1  0.39962  0.010174  -0.056871  -0.110717  0.00733  3.876238  0.008
C  C90  1  0.54065030  0.88169193  0.63362667  1  1.625352  -0.000762  0.224702  0.632979  -0.001246  4.146981  -0.002
C  C91  1  0.37473796  0.14815097  0.31784362  1  0.371554  0.010191  -0.057176  -0.111513  0.007343  3.875736  0.008
C  C92  1  0.34103919  0.45934102  0.63362287  1  1.639201  -0.000776  0.225067  0.634197  -0.001251  4.146636  -0.002
C  C93  1  0.77335817  0.62518076  0.31785905  1  0.371815  0.010191  -0.05718  -0.111223  0.007331  3.876309  0.008
C  C94  1  0.54075352  0.65906691  0.86644431  1  1.629628  -0.000742  0.224876  0.633483  -0.001246  4.148005  -0.002
C  C95  1  0.37478331  0.22663639  0.18214394  1  0.373567  0.010184  -0.057001  -0.111097  0.007327  3.875553  0.008
C  C96  1  0.34096380  0.88177188  0.86640618  1  1.613812  -0.000722  0.225179  0.633386  -0.001249  4.148138  -0.002
C  C97  1  0.77341416  0.14813827  0.18213841  1  0.399856  0.01018  -0.057171  -0.11122  0.007338  3.87599  0.008
C  C98  1  0.11826920  0.45925793  0.86641649  1  1.62505  -0.000767  0.224827  0.633425  -0.001256  4.146848  -0.002
C  C99  1  0.85182963  0.62517051  0.18216338  1  0.370586  0.010177  -0.057095  -0.111006  0.007332  3.87567  0.008
C  C100  1  0.45929762  0.34101044  0.86638747  1  1.637843  -0.000771  0.224942  0.63386  -0.001246  4.147466  -0.002
C  C101  1  0.62524791  0.77338416  0.18215673  1  0.373787  0.010196  -0.057138  -0.11117  0.007333  3.875418  0.008
C  C102  1  0.65897913  0.11824502  0.86638527  1  1.613493  -0.000724  0.225122  0.63371  -0.001251  4.146828  -0.002
C  C103  1  0.22654339  0.85182755  0.18212742  1  0.399603  0.010187  -0.057182  -0.110882  0.00734  3.876025  0.008
C  C104  1  0.88173281  0.54065996  0.86638535  1  1.624986  -0.000759  0.225067  0.633957  -0.001254  4.146387  -0.002
C  C105  1  0.14819997  0.37480699  0.18215989  1  0.371014  0.010177  -0.057109  -0.11097  0.007332  3.875912  0.008
O  O106  1  0.17677987  0.60503124  0.35096247  1  -1.171854  0.001911  -0.371597  -0.620966  0.000346  2.28096  0.002
O  O107  1  0.03581575  0.62992045  0.42024560  1  -1.106295  0.091822  -0.317229  -0.535903  0.058344  2.340023  0.083
O  O108  1  0.42824476  0.82321382  0.35094415  1  -1.17781  0.001911  -0.37176  -0.621112  0.000349  2.281202  0.002
O  O109  1  0.59406473  0.96418160  0.42028322  1  -1.109299  0.091809  -0.317144  -0.535595  0.058314  2.340879  0.083
O  O110  1  0.39494696  0.57173851  0.35097239  1  -1.177559  0.001906  -0.371548  -0.620972  0.000345  2.280805  0.002
O  O111  1  0.37012791  0.40592870  0.42027774  1  -1.112957  0.09184  -0.31716  -0.535762  0.058338  2.340411  0.083
O  O112  1  0.82319819  0.39490031  0.35099471  1  -1.171798  0.001912  -0.371407  -0.620342  0.000346  2.281356  0.002
O  O113  1  0.96418865  0.37002751  0.42025805  1  -1.106201  0.091802  -0.317158  -0.535687  0.058334  2.341059  0.083
O  O114  1  0.57173607  0.17680426  0.35096170  1  -1.177295  0.00191  -0.371667  -0.620888  0.000348  2.281188  0.002
O  O115  1  0.40589101  0.03584473  0.42028030  1  -1.109788  0.091854  -0.317332  -0.535969  0.05834  2.340644  0.083
O  O116  1  0.60509702  0.42829507  0.35097440  1  -1.178619  0.001907  -0.371532  -0.620761  0.000346  2.280981  0.002
O  O117  1  0.62995584  0.59411474  0.42028884  1  -1.112417  0.091864  -0.317183  -0.535785  0.058351  2.340128  0.083
O  O118  1  0.57173914  0.39496246  0.14901572  1  -1.179066  0.001906  -0.371541  -0.62085  0.000345  2.280553  0.002
O  O119  1  0.40590097  0.37009183  0.07974000  1  -1.112159  0.09182  -0.317236  -0.535935  0.058322  2.340509  0.083
O  O120  1  0.60506212  0.17679388  0.14901572  1  -1.172288  0.00191  -0.371686  -0.621006  0.000346  2.280701  0.002
O  O121  1  0.62988366  0.03578402  0.07973920  1  -1.106438  0.091759  -0.317124  -0.535758  0.058311  2.340651  0.083
O  O122  1  0.82326016  0.42826821  0.14905050  1  -1.177606  0.001905  -0.371469  -0.620961  0.000344  2.281012  0.002
O  O123  1  0.96420859  0.59409900  0.07974912  1  -1.109341  0.091877  -0.317285  -0.535925  0.058357  2.340488  0.083
O  O124  1  0.42829443  0.60506436  0.14901859  1  -1.178309  0.00191  -0.371562  -0.620632  0.000348  2.281066  0.002
O  O125  1  0.59417800  0.62992441  0.07977350  1  -1.11192  0.091877  -0.317129  -0.535884  0.058358  2.340739  0.083
O  O126  1  0.39491187  0.82320175  0.14900759  1  -1.171899  0.001912  -0.371634  -0.620796  0.000347  2.280796  0.002
O  O127  1  0.37006073  0.96419830  0.07973214  1  -1.106076  0.091787  -0.317347  -0.535948  0.058328  2.340916  0.083
O  O128  1  0.17679162  0.57170446  0.14901985  1  -1.177549  0.001907  -0.37146  -0.620871  0.000346  2.280665  0.002
O  O129  1  0.03580996  0.40584380  0.07974299  1  -1.109477  0.091869  -0.31728  -0.535921  0.058352  2.340379  0.083
O  O130  1  0.82316917  0.39490113  0.64898831  1  -1.172329  0.001912  -0.371598  -0.62057  0.000347  2.28123  0.002
O  O131  1  0.96416723  0.37002897  0.57973756  1  -1.106073  0.091802  -0.317089  -0.5356  0.058331  2.340628  0.083
O  O132  1  0.57170783  0.17680127  0.64902495  1  -1.177557  0.001911  -0.371779  -0.620984  0.000349  2.281094  0.002
O  O133  1  0.40585171  0.03579855  0.57973048  1  -1.109919  0.091809  -0.317302  -0.535926  0.058313  2.340923  0.083
O  O134  1  0.60508740  0.42831288  0.64903398  1  -1.178599  0.001906  -0.371518  -0.620968  0.000346  2.280875  0.002
O  O135  1  0.62992209  0.59412940  0.57973352  1  -1.112908  0.091831  -0.317296  -0.536034  0.058334  2.340534  0.083
O  O136  1  0.17674270  0.60501365  0.64904466  1  -1.171502  0.001911  -0.37153  -0.620811  0.000345  2.280539  0.002
O  O137  1  0.03581684  0.62993746  0.57973977  1  -1.106172  0.091833  -0.317237  -0.535996  0.058352  2.339976  0.083
O  O138  1  0.42819885  0.82320757  0.64909722  1  -1.178479  0.001909  -0.371512  -0.620488  0.000348  2.280608  0.002
O  O139  1  0.59402102  0.96410885  0.57974012  1  -1.108796  0.091809  -0.317068  -0.535399  0.058313  2.341006  0.083
O  O140  1  0.39494903  0.57174062  0.64908085  1  -1.177609  0.001906  -0.371642  -0.621101  0.000345  2.280937  0.002
O  O141  1  0.37008526  0.40595179  0.57972120  1  -1.112628  0.091846  -0.317244  -0.535997  0.058343  2.340529  0.083
O  O142  1  0.42828680  0.60510151  0.85104320  1  -1.178728  0.001907  -0.371458  -0.620585  0.000346  2.281177  0.002
O  O143  1  0.59415479  0.62995466  0.92029142  1  -1.111527  0.09183  -0.317258  -0.536005  0.058323  2.340488  0.083
O  O144  1  0.39484714  0.82318540  0.85100898  1  -1.171527  0.001912  -0.371665  -0.620757  0.000347  2.281528  0.002
O  O145  1  0.37007976  0.96426233  0.92025068  1  -1.106971  0.091773  -0.317409  -0.535934  0.058321  2.341248  0.083
O  O146  1  0.17677734  0.57167874  0.85101880  1  -1.176944  0.001906  -0.371472  -0.620713  0.000344  2.28092  0.002
O  O147  1  0.03579278  0.40582223  0.92028657  1  -1.110124  0.091873  -0.317209  -0.535703  0.058349  2.339702  0.083
O  O148  1  0.57175931  0.39499020  0.85096701  1  -1.177548  0.001909  -0.371482  -0.620812  0.000347  2.2807  0.002
O  O149  1  0.40590150  0.37011036  0.92024448  1  -1.112612  0.091851  -0.317145  -0.535889  0.058343  2.340395  0.083
O  O150  1  0.60505005  0.17678144  0.85096212  1  -1.17205  0.001913  -0.371664  -0.620871  0.000348  2.280613  0.002
O  O151  1  0.62988477  0.03577278  0.92024002  1  -1.106641  0.091794  -0.317163  -0.535788  0.058333  2.340574  0.083
O  O152  1  0.82325059  0.42825187  0.85094620  1  -1.177961  0.001905  -0.371589  -0.62104  0.000344  2.280851  0.002
O  O153  1  0.96417594  0.59407824  0.92028293  1  -1.109112  0.091861  -0.317219  -0.535865  0.058345  2.339914  0.083
O  O154  1  0.77875559  0.22098054  0.74994932  1  -1.096004  0.004968  -0.270465  -0.249387  0.002858  2.748573  0.004
O  O155  1  0.44227836  0.22123824  0.74995175  1  -1.092962  0.004966  -0.27037  -0.249225  0.002858  2.747589  0.004
O  O156  1  0.77892738  0.55763894  0.74994993  1  -1.090603  0.004964  -0.270209  -0.249463  0.002858  2.747102  0.004
O  O157  1  0.22098729  0.77878288  0.75006035  1  -1.095786  0.004965  -0.27039  -0.249408  0.002857  2.748547  0.004
O  O158  1  0.55769728  0.77894420  0.75006770  1  -1.091601  0.004962  -0.270495  -0.249599  0.002857  2.748187  0.004
O  O159  1  0.22122175  0.44234840  0.75003530  1  -1.090862  0.004964  -0.270164  -0.249369  0.002858  2.746781  0.004
O  O160  1  0.22114996  0.77891769  0.24999657  1  -1.096372  0.004968  -0.270569  -0.249271  0.002859  2.747625  0.004
O  O161  1  0.55771217  0.77886697  0.25001063  1  -1.092416  0.004965  -0.270368  -0.249147  0.002858  2.747051  0.004
O  O162  1  0.22122349  0.44236819  0.25000023  1  -1.092089  0.004965  -0.270228  -0.249327  0.002858  2.746955  0.004
O  O163  1  0.77878220  0.22101827  0.25002545  1  -1.096182  0.004966  -0.270435  -0.249209  0.002857  2.748064  0.004
O  O164  1  0.44230344  0.22118979  0.25001871  1  -1.092377  0.004963  -0.270252  -0.248947  0.002856  2.746832  0.004
O  O165  1  0.77889283  0.55763468  0.25003828  1  -1.090683  0.004966  -0.270178  -0.249442  0.00286  2.746812  0.004
