# generated using pymatgen
data_Cd3Cu2H46C52S2(N2O5)4
_symmetry_space_group_name_H-M   'P 1'
_cell_length_a   9.62839884
_cell_length_b   12.24577494
_cell_length_c   13.08559639
_cell_angle_alpha   70.97115953
_cell_angle_beta   75.63287486
_cell_angle_gamma   67.22150254
_symmetry_Int_Tables_number   1
_chemical_formula_structural   Cd3Cu2H46C52S2(N2O5)4
_chemical_formula_sum   'Cd3 Cu2 H46 C52 S2 N8 O20'
_cell_volume   1331.60146989
_cell_formula_units_Z   1
loop_
 _symmetry_equiv_pos_site_id
 _symmetry_equiv_pos_as_xyz
  1  'x, y, z'
loop_
 _atom_site_type_symbol
 _atom_site_label
 _atom_site_symmetry_multiplicity
 _atom_site_fract_x
 _atom_site_fract_y
 _atom_site_fract_z
 _atom_site_occupancy
 _atom_site_hle17_ddec_charge
 _atom_site_hle17_ddec_spin_density
 _atom_site_hle17_ddec_sum_bond_order
 _atom_site_hle17_magmom
 _atom_site_hse06_10hf_ddec_charge
 _atom_site_hse06_10hf_ddec_spin_density
 _atom_site_hse06_10hf_ddec_sum_bond_order
 _atom_site_hse06_10hf_magmom
 _atom_site_hse06_ddec_charge
 _atom_site_hse06_ddec_spin_density
 _atom_site_hse06_ddec_sum_bond_order
 _atom_site_hse06_magmom
 _atom_site_pbe_cm5_charge
 _atom_site_pbe_ddec_charge
 _atom_site_pbe_ddec_spin_density
 _atom_site_pbe_ddec_sum_bond_order
 _atom_site_pbe_magmom
Cd  Cd0  1  0.76068664  0.76367647  0.86986514  1  1.274182  -0.000994  1.560921  0.0  1.10351  -0.001001  2.000738  0.0  1.160358  -0.000449  1.941295  0.0  0.787572  1.061526  -0.001693  2.04273  -0.001
Cd  Cd1  1  0.23931787  0.23631842  0.13013342  1  1.274084  -0.000994  1.561015  0.0  1.103379  -0.001001  2.000855  0.0  1.16023  -0.000449  1.941414  0.0  0.787488  1.061385  -0.001693  2.042843  -0.001
Cd  Cd2  1  0.00000280  0.49999889  0.00000222  1  1.218186  -0.0  1.878566  0.0  1.062332  3e-06  2.34701  0.0  1.112903  5e-06  2.287663  0.0  0.763611  1.027933  -3e-06  2.385557  0.0
Cu  Cu3  1  0.78498575  0.79876502  0.42462788  1  0.676953  -0.654593  1.93753  -0.451  0.626827  -0.725991  2.336081  -0.553  0.706264  -0.797719  2.280471  -0.636  0.761312  0.583235  -0.676925  2.372282  -0.502
Cu  Cu4  1  0.21501366  0.20123721  0.57537092  1  0.677047  -0.654747  1.937548  -0.451  0.626821  -0.726012  2.336115  -0.553  0.706247  -0.797725  2.280505  -0.636  0.761291  0.583204  -0.676928  2.372307  -0.502
H  H5  1  0.91820247  0.90651938  0.85559394  1  0.41143  -1.7e-05  0.905876  0.0  0.374999  -2.6e-05  0.979523  0.0  0.387604  -2.1e-05  0.961467  0.0  0.280661  0.366107  -3.4e-05  0.99224  0.0
H  H6  1  0.08179804  0.09347735  0.14440937  1  0.411345  -1.7e-05  0.905969  0.0  0.374977  -2.6e-05  0.979523  0.0  0.387581  -2.1e-05  0.961469  0.0  0.280656  0.366085  -3.4e-05  0.992243  0.0
H  H7  1  0.74848501  0.00751354  0.84021475  1  0.437203  -3.1e-05  0.858707  0.0  0.407811  -5.1e-05  0.919649  0.0  0.418627  -3.9e-05  0.903858  0.0  0.292843  0.400058  -7.7e-05  0.930979  0.0
H  H8  1  0.25151482  0.99248231  0.15978588  1  0.437182  -3.1e-05  0.858744  0.0  0.407798  -5.1e-05  0.919669  0.0  0.418615  -3.9e-05  0.903876  0.0  0.292847  0.40005  -7.6e-05  0.930996  0.0
H  H9  1  0.09997980  0.58578644  0.76831059  1  0.418117  -0.000166  0.885814  0.0  0.386299  -0.000108  0.95256  0.0  0.396792  -7.3e-05  0.937237  0.0  0.288834  0.378822  -0.000146  0.96342  0.0
H  H10  1  0.90001673  0.41421490  0.23169128  1  0.418068  -0.000165  0.88588  0.0  0.386233  -0.000109  0.952657  0.0  0.396726  -7.3e-05  0.937335  0.0  0.288816  0.378758  -0.000146  0.963512  0.0
H  H11  1  0.22811283  0.46031451  0.81898692  1  0.427869  2.4e-05  0.873259  0.0  0.399482  5e-06  0.933521  0.0  0.409184  5e-06  0.919328  0.0  0.29273  0.392718  5e-06  0.943289  0.0
H  H12  1  0.77188440  0.53968772  0.18101685  1  0.427877  2.5e-05  0.873259  0.0  0.399556  5e-06  0.933425  0.0  0.409257  5e-06  0.919233  0.0  0.292791  0.39279  5e-06  0.943196  0.0
H  H13  1  0.41182362  0.77403545  0.73090858  1  0.115553  0.000702  0.973226  0.001  0.127392  0.000118  1.028472  0.0  0.130845  0.000123  1.026866  0.0  0.108112  0.124844  8.6e-05  1.029682  0.0
H  H14  1  0.58818087  0.22596217  0.26908993  1  0.115603  0.000702  0.973201  0.001  0.127434  0.000117  1.028455  0.0  0.130887  0.000123  1.026849  0.0  0.108112  0.124881  8.6e-05  1.029672  0.0
H  H15  1  0.14790289  0.80125522  0.72772407  1  0.104448  -0.000575  0.954758  -0.001  0.113864  -0.000234  1.013487  0.0  0.116611  -0.000148  1.011874  0.0  0.104501  0.111828  -0.000268  1.014856  0.0
H  H16  1  0.85210010  0.19874880  0.27227279  1  0.104491  -0.000575  0.954688  -0.001  0.113881  -0.000234  1.013441  0.0  0.116627  -0.000147  1.011831  0.0  0.104532  0.111842  -0.000269  1.014807  0.0
H  H17  1  0.04084892  0.88523951  0.55119312  1  0.093313  0.000618  0.959194  0.001  0.102049  8.9e-05  1.023673  0.0  0.104121  9.4e-05  1.024564  0.0  0.09801  0.1014  6.5e-05  1.021559  0.0
H  H18  1  0.95915436  0.11476905  0.44880615  1  0.093313  0.000616  0.959207  0.001  0.10207  9e-05  1.023656  0.0  0.104143  9.4e-05  1.024548  0.0  0.098017  0.101419  6.5e-05  1.021541  0.0
H  H19  1  0.20991830  0.93677944  0.37760472  1  0.105592  -0.00031  0.95615  -0.001  0.114816  -7.3e-05  1.018128  0.0  0.118044  -4e-05  1.016091  0.0  0.102835  0.11233  -0.000122  1.020001  0.0
H  H20  1  0.79008432  0.06322274  0.62239658  1  0.105601  -0.000312  0.956139  -0.001  0.114846  -7.2e-05  1.018096  0.0  0.118077  -4e-05  1.016052  0.0  0.102828  0.112357  -0.000121  1.019972  0.0
H  H21  1  0.42010220  0.95663414  0.28367845  1  0.0783  -0.006823  0.950737  -0.009  0.089355  -0.004405  1.015902  -0.005  0.089924  -0.003349  1.01311  -0.004  0.121253  0.088692  -0.005162  1.018032  -0.006
H  H22  1  0.57989545  0.04336446  0.71632098  1  0.078274  -0.006821  0.950758  -0.008  0.089331  -0.004406  1.01593  -0.005  0.0899  -0.003349  1.013137  -0.004  0.121258  0.088667  -0.005163  1.018062  -0.006
H  H23  1  0.66813957  0.04885897  0.20030437  1  0.073677  -0.000779  0.924461  -0.001  0.092278  -0.00026  0.987072  0.0  0.091554  -0.000298  0.987864  0.0  0.107745  0.092509  -0.000228  0.986606  0.0
H  H24  1  0.33186169  0.95113869  0.79969394  1  0.073684  -0.00078  0.924418  -0.001  0.092284  -0.00026  0.987034  0.0  0.091561  -0.000298  0.987822  0.0  0.10774  0.092509  -0.000227  0.986574  0.0
H  H25  1  0.59096446  0.96396737  0.15743213  1  0.081373  -0.004513  0.930834  -0.005  0.096179  -0.003088  0.993206  -0.003  0.095921  -0.002309  0.993158  -0.003  0.107731  0.095971  -0.003679  0.993631  -0.004
H  H26  1  0.40903353  0.03603305  0.84256669  1  0.081439  -0.004513  0.930852  -0.005  0.096253  -0.003087  0.993189  -0.003  0.095999  -0.002309  0.993138  -0.003  0.107769  0.096043  -0.003679  0.993612  -0.004
H  H27  1  0.85052649  0.93848714  0.06905574  1  0.094325  0.000175  0.916564  0.0  0.11686  5.7e-05  0.967712  0.0  0.11742  5.7e-05  0.968463  0.0  0.103765  0.116185  5e-05  0.967595  0.0
H  H28  1  0.14947296  0.06151237  0.93094157  1  0.094361  0.000175  0.916512  0.0  0.116898  5.7e-05  0.967653  0.0  0.117459  5.7e-05  0.968402  0.0  0.103781  0.11622  5.1e-05  0.967538  0.0
H  H29  1  0.84700271  0.79573234  0.15746798  1  0.09143  0.000134  0.931795  0.0  0.108571  0.000112  0.990958  0.0  0.109254  9.7e-05  0.991824  0.0  0.094839  0.107916  0.000116  0.990547  0.0
H  H30  1  0.15299602  0.20426900  0.84252815  1  0.091435  0.000135  0.931825  0.0  0.108571  0.000112  0.990983  0.0  0.109252  9.7e-05  0.99185  0.0  0.09485  0.107915  0.000116  0.990567  0.0
H  H31  1  0.06731700  0.87207958  0.15734572  1  0.062341  -0.004191  0.938981  -0.005  0.080102  -0.003216  1.000705  -0.004  0.079177  -0.002375  1.001724  -0.003  0.104047  0.080418  -0.003829  1.000363  -0.004
H  H32  1  0.93268464  0.12791718  0.84265050  1  0.06234  -0.004191  0.93902  -0.005  0.080112  -0.003216  1.000728  -0.004  0.079187  -0.002374  1.001748  -0.003  0.104042  0.080425  -0.003828  1.000384  -0.004
H  H33  1  0.92557885  0.98097689  0.22358809  1  0.079979  -0.000808  0.939782  -0.001  0.097401  -0.000417  1.001422  -0.001  0.097072  -0.000334  1.001981  -0.001  0.110287  0.09723  -0.000502  1.001359  -0.001
H  H34  1  0.07442348  0.01902351  0.77640691  1  0.079967  -0.000808  0.939828  -0.001  0.097369  -0.000416  1.001501  -0.001  0.097043  -0.000334  1.002055  -0.001  0.110274  0.097185  -0.000502  1.001452  -0.001
H  H35  1  0.20025696  0.73287633  0.26151181  1  0.072068  -0.006126  0.956174  -0.008  0.081705  -0.0042  1.023942  -0.005  0.082284  -0.003195  1.021878  -0.004  0.116508  0.081062  -0.004935  1.025549  -0.006
H  H36  1  0.79974251  0.26712319  0.73848397  1  0.072092  -0.006126  0.956176  -0.008  0.081753  -0.004199  1.02391  -0.005  0.082333  -0.003195  1.021844  -0.004  0.116516  0.081107  -0.004935  1.025516  -0.006
H  H37  1  0.37876221  0.56054844  0.33634369  1  0.09353  -0.000356  0.969029  -0.001  0.104084  -0.000104  1.030804  0.0  0.106115  -7.6e-05  1.03017  0.0  0.101634  0.102612  -0.000132  1.03133  0.0
H  H38  1  0.62123612  0.43945105  0.66365918  1  0.093504  -0.000356  0.969003  -0.001  0.104045  -0.000104  1.030806  0.0  0.106076  -7.6e-05  1.03017  0.0  0.101621  0.102571  -0.000133  1.03133  0.0
H  H39  1  0.47814214  0.38347716  0.49083336  1  0.094642  0.000799  0.957068  0.001  0.10685  1.9e-05  1.013003  0.0  0.108891  2.9e-05  1.014512  0.0  0.100972  0.1053  5e-06  1.012727  0.0
H  H40  1  0.52185368  0.61652328  0.50916814  1  0.094622  0.000796  0.957091  0.001  0.106833  1.9e-05  1.013026  0.0  0.108874  2.9e-05  1.014535  0.0  0.100966  0.105284  5e-06  1.012758  0.0
H  H41  1  0.30421228  0.34602723  0.66583778  1  0.102677  -0.000263  0.978145  -0.001  0.108591  0.000101  1.045379  0.0  0.111333  0.000158  1.043729  0.0  0.101446  0.106584  4.1e-05  1.046913  0.0
H  H42  1  0.69578069  0.65397233  0.33416372  1  0.102645  -0.000263  0.978283  -0.001  0.108564  0.000101  1.045526  0.0  0.111308  0.000159  1.043872  0.0  0.10143  0.106556  4e-05  1.047067  0.0
H  H43  1  0.03872888  0.48592308  0.68574064  1  0.111047  0.000969  0.939092  0.001  0.124592  8e-05  0.991109  0.0  0.127594  9.7e-05  0.990302  0.0  0.109965  0.122442  4.8e-05  0.991796  0.0
H  H44  1  0.96126518  0.51407923  0.31425450  1  0.111056  0.000969  0.939077  0.001  0.124622  7.9e-05  0.991065  0.0  0.127625  9.7e-05  0.990258  0.0  0.109963  0.122472  4.8e-05  0.991759  0.0
H  H45  1  0.25835253  0.82069757  0.99884305  1  0.105115  -3.1e-05  0.956724  0.0  0.113652  -6.4e-05  1.021967  0.0  0.117801  -4.8e-05  1.017817  0.0  0.107315  0.110609  -7.2e-05  1.025071  0.0
H  H46  1  0.74165560  0.17929913  0.00114898  1  0.105138  -3.2e-05  0.956735  0.0  0.113678  -6.3e-05  1.021971  0.0  0.117819  -4.8e-05  1.01783  0.0  0.107337  0.110632  -7.3e-05  1.025079  0.0
H  H47  1  0.43626269  0.37457016  0.16373664  1  0.105806  6.3e-05  0.975444  0.0  0.114311  3.4e-05  1.039905  0.0  0.117913  3.1e-05  1.038954  0.0  0.097702  0.111677  3e-05  1.040773  0.0
H  H48  1  0.56373488  0.62542839  0.83627352  1  0.105793  6.3e-05  0.975406  0.0  0.114252  3.4e-05  1.039919  0.0  0.117857  3.1e-05  1.038963  0.0  0.097694  0.111588  3.2e-05  1.040829  0.0
H  H49  1  0.57793507  0.49930758  0.17730198  1  0.104498  -8e-06  0.963981  0.0  0.115578  2e-06  1.024123  0.0  0.119104  1e-06  1.020863  0.0  0.105941  0.113576  5e-06  1.025588  0.0
H  H50  1  0.42206248  0.50069371  0.82270661  1  0.104477  -9e-06  0.964004  0.0  0.11555  2e-06  1.024164  0.0  0.119074  2e-06  1.020906  0.0  0.105941  0.113545  5e-06  1.02563  0.0
C  C51  1  0.85457626  0.72425824  0.63380222  1  0.432288  0.00967  3.879317  0.006  0.396317  0.000704  4.156552  0.0  0.424893  0.002263  4.157242  0.001  0.223743  0.378015  -0.000846  4.153858  -0.001
C  C52  1  0.14541990  0.27574677  0.36619556  1  0.43238  0.009666  3.879164  0.006  0.396391  0.000705  4.156443  0.0  0.424967  0.002263  4.157125  0.001  0.223766  0.378085  -0.000846  4.153749  -0.001
C  C53  1  0.68308249  0.79121286  0.64329344  1  0.43115  0.011228  3.866598  0.007  0.398394  0.003194  4.142801  0.001  0.425902  0.004078  4.145108  0.002  0.224497  0.379938  0.002467  4.140809  0.001
C  C54  1  0.31691367  0.20879215  0.35670434  1  0.431205  0.01122  3.866627  0.007  0.398433  0.003193  4.142835  0.001  0.425947  0.004078  4.145138  0.002  0.224539  0.379971  0.002466  4.140848  0.001
C  C55  1  0.46797891  0.83612518  0.55614734  1  0.239898  0.012122  3.764567  0.01  0.236832  0.001762  4.012685  0.002  0.250271  0.003732  4.03409  0.003  0.105119  0.228305  3.4e-05  3.997698  0.0
C  C56  1  0.53202122  0.16387521  0.44385340  1  0.239959  0.012123  3.764505  0.01  0.236884  0.001758  4.012612  0.002  0.250324  0.003727  4.034019  0.003  0.105113  0.228352  3.1e-05  3.997629  0.0
C  C57  1  0.36933105  0.80888373  0.65307474  1  -0.157051  -0.018091  3.688193  -0.018  -0.181308  -0.005965  3.94071  -0.007  -0.189042  -0.005134  3.960392  -0.006  -0.094157  -0.175535  -0.006422  3.926415  -0.007
C  C58  1  0.63067268  0.19111571  0.34692565  1  -0.157261  -0.018089  3.688369  -0.018  -0.181514  -0.005958  3.940885  -0.007  -0.189249  -0.005133  3.960569  -0.006  -0.094185  -0.175743  -0.006422  3.926594  -0.007
C  C59  1  0.21893380  0.82490621  0.65088731  1  -0.022523  0.016957  3.737289  0.011  -0.038467  0.003703  3.993351  0.002  -0.035435  0.004547  4.01208  0.002  -0.079239  -0.040256  0.002854  3.980367  0.001
C  C60  1  0.78106953  0.17509689  0.34911283  1  -0.022424  0.016958  3.737355  0.011  -0.038331  0.003694  3.9934  0.002  -0.0353  0.004544  4.012135  0.002  -0.07924  -0.040117  0.002854  3.980407  0.001
C  C61  1  0.15916779  0.87157249  0.55222936  1  -0.083628  -0.01395  3.781198  -0.013  -0.10348  -0.001996  4.042043  -0.002  -0.109643  -0.001921  4.066443  -0.002  -0.10016  -0.099812  -0.001959  4.025393  -0.002
C  C62  1  0.84083446  0.12843062  0.44777173  1  -0.08368  -0.013946  3.781237  -0.013  -0.103545  -0.001996  4.042076  -0.002  -0.109708  -0.001921  4.066477  -0.002  -0.100168  -0.099879  -0.001959  4.025425  -0.002
C  C63  1  0.25339636  0.89978418  0.45592683  1  -0.089464  0.017605  3.73971  0.012  -0.110382  0.003951  3.990207  0.002  -0.110087  0.004652  4.013125  0.003  -0.083743  -0.110933  0.0032  3.976538  0.002
C  C64  1  0.74660485  0.10021621  0.54407373  1  -0.089517  0.017615  3.739716  0.012  -0.110445  0.003956  3.990211  0.002  -0.110149  0.004648  4.013129  0.003  -0.08377  -0.111002  0.003203  3.976553  0.002
C  C65  1  0.40783834  0.88108815  0.45565533  1  -0.066879  -0.014189  3.781945  -0.015  -0.051732  -0.003804  4.020571  -0.005  -0.063713  -0.003349  4.047103  -0.005  -0.021946  -0.044923  -0.00426  4.003758  -0.005
C  C66  1  0.59216540  0.11891129  0.54434430  1  -0.066868  -0.014185  3.781876  -0.015  -0.051758  -0.003807  4.020556  -0.005  -0.063742  -0.003346  4.047093  -0.005  -0.021944  -0.04495  -0.004257  4.003743  -0.005
C  C67  1  0.49134940  0.91304580  0.34903706  1  0.174855  0.030345  3.663762  0.021  0.131927  0.009363  3.922763  0.006  0.152334  0.012123  3.933415  0.007  0.081527  0.118775  0.007172  3.915994  0.004
C  C68  1  0.50865183  0.08695459  0.65096120  1  0.174927  0.030339  3.663677  0.021  0.13201  0.00936  3.922693  0.006  0.15242  0.012121  3.933349  0.007  0.081559  0.118852  0.007167  3.915925  0.004
C  C69  1  0.67629355  0.95521667  0.20464855  1  0.022442  -0.002493  3.657751  -0.001  -0.033501  -0.002969  3.925845  -0.002  -0.027554  -0.001689  3.939852  -0.001  -0.069518  -0.036689  -0.003819  3.916366  -0.003
C  C70  1  0.32370805  0.04478281  0.79534915  1  0.02229  -0.002491  3.657912  -0.001  -0.033651  -0.002972  3.926001  -0.002  -0.027704  -0.00169  3.940007  -0.001  -0.069573  -0.036842  -0.003822  3.916527  -0.003
C  C71  1  0.83462435  0.88943051  0.15555078  1  -0.151637  -0.000674  3.678172  -0.001  -0.194565  -0.000392  3.938583  -0.001  -0.197298  -0.000378  3.951719  -0.001  -0.166169  -0.192717  -0.000367  3.929598  -0.001
C  C72  1  0.16537941  0.11056895  0.84444655  1  -0.151645  -0.000676  3.678258  -0.001  -0.194571  -0.00039  3.938653  -0.001  -0.1973  -0.000377  3.951789  -0.001  -0.166201  -0.19272  -0.000364  3.929662  -0.001
C  C73  1  0.95669682  0.88999568  0.20999267  1  0.020165  -0.000832  3.66809  0.0  -0.035028  -0.001757  3.932835  -0.001  -0.029652  -0.00059  3.947224  0.0  -0.071027  -0.037921  -0.002551  3.923349  -0.002
C  C74  1  0.04330408  0.11000291  0.79000390  1  0.020168  -0.000825  3.668133  0.0  -0.035003  -0.001758  3.932787  -0.001  -0.029644  -0.00059  3.947212  0.0  -0.071017  -0.037891  -0.002554  3.923303  -0.002
C  C75  1  0.10870719  0.72408835  0.32993500  1  0.163591  0.026684  3.665216  0.019  0.125771  0.006867  3.917008  0.004  0.145138  0.010477  3.92794  0.006  0.084482  0.113088  0.00376  3.910208  0.002
C  C76  1  0.89129405  0.27591205  0.67006173  1  0.163589  0.026685  3.665156  0.019  0.125778  0.006871  3.916915  0.004  0.145145  0.010473  3.927843  0.006  0.084468  0.113093  0.003758  3.910108  0.002
C  C77  1  0.15593883  0.62613510  0.42500345  1  -0.056911  -0.016991  3.791424  -0.018  -0.042164  -0.005174  4.02706  -0.006  -0.052898  -0.004529  4.0521  -0.006  -0.01808  -0.035278  -0.005439  4.010808  -0.006
C  C78  1  0.84405736  0.37386717  0.57499514  1  -0.056937  -0.016985  3.791496  -0.018  -0.042234  -0.005172  4.027176  -0.006  -0.05297  -0.004528  4.052213  -0.006  -0.018084  -0.035347  -0.005438  4.010916  -0.006
C  C79  1  0.30627634  0.54422766  0.41426119  1  -0.068484  0.020188  3.717345  0.014  -0.087871  0.004233  3.961394  0.003  -0.086173  0.005415  3.982439  0.003  -0.077388  -0.089201  0.003047  3.948543  0.002
C  C80  1  0.69372090  0.45577458  0.58574028  1  -0.068378  0.020184  3.717333  0.014  -0.087747  0.00423  3.961382  0.003  -0.08605  0.005412  3.982431  0.003  -0.07731  -0.089076  0.00305  3.948527  0.002
C  C81  1  0.36112369  0.44479740  0.49980682  1  -0.071559  -0.020637  3.768584  -0.019  -0.09174  -0.00467  4.029071  -0.005  -0.096672  -0.003929  4.051773  -0.004  -0.09676  -0.088916  -0.004801  4.016142  -0.004
C  C82  1  0.63887391  0.55520393  0.50019486  1  -0.071581  -0.020626  3.768628  -0.019  -0.091767  -0.00467  4.029126  -0.005  -0.0967  -0.003927  4.051829  -0.004  -0.096813  -0.088946  -0.004801  4.016208  -0.004
C  C83  1  0.26329173  0.42343535  0.59743030  1  -0.057783  0.02236  3.765912  0.014  -0.078976  0.005407  4.035723  0.003  -0.078224  0.00661  4.054038  0.003  -0.091031  -0.080483  0.003915  4.024947  0.002
C  C84  1  0.73670337  0.57656693  0.40257002  1  -0.057705  0.022358  3.765942  0.014  -0.078914  0.005414  4.035743  0.003  -0.078165  0.006605  4.054064  0.003  -0.090965  -0.080427  0.003917  4.024984  0.002
C  C85  1  0.11478316  0.50369667  0.61012119  1  -0.159687  -0.022895  3.72013  -0.022  -0.181213  -0.007468  3.97483  -0.008  -0.18794  -0.006354  3.994636  -0.007  -0.093766  -0.176136  -0.007991  3.961842  -0.008
C  C86  1  0.88521019  0.49630473  0.38987511  1  -0.159746  -0.02289  3.720076  -0.022  -0.181262  -0.007472  3.97475  -0.008  -0.187994  -0.006352  3.994555  -0.007  -0.093794  -0.17619  -0.00799  3.961772  -0.008
C  C87  1  0.06051838  0.60874420  0.52621688  1  0.24372  0.016747  3.781662  0.013  0.239642  0.003704  4.02699  0.003  0.2525  0.006023  4.048498  0.004  0.104429  0.231287  0.000869  4.012214  0.001
C  C88  1  0.93947604  0.39125719  0.47378076  1  0.24371  0.016748  3.78172  0.013  0.239652  0.003705  4.027064  0.003  0.252521  0.006019  4.048545  0.004  0.104451  0.2313  0.00087  4.01228  0.001
C  C89  1  0.42437743  0.66991237  0.09079980  1  -0.191958  -0.000924  3.831878  -0.001  -0.166471  -0.000638  4.092753  0.0  -0.179121  -0.000459  4.115897  0.0  -0.04639  -0.15811  -0.000961  4.076791  -0.001
C  C90  1  0.57562596  0.33008525  0.90920120  1  -0.192164  -0.000924  3.832142  -0.001  -0.166477  -0.000641  4.092797  0.0  -0.179127  -0.000457  4.115937  0.0  -0.046432  -0.158117  -0.00096  4.076829  -0.001
C  C91  1  0.29693393  0.72261187  0.03718936  1  -0.050481  -0.000268  3.781103  0.0  -0.090502  -0.000311  4.038589  0.0  -0.082854  -0.000171  4.055282  0.0  -0.087219  -0.094977  -0.000584  4.027143  0.0
C  C92  1  0.70307163  0.27738574  0.96280896  1  -0.050481  -0.000266  3.781141  0.0  -0.090601  -0.000311  4.038556  0.0  -0.082943  -0.000172  4.055246  0.0  -0.087252  -0.095072  -0.000583  4.027109  0.0
C  C93  1  0.21224950  0.65489814  0.02993664  1  -0.214624  -0.000128  3.645375  0.0  -0.192164  -0.00014  3.888157  0.0  -0.208113  -9.8e-05  3.910399  0.0  -0.038882  -0.182254  -9.9e-05  3.873457  0.0
C  C94  1  0.78775854  0.34510127  0.97006223  1  -0.214644  -0.000126  3.645252  0.0  -0.192071  -0.000141  3.887916  0.0  -0.208021  -9.7e-05  3.910153  0.0  -0.038815  -0.18218  -9.8e-05  3.873242  0.0
C  C95  1  0.26500162  0.52416945  0.07789197  1  0.395683  0.00025  3.816195  0.0  0.374722  8.9e-05  4.074153  0.0  0.395261  9.5e-05  4.088036  0.0  0.092112  0.361103  2.5e-05  4.064297  0.0
C  C96  1  0.73500101  0.47582999  0.92211167  1  0.39558  0.000248  3.816091  0.0  0.37462  9.1e-05  4.073993  0.0  0.39516  9.3e-05  4.087877  0.0  0.092059  0.361009  2.5e-05  4.064132  0.0
C  C97  1  0.39690098  0.47361311  0.13030908  1  -0.20528  -0.000368  3.722994  0.0  -0.222643  -7.5e-05  3.981851  0.0  -0.234106  -5.2e-05  4.003458  0.0  -0.115141  -0.215183  -0.000239  3.967289  0.0
C  C98  1  0.60309551  0.52638820  0.86969816  1  -0.205219  -0.000369  3.72278  0.0  -0.222564  -7.6e-05  3.981674  0.0  -0.234028  -5.1e-05  4.003277  0.0  -0.115191  -0.21509  -0.000241  3.967146  0.0
C  C99  1  0.47591993  0.54314921  0.13759270  1  -0.030957  0.000279  3.800602  0.0  -0.057642  2.1e-05  4.051548  0.0  -0.051395  5.5e-05  4.069469  0.0  -0.087799  -0.061674  -1e-06  4.038769  0.0
C  C100  1  0.52407982  0.45684933  0.86241402  1  -0.030863  0.000281  3.800549  0.0  -0.057615  2.4e-05  4.051464  0.0  -0.05137  5.2e-05  4.069387  0.0  -0.087769  -0.061644  1e-06  4.038679  0.0
C  C101  1  0.07545644  0.73201078  0.97115840  1  0.69371  2.3e-05  3.836922  0.0  0.639419  2e-06  4.1326  0.0  0.675694  -2e-06  4.124687  0.0  0.216138  0.614906  -2e-06  4.137139  0.0
C  C102  1  0.92455057  0.26798315  0.02884306  1  0.693841  1.8e-05  3.836829  0.0  0.639512  3e-06  4.132516  0.0  0.675788  -3e-06  4.124597  0.0  0.216207  0.615002  -2e-06  4.137052  0.0
S  S103  1  0.51168763  0.76725747  0.10305672  1  1.329495  -6.4e-05  5.624844  0.0  1.227463  -0.000143  6.145452  0.0  1.276324  -6.1e-05  6.122479  0.0  0.515488  1.194025  -0.000167  6.159545  0.0
S  S104  1  0.48831649  0.23274108  0.89694082  1  1.329713  -6.2e-05  5.624801  0.0  1.227631  -0.000135  6.145367  0.0  1.276492  -6e-05  6.122393  0.0  0.515543  1.194193  -0.00017  6.159454  0.0
N  N105  1  0.91495891  0.69233641  0.54010775  1  -0.485457  -0.091927  3.324833  -0.112  -0.448163  -0.061974  3.635521  -0.081  -0.488674  -0.052098  3.654204  -0.073  -0.38758  -0.423499  -0.066605  3.623091  -0.083
N  N106  1  0.08503725  0.30766860  0.45989003  1  -0.48543  -0.091918  3.324744  -0.112  -0.448179  -0.061973  3.635525  -0.081  -0.488691  -0.052098  3.654215  -0.073  -0.387606  -0.42351  -0.066607  3.623087  -0.083
N  N107  1  0.62202034  0.81189317  0.55448891  1  -0.479224  -0.096893  3.288689  -0.119  -0.444769  -0.065779  3.597702  -0.087  -0.485462  -0.055173  3.617594  -0.078  -0.378995  -0.420326  -0.071453  3.585646  -0.09
N  N108  1  0.37797866  0.18811271  0.44551116  1  -0.47928  -0.096875  3.288646  -0.119  -0.44473  -0.065773  3.597568  -0.087  -0.485421  -0.055171  3.617452  -0.078  -0.378982  -0.420279  -0.07145  3.585497  -0.09
N  N109  1  0.63516680  0.89737802  0.32040453  1  -0.307656  -0.097511  3.195659  -0.117  -0.251695  -0.061776  3.50744  -0.081  -0.28427  -0.053597  3.523594  -0.075  -0.366212  -0.233179  -0.065831  3.498615  -0.082
N  N110  1  0.36483411  0.10262056  0.67959203  1  -0.307577  -0.097512  3.195602  -0.117  -0.251642  -0.061775  3.507368  -0.081  -0.284224  -0.053597  3.523533  -0.075  -0.366201  -0.233119  -0.06583  3.49853  -0.082
N  N111  1  0.97260512  0.79960159  0.31574135  1  -0.299985  -0.095886  3.224242  -0.116  -0.243513  -0.064072  3.529416  -0.084  -0.274128  -0.055339  3.544813  -0.078  -0.360304  -0.226386  -0.068336  3.521066  -0.086
N  N112  1  0.02739828  0.20039879  0.68425423  1  -0.300076  -0.095883  3.224167  -0.116  -0.243616  -0.064072  3.529347  -0.084  -0.274222  -0.055334  3.544729  -0.078  -0.360344  -0.226483  -0.068333  3.520982  -0.086
O  O113  1  0.92222072  0.70086265  0.71392001  1  -0.578692  -0.005655  2.091349  -0.008  -0.507343  -0.00587  2.325723  -0.008  -0.535961  -0.003171  2.318711  -0.005  -0.289446  -0.486815  -0.008679  2.328395  -0.012
O  O114  1  0.07777294  0.29914056  0.28607952  1  -0.578816  -0.005656  2.091297  -0.008  -0.507403  -0.00587  2.325657  -0.008  -0.536026  -0.003172  2.318648  -0.005  -0.289466  -0.486885  -0.00868  2.328349  -0.012
O  O115  1  0.61369203  0.81524148  0.73312165  1  -0.561692  -0.005481  2.080958  -0.008  -0.494616  -0.003871  2.321066  -0.006  -0.522702  -0.001236  2.314353  -0.003  -0.284939  -0.473831  -0.006271  2.324417  -0.009
O  O116  1  0.38630056  0.18476175  0.26687730  1  -0.561724  -0.005478  2.081067  -0.008  -0.494635  -0.00387  2.321203  -0.006  -0.522721  -0.001236  2.314486  -0.003  -0.284984  -0.473852  -0.00627  2.324559  -0.009
O  O117  1  0.55768097  0.83460062  0.99009718  1  -0.700714  -0.000243  1.997357  0.0  -0.634929  -0.000283  2.274221  0.0  -0.659834  -0.000193  2.255345  0.0  -0.35573  -0.61712  -0.000455  2.286886  0.0
O  O118  1  0.44232354  0.16539702  0.00989827  1  -0.700752  -0.000243  1.997382  0.0  -0.634958  -0.000286  2.274263  0.0  -0.659865  -0.000192  2.255387  0.0  -0.355707  -0.617154  -0.000455  2.28693  0.0
O  O119  1  0.39382047  0.85332027  0.16187901  1  -0.680906  -0.000898  1.980168  -0.001  -0.627487  -0.000875  2.232034  -0.001  -0.649906  -0.00055  2.216719  -0.001  -0.340352  -0.611447  -0.001068  2.242244  -0.001
O  O120  1  0.60617866  0.14667743  0.83811661  1  -0.680973  -0.0009  1.980193  -0.001  -0.627553  -0.000877  2.232083  -0.001  -0.649968  -0.000551  2.216762  -0.001  -0.34036  -0.611516  -0.001067  2.242287  -0.001
O  O121  1  0.64148344  0.69020733  0.16255576  1  -0.672102  5.1e-05  1.992333  0.0  -0.612931  2.8e-05  2.236913  0.0  -0.634218  2.3e-05  2.222611  0.0  -0.333744  -0.597451  -5e-05  2.245719  0.0
O  O122  1  0.35851813  0.30979488  0.83744266  1  -0.672118  5.1e-05  1.992244  0.0  -0.612957  2.8e-05  2.236837  0.0  -0.634242  2.3e-05  2.222533  0.0  -0.333759  -0.597482  -4.9e-05  2.245639  0.0
O  O123  1  0.07217152  0.83726634  0.91140698  1  -0.612358  -8.3e-05  1.973669  0.0  -0.553429  -5.7e-05  2.194957  0.0  -0.578523  -5.3e-05  2.185987  0.0  -0.307924  -0.535641  -9e-05  2.200517  0.0
O  O124  1  0.92783263  0.16272671  0.08859526  1  -0.612442  -8.1e-05  1.9736  0.0  -0.553556  -5.7e-05  2.194911  0.0  -0.578649  -5.3e-05  2.185935  0.0  -0.308014  -0.535769  -9.1e-05  2.200472  0.0
O  O125  1  0.96136834  0.69414435  0.98627920  1  -0.715664  -0.000136  2.094524  0.0  -0.635673  -9.4e-05  2.3694  0.0  -0.667137  -4.3e-05  2.352946  0.0  -0.349266  -0.613727  -0.000146  2.380106  0.0
O  O126  1  0.03863464  0.30585417  0.01372619  1  -0.715654  -0.000136  2.094607  0.0  -0.635643  -9.5e-05  2.369449  0.0  -0.667109  -4.4e-05  2.353002  0.0  -0.34927  -0.613697  -0.000145  2.380147  0.0
O  O127  1  0.20281594  0.44659349  0.07465357  1  -0.70149  0.000191  2.179392  0.0  -0.615031  0.000202  2.461065  0.0  -0.648611  0.000165  2.450927  0.0  -0.36649  -0.591542  6.1e-05  2.466497  0.0
O  O128  1  0.79718705  0.55340503  0.92535105  1  -0.701418  0.000191  2.179369  0.0  -0.614982  0.000201  2.461037  0.0  -0.648565  0.000165  2.450902  0.0  -0.36647  -0.591499  6.2e-05  2.46647  0.0
O  O129  1  0.82651957  0.93603245  0.81615551  1  -0.856663  -0.000196  1.860216  0.0  -0.791881  -0.000302  2.061317  0.0  -0.816713  -0.000217  2.025527  0.0  -0.589061  -0.774265  -0.000342  2.0866  0.0
O  O130  1  0.17348169  0.06396246  0.18384668  1  -0.85654  -0.000196  1.860352  0.0  -0.791796  -0.000301  2.061367  0.0  -0.816624  -0.000218  2.025574  0.0  -0.589028  -0.774189  -0.000343  2.086627  0.0
O  O131  1  0.16074406  0.54188322  0.82885963  1  -0.84003  -0.000135  1.8727  0.0  -0.787471  -0.00015  2.058955  0.0  -0.808488  -8.6e-05  2.0272  0.0  -0.589371  -0.772727  -0.000218  2.080179  0.0
O  O132  1  0.83924636  0.45811726  0.17114587  1  -0.839994  -0.000138  1.872734  0.0  -0.7875  -0.00015  2.058909  0.0  -0.808513  -8.6e-05  2.027158  0.0  -0.58943  -0.772756  -0.000218  2.080135  0.0
