# generated using pymatgen
data_ZnH16C17(NO2)2
_symmetry_space_group_name_H-M   'P 1'
_cell_length_a   7.79145207
_cell_length_b   10.29102072
_cell_length_c   10.42872541
_cell_angle_alpha   92.51877166
_cell_angle_beta   107.40918903
_cell_angle_gamma   106.59821074
_symmetry_Int_Tables_number   1
_chemical_formula_structural   ZnH16C17(NO2)2
_chemical_formula_sum   'Zn2 H32 C34 N4 O8'
_cell_volume   756.94861842
_cell_formula_units_Z   2
loop_
 _symmetry_equiv_pos_site_id
 _symmetry_equiv_pos_as_xyz
  1  'x, y, z'
loop_
 _atom_site_type_symbol
 _atom_site_label
 _atom_site_symmetry_multiplicity
 _atom_site_fract_x
 _atom_site_fract_y
 _atom_site_fract_z
 _atom_site_occupancy
 _atom_site_hle17_bader_spin_density
 _atom_site_hle17_ddec_charge
 _atom_site_hle17_ddec_spin_density
 _atom_site_hle17_ddec_sum_bond_order
 _atom_site_hle17_magmom
 _atom_site_hse06_10hf_bader_spin_density
 _atom_site_hse06_10hf_ddec_charge
 _atom_site_hse06_10hf_ddec_spin_density
 _atom_site_hse06_10hf_ddec_sum_bond_order
 _atom_site_hse06_10hf_magmom
 _atom_site_hse06_bader_spin_density
 _atom_site_hse06_ddec_charge
 _atom_site_hse06_ddec_spin_density
 _atom_site_hse06_ddec_sum_bond_order
 _atom_site_hse06_magmom
 _atom_site_pbe_bader_spin_density
 _atom_site_pbe_cm5_charge
 _atom_site_pbe_ddec_charge
 _atom_site_pbe_ddec_spin_density
 _atom_site_pbe_ddec_sum_bond_order
 _atom_site_pbe_magmom
Zn  Zn0  1  0.89567277  0.85662614  0.47396808  1  0  1.024354  0  1.885094  0  0  0.853212  0  2.355264  0  0  0.906399  0  2.289133  0  0  0.66601  0.816091  0  2.400594  0
Zn  Zn1  1  0.10432650  0.14337651  0.52603145  1  0  1.024334  0  1.885139  0  0  0.853154  0  2.355322  0  0  0.90634  0  2.289196  0  0  0.665981  0.816035  0  2.400649  0
H  H2  1  0.88936712  0.97533396  0.91182696  1  0  0.087514  0  0.971377  0  0  0.100893  0  1.030428  0  0  0.103237  0  1.029879  0  0  0.097928  0.099001  0  1.031302  0
H  H3  1  0.11063171  0.02466459  0.08817324  1  0  0.087499  0  0.971384  0  0  0.100891  0  1.030425  0  0  0.103236  0  1.029875  0  0  0.097933  0.099  0  1.031298  0
H  H4  1  0.81211349  0.83031831  0.08410545  1  0  0.09367  0  0.944242  0  0  0.107023  0  1.0006  0  0  0.10962  0  0.999687  0  0  0.101403  0.104972  0  1.001597  0
H  H5  1  0.18788444  0.16968126  0.91589460  1  0  0.093667  0  0.944207  0  0  0.107028  0  1.000556  0  0  0.109623  0  0.999647  0  0  0.101412  0.104987  0  1.001538  0
H  H6  1  0.47416181  0.73092126  0.07297222  1  0  0.094963  0  0.945454  0  0  0.102661  0  1.010666  0  0  0.106584  0  1.008069  0  0  0.099018  0.099772  0  1.012728  0
H  H7  1  0.52583612  0.26907831  0.92702687  1  0  0.094932  0  0.945464  0  0  0.102623  0  1.010689  0  0  0.106526  0  1.008114  0  0  0.098983  0.099732  0  1.01275  0
H  H8  1  0.22134379  0.77872273  0.88898377  1  0  0.085005  0  0.968819  0  0  0.091983  0  1.039734  0  0  0.0956  0  1.036808  0  0  0.096871  0.089338  0  1.041988  0
H  H9  1  0.77865459  0.22127787  0.11101546  1  0  0.085002  0  0.968835  0  0  0.092  0  1.039731  0  0  0.095618  0  1.036803  0  0  0.096868  0.089355  0  1.041978  0
H  H10  1  0.72971730  0.17236432  0.77669953  1  0  0.119868  0  0.923278  0  0  0.132464  0  0.987052  0  0  0.13524  0  0.985238  0  0  0.104085  0.130449  0  0.98854  0
H  H11  1  0.27028108  0.82763628  0.22330066  1  0  0.1198  0  0.923301  0  0  0.132413  0  0.987074  0  0  0.135191  0  0.985258  0  0  0.104053  0.130398  0  0.98856  0
H  H12  1  0.53907773  0.07328335  0.63628493  1  0  0.126339  0  0.9467  0  0  0.139822  0  1.004812  0  0  0.142744  0  1.003201  0  0  0.106979  0.137776  0  1.005979  0
H  H13  1  0.46092154  0.92671930  0.36371651  1  0  0.126363  0  0.946657  0  0  0.139856  0  1.004765  0  0  0.14278  0  1.003152  0  0  0.107009  0.137808  0  1.005933  0
H  H14  1  0.48308101  0.72483149  0.36508687  1  0  0.089706  0  0.950117  0  0  0.097704  0  1.017867  0  0  0.100078  0  1.015292  0  0  0.122048  0.0959  0  1.019989  0
H  H15  1  0.51691827  0.27516808  0.63491539  1  0  0.08965  0  0.95011  0  0  0.097636  0  1.017891  0  0  0.100009  0  1.015318  0  0  0.122024  0.095831  0  1.020014  0
H  H16  1  0.37916510  0.28914284  0.29214657  1  0  0.110996  0  0.954272  0  0  0.118697  0  1.020345  0  0  0.121384  0  1.018921  0  0  0.108105  0.116616  0  1.021557  0
H  H17  1  0.62083731  0.71085776  0.70785356  1  0  0.110976  0  0.954291  0  0  0.118679  0  1.020359  0  0  0.121364  0  1.01894  0  0  0.108099  0.116598  0  1.021579  0
H  H18  1  0.73178919  0.33725821  0.36229798  1  0  0.11288  0  0.974356  0  0  0.119219  0  1.038921  0  0  0.122584  0  1.038054  0  0  0.105965  0.116677  0  1.039968  0
H  H19  1  0.26821323  0.66274238  0.63770406  1  0  0.112869  0  0.974379  0  0  0.119207  0  1.038947  0  0  0.122572  0  1.038079  0  0  0.105959  0.116663  0  1.039993  0
H  H20  1  0.94228774  0.58135288  0.43478408  1  0  0.075632  0  0.94585  0  0  0.086043  0  1.010694  0  0  0.088275  0  1.008697  0  0  0.117871  0.084344  0  1.012207  0
H  H21  1  0.05771333  0.41864772  0.56521862  1  0  0.075621  0  0.945868  0  0  0.086033  0  1.010702  0  0  0.088267  0  1.008702  0  0  0.117867  0.084337  0  1.012214  0
H  H22  1  0.11101209  0.38415510  0.28185674  1  0  0.068992  0  0.923784  0  0  0.0833  0  0.990828  0  0  0.08483  0  0.989269  0  0  0.097164  0.082123  0  0.992133  0
H  H23  1  0.88898809  0.61584345  0.71814185  1  0  0.068958  0  0.92383  0  0  0.083278  0  0.99087  0  0  0.084809  0  0.989309  0  0  0.097142  0.0821  0  0.992176  0
H  H24  1  0.16984463  0.56127173  0.34135698  1  0  0.065868  0  0.943589  0  0  0.081704  0  1.010352  0  0  0.081725  0  1.010697  0  0  0.104563  0.08172  0  1.009991  0
H  H25  1  0.83015555  0.43872681  0.65864256  1  0  0.06592  0  0.943628  0  0  0.081771  0  1.010371  0  0  0.081794  0  1.010715  0  0  0.104592  0.08179  0  1.010008  0
H  H26  1  0.02586570  0.31662459  0.03988444  1  0  0.038877  0  0.925335  0  0  0.05622  0  0.992992  0  0  0.056691  0  0.992227  0  0  0.089064  0.055783  0  0.993829  0
H  H27  1  0.97413492  0.68337498  0.96011429  1  0  0.038901  0  0.925313  0  0  0.05626  0  0.992952  0  0  0.056734  0  0.992185  0  0  0.089079  0.055822  0  0.993793  0
H  H28  1  0.26367775  0.40783417  0.05441899  1  0  0.059852  0  0.942656  0  0  0.079545  0  1.001121  0  0  0.0791  0  1.002871  0  0  0.1006  0.079888  0  0.999911  0
H  H29  1  0.73632333  0.59216335  0.94558167  1  0  0.059857  0  0.942694  0  0  0.079554  0  1.00115  0  0  0.079108  0  1.002903  0  0  0.100601  0.079897  0  0.999939  0
H  H30  1  0.95940520  0.63044999  0.18266284  1  0  0.068107  0  0.940845  0  0  0.084226  0  1.007382  0  0  0.084828  0  1.00693  0  0  0.101109  0.083861  0  1.007561  0
H  H31  1  0.04059721  0.36955060  0.81733729  1  0  0.068106  0  0.940856  0  0  0.084216  0  1.00739  0  0  0.08482  0  1.006934  0  0  0.101113  0.083854  0  1.007562  0
H  H32  1  0.83650436  0.45365606  0.11874032  1  0  0.044124  0  0.944843  0  0  0.061368  0  1.013645  0  0  0.061461  0  1.014315  0  0  0.089861  0.061564  0  1.012922  0
H  H33  1  0.16349626  0.54634352  0.88125937  1  0  0.044122  0  0.944864  0  0  0.06136  0  1.013659  0  0  0.061452  0  1.014331  0  0  0.089871  0.061558  0  1.012935  0
C  C34  1  0.41256356  0.90926906  0.80270771  1  0  -0.114234  0  3.71257  0  0  -0.093656  0  3.937904  0  0  -0.102305  0  3.96078  0  0  -0.015874  -0.088246  0  3.922879  0
C  C35  1  0.58743616  0.09073154  0.19729182  1  0  -0.114087  0  3.712355  0  0  -0.093592  0  3.937793  0  0  -0.102236  0  3.960665  0  0  -0.015859  -0.088184  0  3.922776  0
C  C36  1  0.60257471  0.96806629  0.80966085  1  0  0.124415  0  3.706154  0  0  0.137204  0  3.937448  0  0  0.139832  0  3.961409  0  0  -0.000934  0.135641  0  3.920922  0
C  C37  1  0.39742636  0.03193430  0.19033994  1  0  0.124369  0  3.70618  0  0  0.137186  0  3.937503  0  0  0.139815  0  3.961461  0  0  -0.000964  0.135613  0  3.920988  0
C  C38  1  0.74276679  0.93400705  0.90929955  1  0  -0.138527  0  3.748324  0  0  -0.158782  0  4.000853  0  0  -0.163265  0  4.022507  0  0  -0.097155  -0.155673  0  3.986098  0
C  C39  1  0.25723383  0.06599252  0.09070013  1  0  -0.138529  0  3.748383  0  0  -0.158793  0  4.000911  0  0  -0.163276  0  4.022565  0  0  -0.09716  -0.155681  0  3.986158  0
C  C40  1  0.69947255  0.85039417  0.00408117  1  0  -0.055596  0  3.772617  0  0  -0.074576  0  4.031646  0  0  -0.07411  0  4.051507  0  0  -0.09059  -0.074529  0  4.018059  0
C  C41  1  0.30052673  0.14960541  0.99591821  1  0  -0.055614  0  3.772688  0  0  -0.074604  0  4.031728  0  0  -0.07414  0  4.051588  0  0  -0.090611  -0.074567  0  4.018133  0
C  C42  1  0.51083150  0.79443234  0.99811022  1  0  -0.069276  0  3.759172  0  0  -0.08573  0  4.018499  0  0  -0.087959  0  4.037768  0  0  -0.093374  -0.084275  0  4.005535  0
C  C43  1  0.48916643  0.20556723  0.00188887  1  0  -0.069204  0  3.759114  0  0  -0.085641  0  4.018434  0  0  -0.087855  0  4.037709  0  0  -0.093343  -0.084189  0  4.005471  0
C  C44  1  0.36934981  0.82224039  0.89625207  1  0  -0.074483  0  3.766894  0  0  -0.098858  0  4.021151  0  0  -0.098841  0  4.041898  0  0  -0.087783  -0.098892  0  4.007429  0
C  C45  1  0.63064992  0.17776021  0.10374746  1  0  -0.074519  0  3.766766  0  0  -0.098895  0  4.021048  0  0  -0.098878  0  4.041785  0  0  -0.08776  -0.098923  0  4.007323  0
C  C46  1  0.66319084  0.06871813  0.71873356  1  0  -0.31732  0  3.686704  0  0  -0.359959  0  3.930739  0  0  -0.366069  0  3.936669  0  0  -0.162931  -0.355756  0  3.92654  0
C  C47  1  0.33680978  0.93128452  0.28126722  1  0  -0.317275  0  3.686663  0  0  -0.359964  0  3.930728  0  0  -0.366073  0  3.936656  0  0  -0.162902  -0.355755  0  3.926507  0
C  C48  1  0.79678853  0.03871762  0.64952758  1  0  0.719091  0  3.825629  0  0  0.672837  0  4.12097  0  0  0.7072  0  4.114011  0  0  0.214662  0.649523  0  4.124782  0
C  C49  1  0.20320850  0.96128298  0.35047135  1  0  0.719049  0  3.82555  0  0  0.672828  0  4.120856  0  0  0.70719  0  4.1139  0  0  0.214623  0.649528  0  4.124651  0
C  C50  1  0.25070792  0.93468077  0.69731188  1  0  0.673917  0  3.863518  0  0  0.623425  0  4.149921  0  0  0.659036  0  4.142073  0  0  0.217686  0.599244  0  4.154644  0
C  C51  1  0.74928957  0.06531778  0.30268803  1  0  0.673788  0  3.863549  0  0  0.623332  0  4.149935  0  0  0.658938  0  4.142088  0  0  0.217611  0.599143  0  4.154675  0
C  C52  1  0.53162625  0.63585003  0.36209759  1  0  0.093975  0  3.651882  0  0  0.0561  0  3.898859  0  0  0.06321  0  3.916329  0  0  0.055144  0.051329  0  3.887687  0
C  C53  1  0.46837482  0.36415056  0.63790416  1  0  0.093997  0  3.651798  0  0  0.056097  0  3.898761  0  0  0.063207  0  3.916233  0  0  0.055121  0.051329  0  3.887584  0
C  C54  1  0.40225923  0.50428019  0.31872368  1  0  0.028986  0  3.741209  0  0  0.051157  0  3.981267  0  0  0.046082  0  4.005658  0  0  -0.000116  0.054013  0  3.965043  0
C  C55  1  0.59774139  0.49571938  0.68127696  1  0  0.028995  0  3.741142  0  0  0.051202  0  3.981165  0  0  0.046127  0  4.005554  0  0  -9.2e-05  0.054061  0  3.964937  0
C  C56  1  0.47430199  0.39433553  0.32062949  1  0  -0.040857  0  3.657847  0  0  -0.067253  0  3.902883  0  0  -0.064223  0  3.922061  0  0  -0.059407  -0.06902  0  3.890167  0
C  C57  1  0.52569908  0.60566507  0.67937130  1  0  -0.040816  0  3.657835  0  0  -0.067221  0  3.902856  0  0  -0.064188  0  3.922035  0  0  -0.059392  -0.068991  0  3.890141  0
C  C58  1  0.67053738  0.42024113  0.36159302  1  0  -0.121743  0  3.732947  0  0  -0.131909  0  3.983938  0  0  -0.139654  0  4.006529  0  0  -0.083326  -0.127145  0  3.968788  0
C  C59  1  0.32946369  0.57975946  0.63840777  1  0  -0.121752  0  3.733025  0  0  -0.131922  0  3.984028  0  0  -0.139668  0  4.006618  0  0  -0.083308  -0.127152  0  3.968875  0
C  C60  1  0.78843094  0.55470594  0.40190561  1  0  0.120532  0  3.702537  0  0  0.087808  0  3.953322  0  0  0.094341  0  3.972894  0  0  0.047693  0.083979  0  3.93954  0
C  C61  1  0.21156879  0.44529466  0.59809584  1  0  0.120636  0  3.702756  0  0  0.087903  0  3.953504  0  0  0.094438  0  3.973078  0  0  0.047753  0.084066  0  3.939727  0
C  C62  1  0.19395275  0.48887116  0.27315878  1  0  -0.053009  0  3.728157  0  0  -0.115507  0  3.986979  0  0  -0.11179  0  4.000022  0  0  -0.065597  -0.117819  0  3.97775  0
C  C63  1  0.80604877  0.51112738  0.72684106  1  0  -0.053048  0  3.728241  0  0  -0.115604  0  3.987109  0  0  -0.111884  0  4.000149  0  0  -0.065629  -0.117914  0  3.977881  0
C  C64  1  0.12168173  0.41812706  0.03400886  1  0  -0.012871  0  3.697897  0  0  -0.069184  0  3.961584  0  0  -0.065609  0  3.973816  0  0  -0.069729  -0.071623  0  3.953139  0
C  C65  1  0.87832023  0.58187251  0.96599016  1  0  -0.012915  0  3.697932  0  0  -0.069244  0  3.961676  0  0  -0.065671  0  3.973913  0  0  -0.069755  -0.071684  0  3.953237  0
C  C66  1  0.94489158  0.54564850  0.10803920  1  0  -0.026457  0  3.693959  0  0  -0.085595  0  3.959253  0  0  -0.082108  0  3.971112  0  0  -0.073686  -0.087968  0  3.950655  0
C  C67  1  0.05511038  0.45435107  0.89196079  1  0  -0.026445  0  3.694021  0  0  -0.085545  0  3.959248  0  0  -0.082062  0  3.971118  0  0  -0.073687  -0.087939  0  3.950684  0
N  N68  1  0.71998191  0.66086794  0.40380678  1  0  -0.310537  0  3.301672  0  0  -0.225574  0  3.571127  0  0  -0.24545  0  3.586591  0  0  -0.332819  -0.212589  0  3.560928  0
N  N69  1  0.28001647  0.33913266  0.59619437  1  0  -0.310603  0  3.301836  0  0  -0.225594  0  3.571235  0  0  -0.245476  0  3.586708  0  0  -0.332862  -0.212609  0  3.561037  0
N  N70  1  0.12953082  0.52369558  0.13598934  1  0  -0.234878  0  3.21579  0  0  -0.159296  0  3.483358  0  0  -0.17475  0  3.50296  0  0  -0.343847  -0.14794  0  3.469336  0
N  N71  1  0.87047115  0.47630399  0.86401064  1  0  -0.234864  0  3.21578  0  0  -0.159272  0  3.483327  0  0  -0.174732  0  3.502942  0  0  -0.343859  -0.147917  0  3.469307  0
O  O72  1  0.76471594  0.91482963  0.60223984  1  0  -0.639576  0  2.048246  0  0  -0.574688  0  2.310475  0  0  -0.60364  0  2.298213  0  0  -0.318484  -0.554449  0  2.318161  0
O  O73  1  0.23528466  0.08517609  0.39775915  1  0  -0.639617  0  2.04813  0  0  -0.574709  0  2.310297  0  0  -0.603662  0  2.298037  0  0  -0.318504  -0.55448  0  2.317985  0
O  O74  1  0.92576314  0.14206833  0.63840049  1  0  -0.645763  0  2.042363  0  0  -0.583308  0  2.30812  0  0  -0.611575  0  2.294291  0  0  -0.323643  -0.563423  0  2.316798  0
O  O75  1  0.07423433  0.85793637  0.36159776  1  0  -0.645687  0  2.042369  0  0  -0.583248  0  2.308107  0  0  -0.611518  0  2.294291  0  0  -0.323603  -0.563372  0  2.316784  0
O  O76  1  0.26799184  0.05697569  0.67319311  1  0  -0.637571  0  2.10132  0  0  -0.570043  0  2.36406  0  0  -0.599756  0  2.352354  0  0  -0.307727  -0.549417  0  2.371484  0
O  O77  1  0.73200922  0.94302798  0.32680590  1  0  -0.637518  0  2.10142  0  0  -0.570024  0  2.364179  0  0  -0.59976  0  2.35253  0  0  -0.307696  -0.549397  0  2.371612  0
O  O78  1  0.10594006  0.83038483  0.63893847  1  0  -0.634967  0  2.041727  0  0  -0.570697  0  2.302652  0  0  -0.598961  0  2.288696  0  0  -0.316772  -0.550828  0  2.311336  0
O  O79  1  0.89406056  0.16961782  0.36106231  1  0  -0.634913  0  2.041644  0  0  -0.570632  0  2.302544  0  0  -0.598895  0  2.288593  0  0  -0.316741  -0.550757  0  2.31123  0
