# generated using pymatgen
data_TlH4AuC17NCl10
_symmetry_space_group_name_H-M   'P 1'
_cell_length_a   8.90417878
_cell_length_b   12.10593630
_cell_length_c   12.31482784
_cell_angle_alpha   69.13467466
_cell_angle_beta   80.01220577
_cell_angle_gamma   70.01823848
_symmetry_Int_Tables_number   1
_chemical_formula_structural   TlH4AuC17NCl10
_chemical_formula_sum   'Tl2 H8 Au2 C34 N2 Cl20'
_cell_volume   1163.70851421
_cell_formula_units_Z   2
loop_
 _symmetry_equiv_pos_site_id
 _symmetry_equiv_pos_as_xyz
  1  'x, y, z'
loop_
 _atom_site_type_symbol
 _atom_site_label
 _atom_site_symmetry_multiplicity
 _atom_site_fract_x
 _atom_site_fract_y
 _atom_site_fract_z
 _atom_site_occupancy
 _atom_site_pbe_bader_spin_density
 _atom_site_pbe_cm5_charge
 _atom_site_pbe_ddec_charge
 _atom_site_pbe_ddec_spin_density
 _atom_site_pbe_ddec_sum_bond_order
 _atom_site_pbe_magmom
Tl  Tl0  1  0.94222609  0.73051125  0.57196859  1  0  0.249639  0.481554  0  1.522258  0
Tl  Tl1  1  0.05777599  0.26948656  0.42803321  1  0  0.249636  0.481536  0  1.522292  0
H  H2  1  0.94946496  0.49614445  0.87270371  1  0  0.104666  0.077011  0  0.996669  0
H  H3  1  0.05053485  0.50385338  0.12730163  1  0  0.104701  0.077045  0  0.996824  0
H  H4  1  0.77886773  0.39934202  0.03049027  1  0  0.09842  0.105638  0  1.038059  0
H  H5  1  0.22112254  0.60066608  0.96951756  1  0  0.098442  0.1057  0  1.038073  0
H  H6  1  0.36829324  0.67552116  0.84624805  1  0  0.09623  0.105569  0  1.038926  0
H  H7  1  0.63170246  0.32449058  0.15374970  1  0  0.09625  0.105568  0  1.038996  0
H  H8  1  0.55621455  0.76081598  0.69799084  1  0  0.093968  0.063638  0  1.045777  0
H  H9  1  0.44379171  0.23918272  0.30200281  1  0  0.093977  0.063641  0  1.045789  0
Au  Au10  1  0.00000052  0.00000083  0.49999775  1  0  0.193936  -0.060093  0  3.014117  0
Au  Au11  1  0.00000008  0.49999570  0.50000296  1  0  0.217154  -0.067327  0  3.087352  0
C  C12  1  0.06684092  0.04061817  0.32438187  1  0  -0.18273  -0.25724  0  4.084859  0
C  C13  1  0.93316237  0.95938241  0.67561393  1  0  -0.182836  -0.257378  0  4.084854  0
C  C14  1  0.21902568  0.05144119  0.27860837  1  0  -0.012252  0.08769  0  4.052267  0
C  C15  1  0.78097613  0.94856033  0.72138973  1  0  -0.012244  0.087738  0  4.052256  0
C  C16  1  0.26239019  0.08726386  0.15867157  1  0  -0.008337  0.027189  0  4.046761  0
C  C17  1  0.73761391  0.91273763  0.84132625  1  0  -0.008288  0.027269  0  4.04675  0
C  C18  1  0.14667795  0.11881046  0.07923951  1  0  -0.009019  0.032022  0  4.057266  0
C  C19  1  0.85332616  0.88119103  0.92075912  1  0  -0.009066  0.031922  0  4.057449  0
C  C20  1  0.99379594  0.10638305  0.12122040  1  0  -0.010851  0.018113  0  4.049049  0
C  C21  1  0.00620506  0.89361756  0.87877569  1  0  -0.010931  0.017995  0  4.049135  0
C  C22  1  0.95843217  0.06533943  0.24197404  1  0  -0.01597  0.092367  0  4.058989  0
C  C23  1  0.04157227  0.93466114  0.75802163  1  0  -0.015858  0.09254  0  4.058864  0
C  C24  1  0.22606025  0.50665879  0.43002881  1  0  -0.175904  -0.242298  0  4.059388  0
C  C25  1  0.77394093  0.49333534  0.56997521  1  0  -0.175897  -0.242243  0  4.059268  0
C  C26  1  0.25212239  0.61008971  0.33962429  1  0  -0.009585  0.09456  0  4.051559  0
C  C27  1  0.74787719  0.38990259  0.66037814  1  0  -0.009637  0.094368  0  4.051597  0
C  C28  1  0.40467019  0.61415520  0.28745532  1  0  -0.006584  0.024004  0  4.036365  0
C  C29  1  0.59532571  0.38584083  0.71254790  1  0  -0.006483  0.02416  0  4.036375  0
C  C30  1  0.53781865  0.50872288  0.32426867  1  0  -0.003868  0.035368  0  4.049448  0
C  C31  1  0.46218033  0.49127404  0.67573222  1  0  -0.00385  0.035401  0  4.049538  0
C  C32  1  0.51691836  0.40305117  0.41356912  1  0  -0.008507  0.019296  0  4.045374  0
C  C33  1  0.48308246  0.59694389  0.58643299  1  0  -0.008523  0.019329  0  4.045408  0
C  C34  1  0.36311250  0.40518461  0.46591576  1  0  -0.013785  0.085932  0  4.053781  0
C  C35  1  0.63688879  0.59481229  0.53408809  1  0  -0.013805  0.085939  0  4.053712  0
C  C36  1  0.81928184  0.53428937  0.87011887  1  0  0.039729  0.098539  0  3.977117  0
C  C37  1  0.18071268  0.46571037  0.12988566  1  0  0.039704  0.09848  0  3.977221  0
C  C38  1  0.72211767  0.47964530  0.95910236  1  0  -0.087515  -0.171628  0  3.945981  0
C  C39  1  0.27787829  0.52036274  0.04089908  1  0  -0.087556  -0.171749  0  3.946053  0
C  C40  1  0.55453805  0.52769241  0.95422537  1  0  0.009032  0.108146  0  3.94551  0
C  C41  1  0.44545297  0.47231661  0.04577473  1  0  0.009008  0.108232  0  3.945514  0
C  C42  1  0.49587178  0.63105043  0.85753084  1  0  -0.088664  -0.166836  0  3.939618  0
C  C43  1  0.50412680  0.36895666  0.14246654  1  0  -0.088645  -0.166855  0  3.939464  0
C  C44  1  0.60200872  0.67995394  0.77285967  1  0  0.034444  0.094087  0  4.000074  0
C  C45  1  0.39799001  0.32004668  0.22713914  1  0  0.03443  0.0941  0  4.000187  0
N  N46  1  0.76172369  0.63334133  0.77767214  1  0  -0.316673  -0.251336  0  3.399209  0
N  N47  1  0.23827802  0.36665742  0.22232614  1  0  -0.316639  -0.251237  0  3.399402  0
Cl  Cl48  1  0.36152627  0.02103380  0.37447084  1  0  -0.003588  -0.0599  0  1.783102  0
Cl  Cl49  1  0.63847589  0.97896678  0.62552673  1  0  -0.003566  -0.059884  0  1.783145  0
Cl  Cl50  1  0.45242042  0.09337247  0.10867060  1  0  0.000389  -0.042281  0  1.798947  0
Cl  Cl51  1  0.54758748  0.90662805  0.89132951  1  0  0.000383  -0.042303  0  1.799082  0
Cl  Cl52  1  0.19077152  0.17350029  0.93246875  1  0  -0.004166  -0.050044  0  1.747443  0
Cl  Cl53  1  0.80923417  0.82650303  0.06752822  1  0  -0.004126  -0.049986  0  1.747556  0
Cl  Cl54  1  0.85367226  0.14305701  0.02390044  1  0  0.002885  -0.045394  0  1.822754  0
Cl  Cl55  1  0.14632781  0.85694914  0.97609707  1  0  0.00288  -0.045381  0  1.822746  0
Cl  Cl56  1  0.77252380  0.04287978  0.29027692  1  0  -0.018752  -0.076221  0  1.739938  0
Cl  Cl57  1  0.22747834  0.95712081  0.70971822  1  0  -0.018742  -0.076238  0  1.739939  0
Cl  Cl58  1  0.08991888  0.73908989  0.28841799  1  0  0.001312  -0.054515  0  1.789012  0
Cl  Cl59  1  0.91007611  0.26090246  0.71158420  1  0  0.001307  -0.054484  0  1.789038  0
Cl  Cl60  1  0.43073749  0.74355002  0.17924851  1  0  0.003998  -0.029007  0  1.768207  0
Cl  Cl61  1  0.56925541  0.25644790  0.82075200  1  0  0.003984  -0.029015  0  1.768331  0
Cl  Cl62  1  0.72405436  0.50885272  0.25728921  1  0  0.020517  -0.040346  0  1.736778  0
Cl  Cl63  1  0.27594358  0.49114698  0.74271246  1  0  0.020498  -0.040376  0  1.736768  0
Cl  Cl64  1  0.67537728  0.26973473  0.45342402  1  0  0.017555  -0.04188  0  1.904487  0
Cl  Cl65  1  0.32462352  0.73026033  0.54657403  1  0  0.017542  -0.041934  0  1.904452  0
Cl  Cl66  1  0.34337632  0.27250587  0.57678888  1  0  -0.001595  -0.058137  0  1.772452  0
Cl  Cl67  1  0.65662980  0.72748728  0.42321647  1  0  -0.001579  -0.058138  0  1.772494  0
