# generated using pymatgen
data_Al6H41C84Br9(Cl3O7)4
_symmetry_space_group_name_H-M   'P 1'
_cell_length_a   13.77704591
_cell_length_b   13.71006076
_cell_length_c   27.30301608
_cell_angle_alpha   89.39118257
_cell_angle_beta   89.24884602
_cell_angle_gamma   60.70563941
_symmetry_Int_Tables_number   1
_chemical_formula_structural   Al6H41C84Br9(Cl3O7)4
_chemical_formula_sum   'Al6 H41 C84 Br9 Cl12 O28'
_cell_volume   4497.16365903
_cell_formula_units_Z   1
loop_
 _symmetry_equiv_pos_site_id
 _symmetry_equiv_pos_as_xyz
  1  'x, y, z'
loop_
 _atom_site_type_symbol
 _atom_site_label
 _atom_site_symmetry_multiplicity
 _atom_site_fract_x
 _atom_site_fract_y
 _atom_site_fract_z
 _atom_site_occupancy
 _atom_site_pbe_bader_charge
 _atom_site_pbe_bader_spin_density
 _atom_site_pbe_cm5_charge
 _atom_site_pbe_ddec_charge
 _atom_site_pbe_ddec_spin_density
 _atom_site_pbe_ddec_sum_bond_order
 _atom_site_pbe_magmom
Al  Al0  1  0.57033423  0.59940474  0.49510176  1  2.498261  0  0.39467  1.693721  0  2.527618  0
Al  Al1  1  0.60992326  0.81035561  0.49711239  1  2.480647  0  0.501878  1.671317  0  2.483705  0
Al  Al2  1  0.81050030  0.57946015  0.49775370  1  2.481153  0  0.502716  1.667493  0  2.488236  0
Al  Al3  1  0.07377156  0.08799492  0.98517798  1  2.495047  0  0.396092  1.687563  0  2.555584  0
Al  Al4  1  0.08799072  0.84695835  0.98572426  1  2.481126  0  0.506431  1.658251  0  2.508776  0
Al  Al5  1  0.86189787  0.04985069  0.98419407  1  2.479025  0  0.503322  1.657984  0  2.517125  0
H  H6  1  0.81598250  0.67152038  0.18423956  1  0.072366  0  0.094333  0.111432  0  0.996431  0
H  H7  1  0.68305635  0.92373900  0.78687426  1  0.089617  0  0.101227  0.10928  0  1.001757  0
H  H8  1  0.95653839  0.33331177  0.76960673  1  0.067102  0  0.104983  0.10847  0  0.991604  0
H  H9  1  0.36088601  0.68963907  0.77248155  1  0.060898  0  0.102611  0.108301  0  0.9983  0
H  H10  1  0.71562128  0.95602231  0.87331889  1  0.106549  0  0.115048  0.1193  0  0.979076  0
H  H11  1  0.98714095  0.27726209  0.85807224  1  0.111253  0  0.119022  0.126796  0  0.974861  0
H  H12  1  0.30570400  0.70177223  0.86079774  1  0.094869  0  0.111448  0.114867  0  0.986578  0
H  H13  1  0.03681511  0.71931167  0.76447359  1  0.068744  0  0.106398  0.110736  0  0.986781  0
H  H14  1  0.74568587  0.18436138  0.75698054  1  0.073519  0  0.101218  0.108237  0  0.99407  0
H  H15  1  0.21860117  0.04814125  0.76717906  1  0.072621  0  0.10016  0.106033  0  1.00052  0
H  H16  1  0.06832093  0.74697431  0.85186828  1  0.098302  0  0.111958  0.114925  0  0.99931  0
H  H17  1  0.65746297  0.49776276  0.17324676  1  0.090295  0  0.094506  0.110294  0  0.997275  0
H  H18  1  0.77287297  0.13336484  0.84554771  1  0.080599  0  0.10662  0.110165  0  1.008514  0
H  H19  1  0.17085604  0.05832402  0.85610412  1  0.115369  0  0.117121  0.124829  0  0.99307  0
H  H20  1  0.92539308  0.88330060  0.68841188  1  0.078039  0  0.11082  0.129648  0  0.986121  0
H  H21  1  0.99697148  0.21200870  0.68370789  1  0.079729  0  0.107228  0.125358  0  0.995109  0
H  H22  1  0.24264683  0.77454519  0.69032975  1  0.088208  0  0.105711  0.121845  0  0.99847  0
H  H23  1  0.85029058  0.63557742  0.26831675  1  0.077301  0  0.094914  0.102313  0  0.994781  0
H  H24  1  0.63415994  0.51198757  0.25864494  1  0.047753  0  0.0942  0.10253  0  0.992399  0
H  H25  1  0.51607992  0.86113898  0.25608887  1  0.047706  0  0.093455  0.10006  0  0.995341  0
H  H26  1  0.99114992  0.80583045  0.28452856  1  0.07367  0  0.091459  0.109823  0  1.007742  0
H  H27  1  0.83510733  0.21507180  0.28709449  1  0.086837  0  0.09355  0.112704  0  0.994014  0
H  H28  1  0.51076566  0.81222229  0.17453165  1  0.036274  0  0.09552  0.112172  0  0.989569  0
H  H29  1  0.21354100  0.98198782  0.28257176  1  0.081753  0  0.09376  0.113446  0  0.993645  0
H  H30  1  0.01541403  0.66721339  0.29034276  1  0.114301  0  0.105181  0.132892  0  0.96411  0
H  H31  1  0.69325894  0.31612623  0.29455054  1  0.089659  0  0.104455  0.131406  0  0.965661  0
H  H32  1  0.32037444  0.01815519  0.28154727  1  0.090536  0  0.10349  0.129844  0  0.967317  0
H  H33  1  0.03040016  0.76353033  0.20176547  1  0.136059  0  0.087099  0.079937  0  1.051153  0
H  H34  1  0.78340834  0.19306453  0.20890545  1  0.114631  0  0.082397  0.072532  0  1.072039  0
H  H35  1  0.20607535  0.01332710  0.19835048  1  0.136735  0  0.08653  0.078943  0  1.054108  0
H  H36  1  0.68092200  0.93732174  0.27195963  1  0.11376  0  0.108885  0.108132  0  0.970846  0
H  H37  1  0.92849018  0.42034674  0.24808127  1  0.117842  0  0.101758  0.097907  0  0.994126  0
H  H38  1  0.40615752  0.67191024  0.27324606  1  0.119057  0  0.10847  0.107545  0  0.971508  0
H  H39  1  0.71204267  0.74598662  0.27649044  1  0.03145  0  0.09612  0.098972  0  1.004171  0
H  H40  1  0.73159559  0.56129658  0.25621807  1  0.022784  0  0.093242  0.097231  0  1.009204  0
H  H41  1  0.55482173  0.71980419  0.26965969  1  0.030428  0  0.094746  0.09641  0  1.004732  0
H  H42  1  0.69947829  0.80569211  0.19407181  1  0.03913  0  0.088529  0.100758  0  1.012326  0
H  H43  1  0.78489391  0.49993526  0.17456135  1  0.067916  0  0.089067  0.099546  0  1.005004  0
H  H44  1  0.50268068  0.69109332  0.19105274  1  0.075341  0  0.089174  0.1012  0  1.008587  0
H  H45  1  0.43056667  0.56236999  0.46911382  1  0.577955  0  0.294563  0.386519  0  0.917987  0
H  H46  1  0.16900253  0.17809303  0.01400845  1  0.580573  0  0.290921  0.383096  0  0.923939  0
C  C47  1  0.75457608  0.48202806  0.42177827  1  1.640364  0  0.277071  0.716469  0  4.150918  0
C  C48  1  0.87274570  0.81378169  0.13953897  1  -0.203217  0  -0.026218  -0.019268  0  4.034139  0
C  C49  1  0.80603283  0.30185072  0.13453612  1  -0.477482  0  -0.034564  -0.03424  0  4.056248  0
C  C50  1  0.31417920  0.85074915  0.13815140  1  -0.420139  0  -0.037773  -0.041943  0  4.063433  0
C  C51  1  0.82998176  0.78187428  0.34021219  1  -0.226195  0  -0.009214  0.00472  0  3.985938  0
C  C52  1  0.79525652  0.41660711  0.32911916  1  0.008363  0  -0.024695  -0.025308  0  4.017557  0
C  C53  1  0.40549755  0.83473350  0.33547321  1  -0.366553  0  -0.020536  -0.017584  0  4.018794  0
C  C54  1  0.82221021  0.76797543  0.38380308  1  0.030999  0  -0.036424  -0.200819  0  3.92886  0
C  C55  1  0.78143969  0.44199739  0.37214981  1  -0.239796  0  -0.038036  -0.190712  0  3.936762  0
C  C56  1  0.42974853  0.82827304  0.37840489  1  0.131707  0  -0.039263  -0.19495  0  3.944236  0
C  C57  1  0.20845552  0.89692649  0.05372509  1  1.712343  0  0.280805  0.721587  0  4.140841  0
C  C58  1  0.47314143  0.80257274  0.42726815  1  1.661875  0  0.279918  0.720697  0  4.151373  0
C  C59  1  0.91994990  0.86629579  0.05243906  1  1.657205  0  0.28714  0.728009  0  4.12882  0
C  C60  1  0.86189474  0.20098636  0.04879913  1  1.647465  0  0.282377  0.717744  0  4.140697  0
C  C61  1  0.80500432  0.76601005  0.61940212  1  0.100744  0  -0.019287  -0.130344  0  3.957055  0
C  C62  1  0.78506517  0.38723967  0.60805328  1  0.11083  0  -0.021522  -0.144408  0  3.907349  0
C  C63  1  0.40585146  0.83238865  0.61299213  1  0.027569  0  -0.023672  -0.147194  0  3.912557  0
C  C64  1  0.76451037  0.72633541  0.65774767  1  0.104528  0  0.012956  0.067948  0  4.038949  0
C  C65  1  0.69544430  0.41418736  0.64145505  1  0.104431  0  0.017646  0.074486  0  4.016804  0
C  C66  1  0.43088238  0.89563171  0.64629250  1  0.145376  0  0.0164  0.079203  0  4.021151  0
C  C67  1  0.78148712  0.74260726  0.70691907  1  0.074174  0  0.008464  0.033221  0  4.023992  0
C  C68  1  0.71608087  0.37464695  0.69016689  1  0.087233  0  0.00602  0.030207  0  4.007571  0
C  C69  1  0.79657818  0.74708751  0.43259965  1  1.658539  0  0.287083  0.727033  0  4.145277  0
C  C70  1  0.39670504  0.90595067  0.69572310  1  0.073126  0  0.005085  0.027182  0  4.005118  0
C  C71  1  0.83935673  0.80020093  0.71835736  1  0.054448  0  -0.003838  0.040081  0  3.985175  0
C  C72  1  0.82500869  0.30287759  0.70621884  1  0.039237  0  -0.001291  0.052011  0  3.989427  0
C  C73  1  0.33027172  0.86036298  0.71243870  1  0.040261  0  -0.00172  0.053163  0  3.986765  0
C  C74  1  0.76411701  0.44900971  0.56017017  1  1.596481  0  0.267321  0.647181  0  4.091611  0
C  C75  1  0.46626997  0.79430828  0.56477635  1  1.590597  0  0.2624  0.64801  0  4.09246  0
C  C76  1  0.77999545  0.74802784  0.56773673  1  1.614953  0  0.272726  0.661665  0  4.117011  0
C  C77  1  0.88063913  0.83854726  0.67996366  1  0.002358  0  -0.092703  -0.178732  0  3.966099  0
C  C78  1  0.91245584  0.27069319  0.67238103  1  0.065158  0  -0.098425  -0.19234  0  3.986754  0
C  C79  1  0.29788642  0.80621429  0.67851957  1  0.059121  0  -0.098571  -0.190272  0  3.99229  0
C  C80  1  0.79778080  0.92407264  0.21517963  1  0.116818  0  0.042141  0.143237  0  3.614692  0
C  C81  1  0.86329486  0.82182249  0.63124205  1  -0.052919  0  -0.012456  0.105705  0  3.976523  0
C  C82  1  0.89318794  0.31185127  0.62460429  1  -0.146057  0  -0.007285  0.118973  0  3.941771  0
C  C83  1  0.33478848  0.79203411  0.63011209  1  -0.091331  0  -0.009377  0.108626  0  3.96197  0
C  C84  1  0.76750388  0.88556108  0.80105872  1  0.016241  0  -0.0877  -0.131535  0  3.977214  0
C  C85  1  0.91769186  0.28798029  0.78614348  1  -0.021887  0  -0.087379  -0.130967  0  3.972526  0
C  C86  1  0.31750020  0.77061068  0.79066896  1  -0.035539  0  -0.088691  -0.134554  0  3.969353  0
C  C87  1  0.78532182  0.90297112  0.84941480  1  -0.055171  0  -0.073142  -0.072915  0  3.962218  0
C  C88  1  0.93398347  0.25812900  0.83547908  1  -0.073987  0  -0.073458  -0.080664  0  3.965766  0
C  C89  1  0.28800234  0.77694411  0.84003183  1  -0.015573  0  -0.079417  -0.084765  0  3.982749  0
C  C90  1  0.98433760  0.78515777  0.83726202  1  -0.109709  0  -0.072293  -0.070234  0  3.954584  0
C  C91  1  0.92415123  0.29302404  0.20386275  1  0.110547  0  0.043789  0.145621  0  3.606724  0
C  C92  1  0.81253279  0.17729904  0.82855539  1  0.000938  0  -0.079418  -0.079651  0  3.970893  0
C  C93  1  0.21220619  0.97833931  0.83718230  1  0.029547  0  -0.074183  -0.073481  0  3.950375  0
C  C94  1  0.96639150  0.77055883  0.78846133  1  0.037623  0  -0.085311  -0.13136  0  3.966142  0
C  C95  1  0.79771575  0.20577736  0.77917472  1  -0.03261  0  -0.091869  -0.133458  0  3.997784  0
C  C96  1  0.23943684  0.97202871  0.78779983  1  -0.006581  0  -0.091513  -0.132528  0  3.998719  0
C  C97  1  0.85791422  0.81930982  0.77002271  1  -0.052865  0  -0.001029  0.087196  0  3.996206  0
C  C98  1  0.84797549  0.26373700  0.75771735  1  -0.003601  0  -0.006317  0.079675  0  4.00098  0
C  C99  1  0.29477743  0.86794861  0.76427320  1  -0.053227  0  -0.005533  0.082572  0  3.997943  0
C  C100  1  0.89386322  0.85164689  0.86801693  1  0.020009  0  -0.014889  -0.054611  0  3.983191  0
C  C101  1  0.87959845  0.20464824  0.85711280  1  -0.014548  0  -0.013995  -0.047205  0  3.982962  0
C  C102  1  0.29093343  0.78032807  0.21858524  1  0.098935  0  0.041971  0.146263  0  3.618472  0
C  C103  1  0.23727471  0.88066885  0.86366260  1  -0.082555  0  -0.013238  -0.047121  0  3.986211  0
C  C104  1  0.20245333  0.89311673  0.91592025  1  1.556154  0  0.270477  0.632046  0  4.104105  0
C  C105  1  0.91490107  0.87471583  0.91859209  1  1.568092  0  0.277811  0.64409  0  4.084408  0
C  C106  1  0.89782619  0.17158151  0.90962602  1  1.550385  0  0.271147  0.634027  0  4.100761  0
C  C107  1  0.79376117  0.72452608  0.26082457  1  -0.069575  0  -0.156264  -0.19662  0  3.834316  0
C  C108  1  0.71912600  0.49037905  0.24737116  1  -0.020523  0  -0.157726  -0.193251  0  3.835934  0
C  C109  1  0.48980937  0.79761520  0.25333782  1  -0.015884  0  -0.15666  -0.193641  0  3.835773  0
C  C110  1  0.96289325  0.74771471  0.27233862  1  -0.040757  0  -0.164943  -0.248069  0  3.853891  0
C  C111  1  0.76821191  0.29446753  0.27265706  1  -0.043273  0  -0.163868  -0.245421  0  3.850221  0
C  C112  1  0.29627397  0.95873023  0.26731719  1  -0.069951  0  -0.165024  -0.248625  0  3.858048  0
C  C113  1  0.76872126  0.91555785  0.27004454  1  0.108381  0  -0.0496  -0.035924  0  3.783347  0
C  C114  1  0.97350445  0.73637825  0.21653265  1  -0.070224  0  -0.070877  0.025861  0  3.67238  0
C  C115  1  0.74950990  0.28080853  0.21858463  1  -0.031108  0  -0.071947  0.027212  0  3.67788  0
C  C116  1  0.29114088  0.96327459  0.21129629  1  -0.018636  0  -0.070235  0.026634  0  3.674956  0
C  C117  1  0.89275019  0.82996767  0.09773333  1  -0.002676  0  -0.034678  -0.180575  0  3.912337  0
C  C118  1  0.82059214  0.26366135  0.09351656  1  0.28982  0  -0.03449  -0.174942  0  3.918263  0
C  C119  1  0.27436431  0.86569368  0.09757805  1  0.16814  0  -0.034703  -0.17261  0  3.924282  0
C  C120  1  0.84026654  0.79242997  0.28778162  1  0.126289  0  0.000243  0.152318  0  3.879973  0
C  C121  1  0.80108979  0.38668838  0.27798457  1  0.137065  0  -0.000666  0.154529  0  3.878072  0
C  C122  1  0.38061652  0.83907967  0.28396410  1  0.12052  0  -0.000432  0.154493  0  3.883061  0
C  C123  1  0.78545220  0.74883406  0.20525389  1  -0.01773  0  -0.165603  -0.196894  0  3.849789  0
C  C124  1  0.91838485  0.34677667  0.25469507  1  0.098695  0  -0.05148  -0.035047  0  3.78644  0
C  C125  1  0.73721728  0.46418933  0.19217874  1  -0.06199  0  -0.16409  -0.195797  0  3.854366  0
C  C126  1  0.47012433  0.77987739  0.19949245  1  -0.054302  0  -0.1641  -0.194125  0  3.849854  0
C  C127  1  0.85718571  0.80366436  0.19172977  1  0.141907  0  -0.003528  0.08944  0  3.871382  0
C  C128  1  0.80168303  0.33598813  0.18495085  1  0.109514  0  -0.004304  0.090916  0  3.874998  0
C  C129  1  0.34383233  0.84291971  0.18935373  1  0.135901  0  -0.004359  0.091844  0  3.878309  0
C  C130  1  0.33596403  0.75732814  0.27188001  1  0.10882  0  -0.050159  -0.034111  0  3.784987  0
Br  Br131  1  0.91959723  0.87652303  0.58049265  1  -0.030855  0  0.03691  -0.042532  0  1.34651  0
Br  Br132  1  0.02096328  0.25337628  0.58291051  1  -0.023916  0  0.029649  -0.046482  0  1.359666  0
Br  Br133  1  0.27934788  0.72078022  0.58853535  1  0.002286  0  0.052067  -0.020303  0  1.476224  0
Br  Br134  1  0.04479304  0.57789092  0.19630242  1  -0.121408  0  -0.007107  -0.114441  0  1.385043  0
Br  Br135  1  0.58961445  0.34381878  0.20394120  1  -0.132054  0  -0.014353  -0.117455  0  1.375109  0
Br  Br136  1  0.36474756  0.04400190  0.18306348  1  -0.129493  0  -0.010191  -0.110978  0  1.341649  0
Br  Br137  1  0.65688599  0.02242053  0.18091278  1  -0.058032  0  0.026107  -0.079319  0  1.422395  0
Br  Br138  1  0.00768123  0.33758595  0.15784606  1  -0.050499  0  0.032953  -0.06375  0  1.404893  0
Br  Br139  1  0.33278226  0.63465410  0.18789000  1  -0.065683  0  0.020468  -0.084145  0  1.403672  0
Cl  Cl140  1  0.88440328  0.98514368  0.20675503  1  -0.178271  0  0.011746  -0.058364  0  1.80187  0
Cl  Cl141  1  0.77894438  0.01332314  0.30876909  1  -0.208926  0  -0.023919  -0.079238  0  1.461124  0
Cl  Cl142  1  0.02929527  0.25992798  0.29418521  1  -0.211581  0  -0.033173  -0.090645  0  1.460415  0
Cl  Cl143  1  0.23901965  0.75907973  0.31582473  1  -0.210559  0  -0.028934  -0.085646  0  1.45557  0
Cl  Cl144  1  0.99593157  0.14413341  0.20536485  1  -0.180108  0  0.005705  -0.066487  0  1.736778  0
Cl  Cl145  1  0.14358243  0.86184356  0.21568634  1  -0.172675  0  0.004811  -0.074692  0  1.78764  0
Cl  Cl146  1  0.69135327  0.65861903  0.64394961  1  -0.174471  0  0.044783  -0.010185  0  1.767233  0
Cl  Cl147  1  0.55975496  0.50052864  0.62569668  1  -0.115031  0  0.04156  0.008508  0  1.778349  0
Cl  Cl148  1  0.50762844  0.95832637  0.62918779  1  -0.14266  0  0.020635  -0.02115  0  1.694413  0
Cl  Cl149  1  0.73447674  0.68839662  0.75264053  1  -0.182038  0  0.008211  -0.052245  0  1.570428  0
Cl  Cl150  1  0.60633867  0.42151544  0.73123296  1  -0.187553  0  -0.004536  -0.072498  0  1.586332  0
Cl  Cl151  1  0.44324169  0.96905830  0.73646740  1  -0.192238  0  -0.001293  -0.069895  0  1.614585  0
O  O152  1  0.47225311  0.72115396  0.44884574  1  -1.220259  0  -0.211799  -0.568323  0  2.287415  0
O  O153  1  0.49496872  0.69552380  0.55241686  1  -1.234773  0  -0.215916  -0.570095  0  2.455897  0
O  O154  1  0.69093111  0.82590663  0.54920625  1  -1.250804  0  -0.227758  -0.592415  0  2.3396  0
O  O155  1  0.83944524  0.47357994  0.54605160  1  -1.263739  0  -0.245262  -0.614806  0  2.365697  0
O  O156  1  0.67424967  0.47907724  0.53805714  1  -1.236036  0  -0.206664  -0.538202  0  2.375404  0
O  O157  1  0.48990983  0.86103457  0.54028992  1  -1.263605  0  -0.24894  -0.610877  0  2.320239  0
O  O158  1  0.84510226  0.65476186  0.54790391  1  -1.252339  0  -0.223524  -0.573389  0  2.296953  0
O  O159  1  0.66485103  0.66430180  0.49627782  1  -1.610327  0  -0.391574  -1.268259  0  2.304642  0
O  O160  1  0.00723433  0.99375513  0.98589719  1  -1.611959  0  -0.391598  -1.269046  0  2.293682  0
O  O161  1  0.16732719  0.99778559  0.04033946  1  -1.2225  0  -0.208849  -0.561054  0  2.285737  0
O  O162  1  0.01639618  0.80320511  0.03371553  1  -1.251432  0  -0.22496  -0.582694  0  2.228512  0
O  O163  1  0.71029556  0.82554715  0.45317196  1  -1.245853  0  -0.223431  -0.5802  0  2.249147  0
O  O164  1  0.80014658  0.16665126  0.02813690  1  -1.254405  0  -0.240807  -0.600789  0  2.209143  0
O  O165  1  0.98149745  0.16756796  0.93007254  1  -1.249014  0  -0.210986  -0.550571  0  2.347738  0
O  O166  1  0.19342193  0.81197082  0.93625861  1  -1.274741  0  -0.250934  -0.613603  0  2.263166  0
O  O167  1  0.83648575  0.95985863  0.94051390  1  -1.277538  0  -0.237133  -0.600232  0  2.291929  0
O  O168  1  0.17917378  0.98364287  0.93681550  1  -1.246339  0  -0.213478  -0.564351  0  2.365458  0
O  O169  1  0.01116550  0.81265617  0.93671652  1  -1.268299  0  -0.232394  -0.595364  0  2.311928  0
O  O170  1  0.82850359  0.14616726  0.93047049  1  -1.272884  0  -0.249225  -0.61867  0  2.298992  0
O  O171  1  0.83399092  0.47784250  0.44787254  1  -1.259157  0  -0.242993  -0.606446  0  2.229196  0
O  O172  1  0.95737825  0.18115852  0.03496269  1  -1.209262  0  -0.201358  -0.549702  0  2.288025  0
O  O173  1  0.19399443  0.82059008  0.03353083  1  -1.250378  0  -0.237365  -0.60043  0  2.233764  0
O  O174  1  0.84737006  0.96162618  0.03618179  1  -1.238053  0  -0.221202  -0.579649  0  2.251993  0
O  O175  1  0.65439693  0.52046964  0.43506225  1  -1.211244  0  -0.208993  -0.554554  0  2.281512  0
O  O176  1  0.51401586  0.86233667  0.44402200  1  -1.251342  0  -0.239585  -0.597319  0  2.221036  0
O  O177  1  0.85836594  0.64940706  0.45055790  1  -1.244436  0  -0.225488  -0.584435  0  2.23554  0
O  O178  1  0.48365731  0.53953547  0.49543358  1  -1.359967  0  -0.572453  -0.989811  0  1.822026  0
O  O179  1  0.13277301  0.17586912  0.98429605  1  -1.367993  0  -0.579444  -0.998614  0  1.794056  0
