# generated using pymatgen
data_ZnH15C20N2O5
_symmetry_space_group_name_H-M   'P 1'
_cell_length_a   7.42488479
_cell_length_b   14.91000806
_cell_length_c   17.03042343
_cell_angle_alpha   90.00051724
_cell_angle_beta   95.04408181
_cell_angle_gamma   89.99999105
_symmetry_Int_Tables_number   1
_chemical_formula_structural   ZnH15C20N2O5
_chemical_formula_sum   'Zn4 H60 C80 N8 O20'
_cell_volume   1878.05327080
_cell_formula_units_Z   4
loop_
 _symmetry_equiv_pos_site_id
 _symmetry_equiv_pos_as_xyz
  1  'x, y, z'
loop_
 _atom_site_type_symbol
 _atom_site_label
 _atom_site_symmetry_multiplicity
 _atom_site_fract_x
 _atom_site_fract_y
 _atom_site_fract_z
 _atom_site_occupancy
 _atom_site_pbe_bader_charge
 _atom_site_pbe_bader_spin_density
 _atom_site_pbe_cm5_charge
 _atom_site_pbe_ddec_charge
 _atom_site_pbe_ddec_spin_density
 _atom_site_pbe_ddec_sum_bond_order
 _atom_site_pbe_magmom
Zn  Zn0  1  0.74688452  0.85079793  0.31968992  1  1.247866  0  0.689086  0.750726  0  2.370943  0
Zn  Zn1  1  0.75311503  0.35079748  0.18030920  1  1.247898  0  0.689179  0.750933  0  2.370932  0
Zn  Zn2  1  0.25310902  0.14920461  0.68030902  1  1.247863  0  0.689136  0.750837  0  2.37107  0
Zn  Zn3  1  0.24688656  0.64920706  0.81969186  1  1.247896  0  0.689093  0.750754  0  2.371154  0
H  H4  1  0.02033613  0.95175017  0.42665822  1  0.14938  0  0.121925  0.104076  0  1.012007  0
H  H5  1  0.47967550  0.45175263  0.07334343  1  0.149562  0  0.121919  0.104105  0  1.012051  0
H  H6  1  0.97967888  0.04824231  0.57334695  1  0.149731  0  0.121902  0.104053  0  1.011938  0
H  H7  1  0.52032213  0.54825058  0.92665451  1  0.14968  0  0.121952  0.104132  0  1.01202  0
H  H8  1  0.70967791  0.01085153  0.21963333  1  0.128376  0  0.120498  0.093101  0  1.014906  0
H  H9  1  0.79032642  0.51085693  0.28036918  1  0.128416  0  0.120458  0.09305  0  1.014906  0
H  H10  1  0.29034522  0.98914833  0.78037162  1  0.128372  0  0.120501  0.09311  0  1.014696  0
H  H11  1  0.20966172  0.48914896  0.71962952  1  0.128342  0  0.120488  0.093077  0  1.014796  0
H  H12  1  0.92461839  0.12672853  0.18236504  1  0.114833  0  0.115042  0.127097  0  1.003126  0
H  H13  1  0.57539295  0.62673903  0.31763576  1  0.114475  0  0.11509  0.127216  0  1.003007  0
H  H14  1  0.07541832  0.87325925  0.81763874  1  0.114393  0  0.115144  0.127331  0  1.002847  0
H  H15  1  0.42459520  0.37326619  0.68236235  1  0.114574  0  0.115121  0.127287  0  1.00293  0
H  H16  1  0.24758797  0.06801140  0.40086376  1  0.107288  0  0.117247  0.124717  0  0.986437  0
H  H17  1  0.25242867  0.56802031  0.09913155  1  0.107738  0  0.117251  0.124847  0  0.986364  0
H  H18  1  0.75244474  0.93197236  0.59913809  1  0.107304  0  0.117228  0.124595  0  0.986477  0
H  H19  1  0.74756637  0.43198558  0.90086275  1  0.107724  0  0.117177  0.124547  0  0.986498  0
H  H20  1  0.10243600  0.22321800  0.16013560  1  0.139166  0  0.109046  0.12522  0  1.054636  0
H  H21  1  0.39756997  0.72322736  0.33986223  1  0.139094  0  0.109039  0.125198  0  1.054709  0
H  H22  1  0.89758448  0.77677246  0.83986747  1  0.138973  0  0.109033  0.125153  0  1.054787  0
H  H23  1  0.60242114  0.27677853  0.66012779  1  0.139022  0  0.109057  0.12522  0  1.05474  0
H  H24  1  0.46506541  0.12160602  0.35358383  1  0.095971  0  0.115976  0.124349  0  0.986423  0
H  H25  1  0.03494719  0.62161611  0.14641349  1  0.096102  0  0.115969  0.124305  0  0.986564  0
H  H26  1  0.53496465  0.87838243  0.64641614  1  0.095158  0  0.115943  0.124352  0  0.986491  0
H  H27  1  0.96503707  0.37839045  0.85357917  1  0.095035  0  0.115945  0.124339  0  0.986517  0
H  H28  1  0.35754366  0.31181800  0.11933453  1  0.114762  0  0.121051  0.096369  0  0.999251  0
H  H29  1  0.14246239  0.81182713  0.38066518  1  0.114841  0  0.121081  0.09641  0  0.999083  0
H  H30  1  0.64247010  0.68817582  0.88066707  1  0.114796  0  0.121068  0.096389  0  0.999089  0
H  H31  1  0.85753131  0.18817541  0.61932848  1  0.114757  0  0.121072  0.096412  0  0.99899  0
H  H32  1  0.69984662  0.22278748  0.30824412  1  0.137862  0  0.119986  0.100122  0  1.006625  0
H  H33  1  0.80016095  0.72279600  0.19175198  1  0.137955  0  0.120004  0.10015  0  1.006585  0
H  H34  1  0.30017674  0.77720567  0.69175378  1  0.138143  0  0.119985  0.100148  0  1.006536  0
H  H35  1  0.19982594  0.27721056  0.80824314  1  0.138043  0  0.119958  0.100139  0  1.006605  0
H  H36  1  0.12735137  0.95928012  0.18872216  1  0.117797  0  0.101658  0.115096  0  1.052546  0
H  H37  1  0.37264785  0.45927833  0.31128722  1  0.117948  0  0.10165  0.115126  0  1.052465  0
H  H38  1  0.87264473  0.04072375  0.81128158  1  0.117372  0  0.101645  0.115111  0  1.052524  0
H  H39  1  0.62735093  0.54072555  0.68871723  1  0.116711  0  0.10168  0.115133  0  1.052562  0
H  H40  1  0.94885153  0.81856655  0.97375096  1  0.068375  0  0.103339  0.11338  0  1.048816  0
H  H41  1  0.55114047  0.31855247  0.52624931  1  0.068117  0  0.103387  0.113482  0  1.048924  0
H  H42  1  0.05114340  0.18144537  0.02624686  1  0.068172  0  0.103393  0.11351  0  1.048832  0
H  H43  1  0.44885163  0.68144537  0.47375250  1  0.06831  0  0.103379  0.113479  0  1.048854  0
H  H44  1  0.46853333  0.76071166  0.09453245  1  0.100835  0  0.101774  0.110348  0  1.029427  0
H  H45  1  0.03145782  0.26070683  0.40546503  1  0.100796  0  0.101813  0.110371  0  1.029215  0
H  H46  1  0.53145743  0.23929222  0.90546872  1  0.100797  0  0.101827  0.110375  0  1.029246  0
H  H47  1  0.96853848  0.73929302  0.59453227  1  0.100801  0  0.101803  0.110371  0  1.029227  0
H  H48  1  0.66993767  0.86478835  0.02177945  1  0.041673  0  0.099378  0.06755  0  0.982583  0
H  H49  1  0.83006711  0.36478089  0.47822647  1  0.041767  0  0.099371  0.067534  0  0.98263  0
H  H50  1  0.33005976  0.13521687  0.97822494  1  0.041629  0  0.099418  0.067611  0  0.982579  0
H  H51  1  0.16993461  0.63521359  0.52177049  1  0.041666  0  0.099421  0.067551  0  0.982592  0
H  H52  1  0.77689684  0.94401646  0.96169941  1  0.043664  0  0.096036  0.061451  0  0.99889  0
H  H53  1  0.72309118  0.44400987  0.53830461  1  0.043701  0  0.096001  0.061458  0  0.998939  0
H  H54  1  0.22307359  0.05599211  0.03830261  1  0.043543  0  0.095988  0.061432  0  0.99888  0
H  H55  1  0.27691849  0.55598462  0.46169797  1  0.043719  0  0.096024  0.061486  0  0.998909  0
H  H56  1  0.63999636  0.06968555  0.03299276  1  0.050931  0  0.090095  0.090209  0  1.008904  0
H  H57  1  0.85998362  0.56967878  0.46701207  1  0.050313  0  0.090089  0.090188  0  1.008972  0
H  H58  1  0.35996845  0.93031632  0.96701606  1  0.050733  0  0.090123  0.090299  0  1.008805  0
H  H59  1  0.14001942  0.43031504  0.53298611  1  0.050684  0  0.090114  0.090239  0  1.008908  0
H  H60  1  0.52781868  0.99129568  0.09021206  1  0.024341  0  0.090362  0.087888  0  1.004576  0
H  H61  1  0.97216342  0.49129220  0.40978975  1  0.024699  0  0.090296  0.087843  0  1.004538  0
H  H62  1  0.47215703  0.00870082  0.90979431  1  0.024806  0  0.090307  0.0879  0  1.004577  0
H  H63  1  0.02783831  0.50870295  0.59020720  1  0.024744  0  0.090289  0.087838  0  1.004612  0
C  C64  1  0.00627282  0.99305504  0.37363083  1  0.48631  0  0.051343  0.091011  0  3.921341  0
C  C65  1  0.49373481  0.49305402  0.12637097  1  0.486205  0  0.051346  0.091002  0  3.921356  0
C  C66  1  0.99374082  0.00694213  0.62637487  1  0.481631  0  0.051427  0.091151  0  3.921059  0
C  C67  1  0.50626416  0.50694785  0.87362762  1  0.481972  0  0.051406  0.090955  0  3.921291  0
C  C68  1  0.83153229  0.02586713  0.25762728  1  0.441394  0  0.051518  0.097556  0  3.936101  0
C  C69  1  0.66847347  0.52587149  0.24237365  1  0.44094  0  0.051506  0.097603  0  3.936257  0
C  C70  1  0.16848413  0.97413004  0.74237619  1  0.440758  0  0.051455  0.097537  0  3.935956  0
C  C71  1  0.33152005  0.47413306  0.75762588  1  0.440838  0  0.051495  0.097542  0  3.936189  0
C  C72  1  0.95300822  0.09101320  0.23782354  1  0.015135  0  -0.071466  -0.158365  0  3.907379  0
C  C73  1  0.54700444  0.59101978  0.26217644  1  0.015803  0  -0.071475  -0.15853  0  3.90753  0
C  C74  1  0.04702045  0.90897793  0.76217753  1  0.015808  0  -0.071472  -0.158562  0  3.907415  0
C  C75  1  0.45298238  0.40898343  0.73782103  1  0.015744  0  -0.071463  -0.158443  0  3.907376  0
C  C76  1  0.11345490  0.10501818  0.28643057  1  -0.000532  0  0.02606  0.114785  0  3.931477  0
C  C77  1  0.38655895  0.60502221  0.21356901  1  -0.000339  0  0.02606  0.114798  0  3.931544  0
C  C78  1  0.88657507  0.89497363  0.71357232  1  -0.00037  0  0.025922  0.114578  0  3.931706  0
C  C79  1  0.61342922  0.39497831  0.78642851  1  -0.00026  0  0.026008  0.114638  0  3.931818  0
C  C80  1  0.13256220  0.05751287  0.35785968  1  -0.024996  0  -0.063885  -0.127489  0  3.901697  0
C  C81  1  0.36745025  0.55751953  0.14213888  1  -0.025284  0  -0.063849  -0.127626  0  3.901691  0
C  C82  1  0.86746510  0.94247491  0.64214192  1  -0.020126  0  -0.063831  -0.12732  0  3.901592  0
C  C83  1  0.63254073  0.44248234  0.85785525  1  -0.02107  0  -0.063845  -0.12721  0  3.901715  0
C  C84  1  0.23286521  0.21779899  0.19439672  1  -0.033548  0  -0.077589  -0.164085  0  3.907363  0
C  C85  1  0.26714075  0.71780734  0.30560106  1  -0.032664  0  -0.077651  -0.16421  0  3.907192  0
C  C86  1  0.76715528  0.78219483  0.80560634  1  -0.032772  0  -0.077567  -0.16402  0  3.907121  0
C  C87  1  0.73285034  0.28219654  0.69438954  1  -0.032828  0  -0.077568  -0.163971  0  3.907224  0
C  C88  1  0.43191320  0.16393773  0.30233350  1  0.055075  0  -0.070182  -0.147946  0  3.922341  0
C  C89  1  0.06809412  0.66394700  0.19766157  1  0.05464  0  -0.070114  -0.147839  0  3.92226  0
C  C90  1  0.56811008  0.83605072  0.69766675  1  0.055574  0  -0.070052  -0.147905  0  3.922289  0
C  C91  1  0.93189558  0.33605956  0.80233015  1  0.055899  0  -0.069978  -0.147717  0  3.922174  0
C  C92  1  0.25928947  0.16303209  0.26144207  1  -0.033006  0  0.021382  0.111768  0  3.946779  0
C  C93  1  0.24071639  0.66303774  0.23855645  1  -0.032814  0  0.021368  0.111902  0  3.946401  0
C  C94  1  0.74072972  0.83695904  0.73855917  1  -0.032947  0  0.02148  0.111971  0  3.946449  0
C  C95  1  0.75926785  0.33696613  0.76143680  1  -0.032897  0  0.02148  0.111772  0  3.946524  0
C  C96  1  0.37441594  0.26975726  0.17170723  1  0.464494  0  0.051657  0.103949  0  3.927199  0
C  C97  1  0.12558869  0.76976451  0.32829267  1  0.463535  0  0.051657  0.103908  0  3.927016  0
C  C98  1  0.62560052  0.73023455  0.82829507  1  0.464193  0  0.051623  0.10388  0  3.926769  0
C  C99  1  0.87439955  0.23023937  0.67170251  1  0.464185  0  0.051512  0.103672  0  3.927033  0
C  C100  1  0.56557946  0.21905695  0.27692414  1  0.406886  0  0.047679  0.089876  0  3.935279  0
C  C101  1  0.93442950  0.71906510  0.22307082  1  0.406584  0  0.047583  0.089705  0  3.935259  0
C  C102  1  0.43444386  0.78093620  0.72307493  1  0.407196  0  0.047424  0.08969  0  3.935428  0
C  C103  1  0.06555739  0.28094146  0.77692430  1  0.407072  0  0.047416  0.089553  0  3.935386  0
C  C104  1  0.44851439  0.87954254  0.21740183  1  1.558136  0  0.191211  0.552106  0  4.245188  0
C  C105  1  0.05148763  0.37954048  0.28260059  1  1.558128  0  0.191217  0.55198  0  4.245421  0
C  C106  1  0.55149267  0.12045866  0.78259771  1  1.558026  0  0.191222  0.552024  0  4.245488  0
C  C107  1  0.94850986  0.62045803  0.71740204  1  1.558178  0  0.191157  0.551971  0  4.245515  0
C  C108  1  0.31103106  0.86184267  0.14905665  1  -0.042313  0  -0.02122  -0.016337  0  4.012295  0
C  C109  1  0.18896288  0.36183728  0.35094351  1  -0.043373  0  -0.021161  -0.016082  0  4.012224  0
C  C110  1  0.68895839  0.13816120  0.85094329  1  -0.043074  0  -0.021154  -0.016043  0  4.012162  0
C  C111  1  0.81103874  0.63816258  0.64905696  1  -0.043445  0  -0.021173  -0.01617  0  4.012256  0
C  C112  1  0.14955173  0.90974672  0.14377000  1  -0.007914  0  -0.094417  -0.201955  0  3.937308  0
C  C113  1  0.35044487  0.40973935  0.35623418  1  -0.007292  0  -0.094454  -0.202122  0  3.937294  0
C  C114  1  0.85044306  0.09025850  0.85623252  1  -0.006851  0  -0.094487  -0.202256  0  3.937382  0
C  C115  1  0.64955132  0.59026184  0.64376663  1  -0.006092  0  -0.094499  -0.202134  0  3.937482  0
C  C116  1  0.01708536  0.89472361  0.08126849  1  0.464945  0  0.08168  0.25512  0  4.077938  0
C  C117  1  0.48291257  0.39471285  0.41873563  1  0.464625  0  0.081822  0.255343  0  4.07789  0
C  C118  1  0.98290268  0.10528295  0.91873314  1  0.464687  0  0.08185  0.25545  0  4.077649  0
C  C119  1  0.51708898  0.60528499  0.58126718  1  0.464617  0  0.081777  0.255241  0  4.077816  0
C  C120  1  0.04783632  0.83125319  0.02340335  1  -0.057603  0  -0.102587  -0.232486  0  3.957708  0
C  C121  1  0.45216293  0.33124235  0.47659857  1  -0.057449  0  -0.102709  -0.232883  0  3.957839  0
C  C122  1  0.95216121  0.16875672  0.97659812  1  -0.057498  0  -0.102706  -0.232839  0  3.957705  0
C  C123  1  0.54783324  0.66875750  0.52340284  1  -0.057662  0  -0.102673  -0.232748  0  3.957613  0
C  C124  1  0.21188929  0.78366169  0.02859866  1  -0.060394  0  -0.025375  -0.02163  0  4.023417  0
C  C125  1  0.28808697  0.28365282  0.47140010  1  -0.060641  0  -0.025278  -0.021399  0  4.023214  0
C  C126  1  0.78809205  0.21634219  0.97140092  1  -0.060371  0  -0.025331  -0.021561  0  4.023261  0
C  C127  1  0.71190522  0.71634301  0.52859878  1  -0.060612  0  -0.025326  -0.021529  0  4.023251  0
C  C128  1  0.34260188  0.79830720  0.09129640  1  0.019402  0  -0.093102  -0.146435  0  3.979123  0
C  C129  1  0.15740005  0.29830173  0.40870478  1  0.020291  0  -0.093183  -0.146628  0  3.979194  0
C  C130  1  0.65739289  0.20169668  0.90870670  1  0.019945  0  -0.093207  -0.146557  0  3.979019  0
C  C131  1  0.84260294  0.70169812  0.59129516  1  0.020324  0  -0.093187  -0.146533  0  3.978986  0
C  C132  1  0.25408415  0.71968530  0.96485772  1  1.538314  0  0.195039  0.557764  0  4.223826  0
C  C133  1  0.24591297  0.21968203  0.53514085  1  1.537494  0  0.195033  0.557882  0  4.223476  0
C  C134  1  0.74591747  0.28032059  0.03514275  1  1.537907  0  0.195011  0.557757  0  4.22385  0
C  C135  1  0.75408874  0.78031581  0.46485669  1  1.538078  0  0.195033  0.557856  0  4.223674  0
C  C136  1  0.72325269  0.93375543  0.01943637  1  0.410148  0  -0.065825  0.041195  0  3.880467  0
C  C137  1  0.77674139  0.43374801  0.48056903  1  0.409878  0  -0.065772  0.041144  0  3.880739  0
C  C138  1  0.27672990  0.06624845  0.98056678  1  0.40997  0  -0.065845  0.041002  0  3.880717  0
C  C139  1  0.22326161  0.56624581  0.51943032  1  0.409751  0  -0.065808  0.041187  0  3.880705  0
C  C140  1  0.57824796  0.00259035  0.03215366  1  -0.035052  0  -0.167397  -0.174668  0  3.945324  0
C  C141  1  0.92173467  0.50258425  0.46784958  1  -0.0347  0  -0.167347  -0.174635  0  3.945394  0
C  C142  1  0.42172501  0.99741219  0.96785376  1  0.010721  0  -0.167328  -0.174755  0  3.945394  0
C  C143  1  0.07826976  0.49741024  0.53214749  1  0.010637  0  -0.167343  -0.174729  0  3.945466  0
N  N144  1  0.53863418  0.27107469  0.21211195  1  -1.234622  0  -0.325931  -0.230972  0  3.54228  0
N  N145  1  0.96137479  0.77108351  0.28788519  1  -1.234466  0  -0.325895  -0.230818  0  3.542323  0
N  N146  1  0.46138368  0.72891845  0.78788865  1  -1.235494  0  -0.325824  -0.230842  0  3.542237  0
N  N147  1  0.03861889  0.22891902  0.71210906  1  -1.235438  0  -0.325795  -0.23067  0  3.542222  0
N  N148  1  0.86085041  0.97474958  0.32282712  1  -1.262826  0  -0.333814  -0.238158  0  3.585251  0
N  N149  1  0.63915867  0.47475046  0.17717692  1  -1.262904  0  -0.333844  -0.238204  0  3.585396  0
N  N150  1  0.13916594  0.02524960  0.67717870  1  -1.262966  0  -0.333874  -0.238299  0  3.585268  0
N  N151  1  0.36083352  0.52525141  0.82282195  1  -1.263021  0  -0.333923  -0.238265  0  3.585456  0
O  O152  1  0.42374442  0.93988615  0.26635421  1  -1.176608  0  -0.332607  -0.563196  0  2.128825  0
O  O153  1  0.07625757  0.43988828  0.23365221  1  -1.176566  0  -0.332603  -0.563146  0  2.128906  0
O  O154  1  0.57626120  0.06011840  0.73364820  1  -1.176533  0  -0.332589  -0.563146  0  2.129005  0
O  O155  1  0.92373316  0.56011828  0.76635013  1  -1.176588  0  -0.332546  -0.563091  0  2.129092  0
O  O156  1  0.59067202  0.82808383  0.22099525  1  -1.177148  0  -0.338345  -0.556962  0  2.324462  0
O  O157  1  0.90932210  0.32808639  0.27900345  1  -1.177137  0  -0.338412  -0.556992  0  2.32448  0
O  O158  1  0.40932154  0.17191401  0.77900310  1  -1.177052  0  -0.338434  -0.557043  0  2.324434  0
O  O159  1  0.09067957  0.67191480  0.72099526  1  -1.177099  0  -0.338365  -0.556989  0  2.324453  0
O  O160  1  0.39718828  0.67457938  0.97112260  1  -1.185601  0  -0.327103  -0.566626  0  2.153522  0
O  O161  1  0.10279926  0.17457136  0.52887695  1  -1.185393  0  -0.327254  -0.566857  0  2.153175  0
O  O162  1  0.60280236  0.32542382  0.02888267  1  -1.185322  0  -0.327173  -0.56674  0  2.15346  0
O  O163  1  0.89720247  0.82542111  0.47112000  1  -1.185357  0  -0.327189  -0.566786  0  2.153343  0
O  O164  1  0.13711554  0.71653342  0.90315603  1  -1.164534  0  -0.336359  -0.550049  0  2.323971  0
O  O165  1  0.36287872  0.21652875  0.59684709  1  -1.163881  0  -0.336294  -0.55006  0  2.323888  0
O  O166  1  0.86288883  0.28347784  0.09684280  1  -1.164546  0  -0.336328  -0.550013  0  2.32404  0
O  O167  1  0.63712012  0.78347043  0.40315561  1  -1.164433  0  -0.336341  -0.550061  0  2.323931  0
O  O168  1  0.86535402  0.94625071  0.08145060  1  -1.069573  0  -0.182835  -0.209478  0  2.557138  0
O  O169  1  0.63464286  0.44623729  0.41855268  1  -1.069337  0  -0.182877  -0.209387  0  2.557182  0
O  O170  1  0.13463675  0.05376055  0.91855056  1  -1.069465  0  -0.182894  -0.209399  0  2.55699  0
O  O171  1  0.36535598  0.55376122  0.58145002  1  -1.069409  0  -0.18284  -0.209349  0  2.557057  0
