# generated using pymatgen
data_ZnH24C35N2O7
_symmetry_space_group_name_H-M   'P 1'
_cell_length_a   10.04189115
_cell_length_b   13.66053084
_cell_length_c   23.51066744
_cell_angle_alpha   105.56696068
_cell_angle_beta   90.00215489
_cell_angle_gamma   90.00446540
_symmetry_Int_Tables_number   1
_chemical_formula_structural   ZnH24C35N2O7
_chemical_formula_sum   'Zn4 H96 C140 N8 O28'
_cell_volume   3106.82994061
_cell_formula_units_Z   4
loop_
 _symmetry_equiv_pos_site_id
 _symmetry_equiv_pos_as_xyz
  1  'x, y, z'
loop_
 _atom_site_type_symbol
 _atom_site_label
 _atom_site_symmetry_multiplicity
 _atom_site_fract_x
 _atom_site_fract_y
 _atom_site_fract_z
 _atom_site_occupancy
 _atom_site_pbe_bader_charge
 _atom_site_pbe_bader_spin_density
 _atom_site_pbe_cm5_charge
 _atom_site_pbe_ddec_charge
 _atom_site_pbe_ddec_spin_density
 _atom_site_pbe_ddec_sum_bond_order
 _atom_site_pbe_magmom
Zn  Zn0  1  0.22833720  0.70594905  0.50339549  1  1.294235  0  0.67795  0.80391  0  2.277866  0
Zn  Zn1  1  0.72824846  0.29406343  0.99661743  1  1.294248  0  0.677992  0.804012  0  2.277726  0
Zn  Zn2  1  0.77162284  0.29403874  0.49660582  1  1.294311  0  0.677906  0.803865  0  2.277941  0
Zn  Zn3  1  0.27174545  0.70593491  0.00337952  1  1.29415  0  0.677967  0.803917  0  2.277878  0
H  H4  1  0.91871772  0.73739013  0.59391029  1  0.629653  0  0.292251  0.338141  0  1.010636  0
H  H5  1  0.41864980  0.26265153  0.90609297  1  0.630155  0  0.292369  0.338375  0  1.0104  0
H  H6  1  0.08130905  0.26262732  0.40609720  1  0.629994  0  0.292316  0.33821  0  1.010632  0
H  H7  1  0.58136003  0.73734282  0.09389147  1  0.629949  0  0.292381  0.338406  0  1.010319  0
H  H8  1  0.50695967  0.88783902  0.87770252  1  0.642499  0  0.297442  0.345141  0  0.990016  0
H  H9  1  0.00687571  0.11216542  0.62228224  1  0.642126  0  0.297629  0.345287  0  0.98979  0
H  H10  1  0.49301631  0.11216082  0.12229381  1  0.642416  0  0.29746  0.345021  0  0.990242  0
H  H11  1  0.99316200  0.88782356  0.37769755  1  0.642238  0  0.29752  0.345129  0  0.989776  0
H  H12  1  0.22955856  0.90120136  0.54638430  1  0.608355  0  0.323817  0.405697  0  0.871906  0
H  H13  1  0.72943502  0.09881189  0.95361974  1  0.608881  0  0.323861  0.405683  0  0.871769  0
H  H14  1  0.77043236  0.09878637  0.45361360  1  0.608844  0  0.323778  0.405693  0  0.871737  0
H  H15  1  0.27057581  0.90119027  0.04637949  1  0.608805  0  0.323845  0.405649  0  0.871853  0
H  H16  1  0.17864436  0.87022253  0.47858988  1  0.641444  0  0.286665  0.377046  0  0.969203  0
H  H17  1  0.67851996  0.12977941  0.02141071  1  0.641722  0  0.286727  0.377388  0  0.968841  0
H  H18  1  0.82135452  0.12976519  0.52140716  1  0.641952  0  0.286751  0.377208  0  0.968978  0
H  H19  1  0.32146399  0.87021814  0.97858442  1  0.64171  0  0.286718  0.377363  0  0.968846  0
H  H20  1  0.45323089  0.79449631  0.43329338  1  0.106803  0  0.115236  0.087235  0  1.030666  0
H  H21  1  0.95310987  0.20552515  0.06673661  1  0.106908  0  0.115263  0.087232  0  1.030705  0
H  H22  1  0.54673513  0.20548991  0.56670472  1  0.106548  0  0.115194  0.087328  0  1.0305  0
H  H23  1  0.04688104  0.79447858  0.93326626  1  0.107017  0  0.115238  0.087258  0  1.030736  0
H  H24  1  0.62238293  0.71628804  0.35596354  1  0.108952  0  0.106183  0.109815  0  1.039575  0
H  H25  1  0.12229760  0.28373650  0.14406068  1  0.109131  0  0.106124  0.109638  0  1.039322  0
H  H26  1  0.37760600  0.28369604  0.64404316  1  0.108488  0  0.10608  0.109653  0  1.039457  0
H  H27  1  0.87767539  0.71627037  0.85594905  1  0.109134  0  0.106143  0.109691  0  1.039462  0
H  H28  1  0.66142589  0.52831207  0.33146312  1  0.128279  0  0.107303  0.107759  0  1.031144  0
H  H29  1  0.16140725  0.47170748  0.16854651  1  0.128481  0  0.107271  0.107739  0  1.03127  0
H  H30  1  0.33857101  0.47167068  0.66855615  1  0.127714  0  0.107249  0.107749  0  1.031087  0
H  H31  1  0.83855877  0.52830018  0.83146546  1  0.128169  0  0.107266  0.107772  0  1.031161  0
H  H32  1  0.61159825  0.36120857  0.35422035  1  0.103948  0  0.111129  0.120528  0  0.990821  0
H  H33  1  0.11165106  0.63879356  0.14576826  1  0.103479  0  0.111121  0.120493  0  0.990916  0
H  H34  1  0.38839467  0.63878178  0.64580006  1  0.104435  0  0.111178  0.120572  0  0.990862  0
H  H35  1  0.88833488  0.36120868  0.85423651  1  0.103581  0  0.111099  0.120442  0  0.990932  0
H  H36  1  0.47813108  0.26397258  0.40784965  1  0.088291  0  0.115974  0.128272  0  0.974691  0
H  H37  1  0.97822317  0.73602558  0.09212922  1  0.08327  0  0.116008  0.128552  0  0.974466  0
H  H38  1  0.52184889  0.73601926  0.59216929  1  0.088653  0  0.115941  0.128336  0  0.974495  0
H  H39  1  0.02177671  0.26397505  0.90786892  1  0.083291  0  0.115991  0.128486  0  0.9745  0
H  H40  1  0.28884817  0.25980702  0.47894426  1  0.071834  0  0.118451  0.119294  0  0.961067  0
H  H41  1  0.78893296  0.74019070  0.02103069  1  0.071865  0  0.118485  0.119398  0  0.960984  0
H  H42  1  0.71113279  0.74018704  0.52107033  1  0.071873  0  0.118479  0.119359  0  0.960919  0
H  H43  1  0.21107091  0.25980914  0.97896521  1  0.071889  0  0.118496  0.119383  0  0.960981  0
H  H44  1  0.10741150  0.35532678  0.54462032  1  0.130521  0  0.10821  0.12092  0  1.046805  0
H  H45  1  0.60744081  0.64467562  0.95536684  1  0.130876  0  0.108118  0.120871  0  1.046874  0
H  H46  1  0.89257843  0.64466507  0.45539862  1  0.129927  0  0.108195  0.120841  0  1.046839  0
H  H47  1  0.39255409  0.35532807  0.04463347  1  0.131082  0  0.108148  0.120924  0  1.046839  0
H  H48  1  0.08264593  0.54178854  0.55656606  1  0.080692  0  0.119114  0.091362  0  0.990925  0
H  H49  1  0.58259022  0.45822387  0.94344425  1  0.080898  0  0.119053  0.091346  0  0.990972  0
H  H50  1  0.91734399  0.45820487  0.44345652  1  0.08116  0  0.119133  0.091337  0  0.990743  0
H  H51  1  0.41739870  0.54177909  0.05655808  1  0.080839  0  0.119066  0.091386  0  0.990939  0
H  H52  1  0.78890394  0.90334261  0.84574683  1  0.065863  0  0.095912  0.099674  0  1.067141  0
H  H53  1  0.28874955  0.09665257  0.65425581  1  0.064496  0  0.095857  0.099875  0  1.067311  0
H  H54  1  0.21109395  0.09664828  0.15425920  1  0.065884  0  0.095905  0.099682  0  1.067107  0
H  H55  1  0.71130908  0.90334467  0.34571928  1  0.063857  0  0.095996  0.099963  0  1.067292  0
H  H56  1  0.93352455  0.97373893  0.93133423  1  0.046543  0  0.095148  0.091488  0  1.009456  0
H  H57  1  0.43335136  0.02621001  0.56867683  1  0.045887  0  0.09521  0.091448  0  1.009336  0
H  H58  1  0.06646239  0.02624901  0.06867689  1  0.046904  0  0.095111  0.09145  0  1.009414  0
H  H59  1  0.56672918  0.97378738  0.43130806  1  0.046928  0  0.095204  0.091415  0  1.009295  0
H  H60  1  0.18139518  0.96601144  0.92101944  1  0.068029  0  0.096648  0.099571  0  1.013725  0
H  H61  1  0.68121715  0.03394265  0.57899632  1  0.056037  0  0.096869  0.099717  0  1.013838  0
H  H62  1  0.81859275  0.03399702  0.07899520  1  0.06817  0  0.096595  0.099418  0  1.013809  0
H  H63  1  0.31885941  0.96605113  0.42099994  1  0.056038  0  0.09688  0.099654  0  1.014004  0
H  H64  1  0.28310876  0.89321414  0.82235141  1  0.085077  0  0.100789  0.103197  0  1.013805  0
H  H65  1  0.78295329  0.10679173  0.67765610  1  0.087187  0  0.100867  0.103346  0  1.013706  0
H  H66  1  0.71689112  0.10680571  0.17766453  1  0.085107  0  0.100779  0.103159  0  1.013859  0
H  H67  1  0.21709837  0.89320893  0.32234417  1  0.087818  0  0.100909  0.103524  0  1.013871  0
H  H68  1  0.25952727  0.82307619  0.71534222  1  0.080019  0  0.108532  0.117398  0  0.990041  0
H  H69  1  0.75940621  0.17696515  0.78465736  1  0.081273  0  0.108452  0.117236  0  0.99048  0
H  H70  1  0.74048755  0.17694136  0.28467210  1  0.080205  0  0.10847  0.117277  0  0.990146  0
H  H71  1  0.24062255  0.82302558  0.21533801  1  0.081349  0  0.10842  0.117113  0  0.990625  0
H  H72  1  0.67891998  0.78856145  0.69174873  1  0.087497  0  0.10018  0.112016  0  1.001256  0
H  H73  1  0.17881577  0.21147854  0.80825377  1  0.087985  0  0.100194  0.112038  0  1.001373  0
H  H74  1  0.32108787  0.21146203  0.30825627  1  0.087434  0  0.100121  0.111988  0  1.001278  0
H  H75  1  0.82121199  0.78848839  0.19172227  1  0.087203  0  0.100329  0.112237  0  1.001081  0
H  H76  1  0.67961325  0.88764803  0.75743188  1  0.104374  0  0.10333  0.119171  0  0.979965  0
H  H77  1  0.17948778  0.11237997  0.74257388  1  0.104813  0  0.103281  0.119054  0  0.980043  0
H  H78  1  0.32039758  0.11236717  0.24257740  1  0.104245  0  0.103317  0.119223  0  0.980035  0
H  H79  1  0.82056985  0.88760124  0.25739411  1  0.104224  0  0.103328  0.119107  0  0.980337  0
H  H80  1  0.51885172  0.55908501  0.86018577  1  0.059263  0  0.104754  0.103259  0  1.030829  0
H  H81  1  0.01882081  0.44091324  0.63978854  1  0.058678  0  0.104877  0.103409  0  1.030863  0
H  H82  1  0.48113123  0.44091397  0.13980447  1  0.05992  0  0.104763  0.1033  0  1.03092  0
H  H83  1  0.98114322  0.55907909  0.36021261  1  0.059618  0  0.104878  0.103378  0  1.030814  0
H  H84  1  0.60287036  0.41091596  0.78766032  1  0.056326  0  0.096516  0.097022  0  1.02094  0
H  H85  1  0.10283327  0.58908495  0.71231790  1  0.056578  0  0.096558  0.097119  0  1.0207  0
H  H86  1  0.39713450  0.58908452  0.21232844  1  0.05638  0  0.096558  0.09702  0  1.020767  0
H  H87  1  0.89712180  0.41090352  0.28767927  1  0.056151  0  0.09653  0.097  0  1.020837  0
H  H88  1  0.72606523  0.33495319  0.69427950  1  0.067633  0  0.095087  0.095121  0  1.021111  0
H  H89  1  0.22604318  0.66507289  0.80570070  1  0.067273  0  0.095102  0.095244  0  1.021058  0
H  H90  1  0.27395655  0.66506628  0.30571171  1  0.067282  0  0.095083  0.095178  0  1.021087  0
H  H91  1  0.77392085  0.33492161  0.19429354  1  0.066995  0  0.095016  0.095072  0  1.021332  0
H  H92  1  0.81237035  0.44706606  0.63526659  1  0.063668  0  0.094047  0.094454  0  1.055039  0
H  H93  1  0.31235893  0.55297136  0.86472000  1  0.063519  0  0.09408  0.094576  0  1.055071  0
H  H94  1  0.18763251  0.55295954  0.36472852  1  0.063385  0  0.094072  0.094555  0  1.054989  0
H  H95  1  0.68762203  0.44702615  0.13527300  1  0.063268  0  0.094076  0.094569  0  1.055077  0
H  H96  1  0.78629515  0.63201998  0.66861506  1  0.081272  0  0.095964  0.101936  0  1.072631  0
H  H97  1  0.28622982  0.36801497  0.83138309  1  0.082794  0  0.095995  0.102012  0  1.072419  0
H  H98  1  0.21370174  0.36800570  0.33138560  1  0.081495  0  0.095872  0.102027  0  1.072465  0
H  H99  1  0.71377304  0.63197948  0.16860817  1  0.082745  0  0.095912  0.102013  0  1.072416  0
C  C100  1  0.47315100  0.71321334  0.42168305  1  0.500432  0  0.059879  0.11137  0  3.917956  0
C  C101  1  0.97306472  0.28680524  0.07833573  1  0.499885  0  0.059779  0.110989  0  3.91796  0
C  C102  1  0.52681502  0.28677137  0.57831567  1  0.498844  0  0.059989  0.111241  0  3.917892  0
C  C103  1  0.02692421  0.71319924  0.92166682  1  0.501045  0  0.059899  0.111174  0  3.917995  0
C  C104  1  0.56806784  0.66878349  0.37855011  1  0.001945  0  -0.078796  -0.120508  0  3.95362  0
C  C105  1  0.06799968  0.33123464  0.12146774  1  0.002945  0  -0.078597  -0.119956  0  3.953278  0
C  C106  1  0.43190914  0.33120053  0.62145319  1  0.004443  0  -0.07867  -0.12022  0  3.953622  0
C  C107  1  0.93198128  0.66876990  0.87853823  1  0.001913  0  -0.078559  -0.120013  0  3.953458  0
C  C108  1  0.58961334  0.56517399  0.36516719  1  -0.068222  0  -0.054359  -0.052127  0  3.892477  0
C  C109  1  0.08958749  0.43484073  0.13484015  1  -0.068759  0  -0.054352  -0.052258  0  3.892729  0
C  C110  1  0.41036762  0.43481092  0.63484432  1  -0.067709  0  -0.054285  -0.052125  0  3.892401  0
C  C111  1  0.91039347  0.56516379  0.86516497  1  -0.0684  0  -0.054402  -0.052451  0  3.892653  0
C  C112  1  0.51700090  0.50626456  0.39528300  1  0.025976  0  0.001959  0.040513  0  4.010609  0
C  C113  1  0.01699122  0.49374440  0.10471854  1  0.026541  0  0.001963  0.040643  0  4.010586  0
C  C114  1  0.48297707  0.49372339  0.60472940  1  0.025971  0  0.001891  0.040397  0  4.010845  0
C  C115  1  0.98299671  0.50625933  0.89528433  1  0.026425  0  0.001941  0.040726  0  4.010424  0
C  C116  1  0.53539648  0.39918200  0.38537448  1  -0.035515  0  -0.073692  -0.096335  0  3.946667  0
C  C117  1  0.03542635  0.60082318  0.11461962  1  -0.035164  0  -0.073599  -0.096055  0  3.946624  0
C  C118  1  0.46458847  0.60080754  0.61464241  1  -0.036342  0  -0.073625  -0.096201  0  3.946581  0
C  C119  1  0.96456357  0.39917978  0.88538228  1  -0.035354  0  -0.073606  -0.096108  0  3.946472  0
C  C120  1  0.46104410  0.34513722  0.41503620  1  0.007918  0  -0.075899  -0.111452  0  3.955046  0
C  C121  1  0.96109547  0.65486491  0.08495135  1  0.014066  0  -0.076033  -0.11209  0  3.955284  0
C  C122  1  0.53893786  0.65485382  0.58497964  1  0.006996  0  -0.076058  -0.111787  0  3.955013  0
C  C123  1  0.03890042  0.34513648  0.91504734  1  0.013849  0  -0.07605  -0.111949  0  3.955167  0
C  C124  1  0.35955312  0.39360457  0.45560461  1  -0.020103  0  0.004294  0.048103  0  4.005555  0
C  C125  1  0.85958087  0.60639956  0.04438654  1  -0.022135  0  0.004398  0.04837  0  4.005544  0
C  C126  1  0.64042585  0.60638947  0.54440913  1  -0.019385  0  0.004377  0.048088  0  4.005511  0
C  C127  1  0.14041702  0.39360106  0.95561118  1  -0.021501  0  0.004446  0.048312  0  4.005546  0
C  C128  1  0.27592367  0.34138086  0.48580420  1  -0.013249  0  -0.054903  -0.054176  0  3.908548  0
C  C129  1  0.77597090  0.65862138  0.01418058  1  -0.01279  0  -0.054951  -0.054415  0  3.90871  0
C  C130  1  0.72405829  0.65861396  0.51421136  1  -0.013473  0  -0.054974  -0.054141  0  3.908213  0
C  C131  1  0.22402798  0.34137999  0.98581640  1  -0.012922  0  -0.054948  -0.054309  0  3.908571  0
C  C132  1  0.17662348  0.39355182  0.52226398  1  0.023547  0  -0.081058  -0.121498  0  3.959115  0
C  C133  1  0.67664100  0.60645285  0.97772861  1  0.022972  0  -0.080979  -0.121338  0  3.959088  0
C  C134  1  0.82336246  0.60644382  0.47775553  1  0.02464  0  -0.081089  -0.121512  0  3.958996  0
C  C135  1  0.32335390  0.39354931  0.02227062  1  0.022927  0  -0.081004  -0.121461  0  3.959038  0
C  C136  1  0.16123964  0.49818355  0.52900279  1  0.501211  0  0.058534  0.110535  0  3.928778  0
C  C137  1  0.66120794  0.50182612  0.97100152  1  0.501279  0  0.058638  0.110531  0  3.928833  0
C  C138  1  0.83874730  0.50181133  0.47101618  1  0.501418  0  0.058522  0.110748  0  3.927739  0
C  C139  1  0.33878298  0.49817682  0.02899953  1  0.501119  0  0.058554  0.110455  0  3.928581  0
C  C140  1  0.33801286  0.49956415  0.46600875  1  0.500446  0  0.117818  0.117657  0  3.97679  0
C  C141  1  0.83799678  0.50044490  0.03399229  1  0.500784  0  0.117734  0.117629  0  3.976674  0
C  C142  1  0.66196512  0.50043063  0.53400383  1  0.501349  0  0.117975  0.117822  0  3.97646  0
C  C143  1  0.16199712  0.49955650  0.96600725  1  0.500552  0  0.117786  0.117767  0  3.976732  0
C  C144  1  0.42067943  0.55719116  0.43686223  1  0.469646  0  0.11859  0.116579  0  4.00606  0
C  C145  1  0.92064868  0.44281885  0.06314210  1  0.469857  0  0.118543  0.116368  0  4.005961  0
C  C146  1  0.57928958  0.44279899  0.56314496  1  0.468995  0  0.118433  0.116468  0  4.006172  0
C  C147  1  0.07934224  0.55718333  0.93685883  1  0.46985  0  0.118462  0.116258  0  4.006152  0
C  C148  1  0.13520326  0.76051871  0.61133477  1  1.476807  0  0.192226  0.556355  0  4.203118  0
C  C149  1  0.63513063  0.23951707  0.88866542  1  1.478022  0  0.192454  0.556955  0  4.202373  0
C  C150  1  0.86482450  0.23950188  0.38868000  1  1.479018  0  0.192112  0.556152  0  4.202901  0
C  C151  1  0.36488120  0.76047284  0.11132643  1  1.477555  0  0.192359  0.556859  0  4.202456  0
C  C152  1  0.07279834  0.78921544  0.67078704  1  -0.094162  0  -0.041325  -0.172597  0  4.034376  0
C  C153  1  0.57269353  0.21084106  0.82921553  1  -0.096352  0  -0.041329  -0.172201  0  4.034484  0
C  C154  1  0.92721947  0.21080663  0.32922498  1  -0.096955  0  -0.041254  -0.172413  0  4.034271  0
C  C155  1  0.42732826  0.78915641  0.17077448  1  -0.095661  0  -0.041284  -0.17207  0  4.034476  0
C  C156  1  0.93049289  0.78635680  0.67720847  1  0.491579  0  0.081417  0.23915  0  4.051135  0
C  C157  1  0.43038813  0.21369472  0.82279400  1  0.492625  0  0.081363  0.238834  0  4.051591  0
C  C158  1  0.06952292  0.21366293  0.32279979  1  0.491948  0  0.081224  0.238757  0  4.051156  0
C  C159  1  0.56963664  0.78630645  0.17719019  1  0.493121  0  0.081352  0.238834  0  4.051044  0
C  C160  1  0.86954392  0.81608475  0.73260511  1  0.029221  0  -0.023519  -0.049708  0  3.901754  0
C  C161  1  0.36942181  0.18395731  0.76739724  1  0.026935  0  -0.023321  -0.049272  0  3.901711  0
C  C162  1  0.13046591  0.18393193  0.26740185  1  0.028546  0  -0.02355  -0.049727  0  3.901862  0
C  C163  1  0.63061292  0.81604534  0.23258462  1  0.026236  0  -0.023211  -0.048812  0  3.901107  0
C  C164  1  0.95127687  0.85583394  0.78310851  1  -0.014486  0  -0.003999  0.046899  0  3.965318  0
C  C165  1  0.45113716  0.14420209  0.71689400  1  -0.015732  0  -0.003879  0.047077  0  3.965255  0
C  C166  1  0.04872898  0.14418050  0.21690023  1  -0.014749  0  -0.003966  0.047113  0  3.965645  0
C  C167  1  0.54890354  0.85580212  0.28309022  1  -0.015735  0  -0.00398  0.04671  0  3.965022  0
C  C168  1  0.89667035  0.89948855  0.84020466  1  0.007332  0  -0.099755  -0.145413  0  3.980957  0
C  C169  1  0.39651426  0.10052749  0.65979879  1  0.007605  0  -0.099712  -0.145989  0  3.981409  0
C  C170  1  0.10332953  0.10051526  0.15980375  1  0.007931  0  -0.09971  -0.145476  0  3.981073  0
C  C171  1  0.60354337  0.89947515  0.34018222  1  0.007115  0  -0.09992  -0.145914  0  3.981526  0
C  C172  1  0.97807908  0.93948415  0.88818553  1  -0.087408  0  -0.09635  -0.081616  0  4.039017  0
C  C173  1  0.47791152  0.06049859  0.61182249  1  -0.086631  0  -0.096532  -0.081578  0  4.038703  0
C  C174  1  0.02191483  0.06051666  0.11182498  1  -0.087802  0  -0.096405  -0.081668  0  4.038609  0
C  C175  1  0.52216006  0.93950184  0.38816286  1  -0.087509  0  -0.096604  -0.081721  0  4.038577  0
C  C176  1  0.11855949  0.93635731  0.88245979  1  -0.089205  0  -0.105703  -0.108422  0  4.056637  0
C  C177  1  0.61838626  0.06361657  0.61755101  1  -0.085834  0  -0.105974  -0.108473  0  4.057387  0
C  C178  1  0.88143342  0.06365341  0.11755392  1  -0.089688  0  -0.105595  -0.108076  0  4.056593  0
C  C179  1  0.38168332  0.93638776  0.38244089  1  -0.08563  0  -0.105818  -0.107875  0  4.05698  0
C  C180  1  0.17505759  0.89513753  0.82786384  1  -0.066978  0  -0.088686  -0.119238  0  3.978514  0
C  C181  1  0.67489775  0.10487096  0.67214472  1  -0.058588  0  -0.088575  -0.11914  0  3.978671  0
C  C182  1  0.82494229  0.10488078  0.17215059  1  -0.066638  0  -0.088593  -0.119106  0  3.978774  0
C  C183  1  0.32515490  0.89513493  0.32785039  1  -0.057997  0  -0.088841  -0.120139  0  3.979458  0
C  C184  1  0.09424971  0.85613433  0.77720731  1  -0.005739  0  -0.01574  0.054616  0  4.026235  0
C  C185  1  0.59410460  0.14390602  0.72279644  1  -0.006199  0  -0.015885  0.054399  0  4.026119  0
C  C186  1  0.90575913  0.14388469  0.22280426  1  -0.006053  0  -0.015766  0.054311  0  4.026515  0
C  C187  1  0.40593412  0.85610132  0.27719463  1  -0.005653  0  -0.015618  0.05503  0  4.025681  0
C  C188  1  0.15161555  0.82158039  0.72060335  1  0.032384  0  -0.0776  -0.11499  0  3.970312  0
C  C189  1  0.65149105  0.17847196  0.77939853  1  0.034076  0  -0.077528  -0.115169  0  3.971315  0
C  C190  1  0.84839927  0.17843942  0.27941003  1  0.032926  0  -0.07745  -0.114686  0  3.970456  0
C  C191  1  0.34853970  0.82152707  0.22059384  1  0.034206  0  -0.077597  -0.115278  0  3.971468  0
C  C192  1  0.71866807  0.81117724  0.73694976  1  -0.049185  0  -0.156074  -0.203806  0  3.943302  0
C  C193  1  0.21854872  0.18885503  0.76305217  1  -0.050544  0  -0.156157  -0.203821  0  3.943347  0
C  C194  1  0.28134177  0.18883864  0.26305452  1  -0.049086  0  -0.156003  -0.203904  0  3.94332  0
C  C195  1  0.78148800  0.81112936  0.23692481  1  -0.049847  0  -0.156373  -0.204445  0  3.943642  0
C  C196  1  0.66352462  0.73952355  0.77069391  1  -0.003218  0  -0.025536  -0.056809  0  3.904686  0
C  C197  1  0.16342311  0.26049843  0.72930322  1  -0.004096  0  -0.025515  -0.057384  0  3.905011  0
C  C198  1  0.33647626  0.26048849  0.22930724  1  -0.002068  0  -0.025536  -0.05688  0  3.904911  0
C  C199  1  0.83659270  0.73948988  0.27068243  1  -0.003779  0  -0.025505  -0.057165  0  3.904836  0
C  C200  1  0.58714206  0.77788558  0.82158623  1  0.470982  0  0.080314  0.234421  0  4.061404  0
C  C201  1  0.08705655  0.22212634  0.67840294  1  0.469835  0  0.080302  0.234888  0  4.061076  0
C  C202  1  0.41284886  0.22212112  0.17841241  1  0.470011  0  0.080276  0.234512  0  4.061074  0
C  C203  1  0.91295926  0.77786123  0.32158387  1  0.470308  0  0.08028  0.234744  0  4.061145  0
C  C204  1  0.53370807  0.71200613  0.85435606  1  -0.079743  0  -0.04251  -0.18776  0  4.038716  0
C  C205  1  0.03364612  0.28799871  0.64562531  1  -0.108984  0  -0.042567  -0.188071  0  4.039053  0
C  C206  1  0.46627289  0.28799519  0.14563794  1  -0.078731  0  -0.042383  -0.187518  0  4.03851  0
C  C207  1  0.96634181  0.71199048  0.35436855  1  -0.108588  0  -0.042596  -0.188052  0  4.038859  0
C  C208  1  0.44949582  0.75181318  0.90771026  1  1.510558  0  0.214255  0.590941  0  4.156851  0
C  C209  1  0.94942285  0.24818436  0.59226908  1  1.541979  0  0.21418  0.591015  0  4.156517  0
C  C210  1  0.55047916  0.24818279  0.09228080  1  1.509222  0  0.21419  0.590722  0  4.156873  0
C  C211  1  0.05056010  0.75180484  0.40772607  1  1.540543  0  0.21419  0.590977  0  4.156417  0
C  C212  1  0.55775769  0.60870533  0.83488101  1  0.077347  0  -0.082817  -0.124365  0  4.020499  0
C  C213  1  0.05771393  0.39130034  0.66509845  1  0.077272  0  -0.083051  -0.124585  0  4.02097  0
C  C214  1  0.44222725  0.39129596  0.16511086  1  0.07555  0  -0.082929  -0.124683  0  4.020886  0
C  C215  1  0.94225807  0.60869119  0.33490002  1  0.075387  0  -0.083009  -0.124387  0  4.020474  0
C  C216  1  0.62825570  0.56595381  0.78253136  1  -0.05431  0  -0.020906  0.048288  0  4.03916  0
C  C217  1  0.12821128  0.43405962  0.71745388  1  -0.055174  0  -0.020852  0.048218  0  4.039567  0
C  C218  1  0.37173821  0.43405282  0.21746259  1  -0.053757  0  -0.020922  0.048315  0  4.039458  0
C  C219  1  0.87176072  0.56593267  0.28254428  1  -0.054112  0  -0.020826  0.048176  0  4.039597  0
C  C220  1  0.64580641  0.45895486  0.76199440  1  -0.077122  0  -0.094407  -0.132889  0  3.997222  0
C  C221  1  0.14577547  0.54105779  0.73798943  1  -0.07672  0  -0.094234  -0.132741  0  3.996993  0
C  C222  1  0.35419148  0.54105249  0.23799753  1  -0.077496  0  -0.094412  -0.132836  0  3.997266  0
C  C223  1  0.85418458  0.45893450  0.26200916  1  -0.077602  0  -0.094296  -0.132641  0  3.997138  0
C  C224  1  0.71335788  0.41700156  0.71029544  1  -0.049152  0  -0.102311  -0.092333  0  4.031764  0
C  C225  1  0.21333201  0.58302142  0.78968960  1  -0.05047  0  -0.102457  -0.092635  0  4.031887  0
C  C226  1  0.28664897  0.58301489  0.28969659  1  -0.04898  0  -0.102294  -0.092324  0  4.032016  0
C  C227  1  0.78663201  0.41697312  0.21030763  1  -0.048839  0  -0.102332  -0.092501  0  4.032254  0
C  C228  1  0.76344884  0.48142680  0.67718470  1  -0.052407  0  -0.09903  -0.078216  0  4.019423  0
C  C229  1  0.26341542  0.51860431  0.82280548  1  -0.051813  0  -0.098869  -0.078152  0  4.020174  0
C  C230  1  0.23655204  0.51859578  0.32281081  1  -0.052131  0  -0.098961  -0.078232  0  4.019688  0
C  C231  1  0.73655757  0.48139021  0.17718962  1  -0.05252  0  -0.098954  -0.078119  0  4.020093  0
C  C232  1  0.74915322  0.58552897  0.69617448  1  -0.045031  0  -0.102305  -0.146696  0  3.97096  0
C  C233  1  0.24908595  0.41450038  0.80382251  1  -0.045653  0  -0.102682  -0.147282  0  3.971386  0
C  C234  1  0.25084666  0.41449213  0.30382378  1  -0.044776  0  -0.102397  -0.147194  0  3.97133  0
C  C235  1  0.75089899  0.58549260  0.19617150  1  -0.045151  0  -0.10244  -0.147161  0  3.971292  0
C  C236  1  0.68172752  0.63213370  0.74977630  1  0.03326  0  -0.004763  0.050392  0  3.963191  0
C  C237  1  0.18165059  0.36788836  0.75021909  1  0.034853  0  -0.004579  0.05103  0  3.962787  0
C  C238  1  0.31826937  0.36787906  0.25022198  1  0.032799  0  -0.004674  0.050708  0  3.963017  0
C  C239  1  0.81833833  0.63210160  0.24977531  1  0.034747  0  -0.004688  0.050809  0  3.962889  0
N  N240  1  0.40050113  0.65888425  0.44970243  1  -1.249077  0  -0.320068  -0.271868  0  3.540926  0
N  N241  1  0.90043220  0.34112856  0.05030971  1  -1.249999  0  -0.32014  -0.271672  0  3.540824  0
N  N242  1  0.59946390  0.34110504  0.55029826  1  -1.249661  0  -0.320047  -0.271738  0  3.540774  0
N  N243  1  0.09955972  0.65887361  0.94969080  1  -1.250223  0  -0.320091  -0.271645  0  3.540972  0
N  N244  1  0.24001811  0.54976285  0.50184378  1  -1.252206  0  -0.318539  -0.264049  0  3.550043  0
N  N245  1  0.73997449  0.45024879  0.99816375  1  -1.252342  0  -0.318572  -0.264122  0  3.550128  0
N  N246  1  0.75996185  0.45023197  0.49817093  1  -1.252876  0  -0.318513  -0.264253  0  3.549613  0
N  N247  1  0.26001742  0.54975338  0.00183633  1  -1.252115  0  -0.318603  -0.264213  0  3.549987  0
O  O248  1  0.25969195  0.76616627  0.60394052  1  -1.161468  0  -0.317776  -0.545556  0  2.186272  0
O  O249  1  0.75961497  0.23383788  0.89605428  1  -1.160321  0  -0.317863  -0.545949  0  2.186005  0
O  O250  1  0.74033582  0.23384755  0.39607748  1  -1.161068  0  -0.317694  -0.54544  0  2.186198  0
O  O251  1  0.24039387  0.76614225  0.10394205  1  -1.160118  0  -0.317728  -0.545747  0  2.185871  0
O  O252  1  0.05802107  0.72932650  0.56546768  1  -1.170051  0  -0.325666  -0.562303  0  2.271172  0
O  O253  1  0.55797137  0.27071596  0.93453562  1  -1.170356  0  -0.325804  -0.56268  0  2.271022  0
O  O254  1  0.94200969  0.27069404  0.43454325  1  -1.169987  0  -0.325709  -0.56232  0  2.270915  0
O  O255  1  0.44203348  0.72928074  0.06545386  1  -1.170601  0  -0.325821  -0.56277  0  2.271226  0
O  O256  1  0.85343655  0.75364727  0.62844851  1  -1.164502  0  -0.357662  -0.460992  0  2.385396  0
O  O257  1  0.35335397  0.24639655  0.87155787  1  -1.165702  0  -0.357841  -0.461133  0  2.385178  0
O  O258  1  0.14658822  0.24637092  0.37155782  1  -1.165075  0  -0.357664  -0.460891  0  2.385336  0
O  O259  1  0.64666383  0.75360079  0.12842404  1  -1.166266  0  -0.357865  -0.461262  0  2.385049  0
O  O260  1  0.56313224  0.87933273  0.84076158  1  -1.172177  0  -0.359618  -0.457139  0  2.319222  0
O  O261  1  0.06304852  0.12067526  0.65922477  1  -1.170771  0  -0.359777  -0.457271  0  2.3187  0
O  O262  1  0.43685668  0.12067171  0.15923799  1  -1.171887  0  -0.35963  -0.457125  0  2.319079  0
O  O263  1  0.93699717  0.87930988  0.34075189  1  -1.171477  0  -0.359695  -0.457106  0  2.318562  0
O  O264  1  0.42864964  0.84821241  0.92576199  1  -1.167514  0  -0.312977  -0.545466  0  2.178006  0
O  O265  1  0.92856175  0.15178397  0.57422033  1  -1.167696  0  -0.313135  -0.545626  0  2.17823  0
O  O266  1  0.57131937  0.15178355  0.07422907  1  -1.167569  0  -0.312846  -0.545176  0  2.178062  0
O  O267  1  0.07144509  0.84820287  0.42576893  1  -1.16726  0  -0.312965  -0.545444  0  2.178082  0
O  O268  1  0.40137577  0.68739422  0.93270529  1  -1.194117  0  -0.316617  -0.540295  0  2.356337  0
O  O269  1  0.90130107  0.31259935  0.56727540  1  -1.19552  0  -0.316442  -0.540175  0  2.356078  0
O  O270  1  0.59859921  0.31260097  0.06728438  1  -1.192962  0  -0.316722  -0.540362  0  2.35629  0
O  O271  1  0.09865300  0.68739075  0.43272881  1  -1.19435  0  -0.316484  -0.540149  0  2.355949  0
O  O272  1  0.25374323  0.86344453  0.50642361  1  -1.225156  0  -0.56488  -0.736602  0  2.101766  0
O  O273  1  0.75362271  0.13656736  0.99358286  1  -1.225949  0  -0.565003  -0.736884  0  2.101537  0
O  O274  1  0.74624868  0.13654094  0.49357480  1  -1.226206  0  -0.564907  -0.73671  0  2.101476  0
O  O275  1  0.24637220  0.86343408  0.00641881  1  -1.225919  0  -0.564975  -0.736787  0  2.10163  0
