# generated using pymatgen
data_Cu2H15C24I2(NO2)3
_symmetry_space_group_name_H-M   'P 1'
_cell_length_a   7.81373383
_cell_length_b   17.80390566
_cell_length_c   29.44340280
_cell_angle_alpha   95.19543011
_cell_angle_beta   89.99983410
_cell_angle_gamma   90.00025187
_symmetry_Int_Tables_number   1
_chemical_formula_structural   Cu2H15C24I2(NO2)3
_chemical_formula_sum   'Cu8 H60 C96 I8 N12 O24'
_cell_volume   4079.19040896
_cell_formula_units_Z   4
loop_
 _symmetry_equiv_pos_site_id
 _symmetry_equiv_pos_as_xyz
  1  'x, y, z'
loop_
 _atom_site_type_symbol
 _atom_site_label
 _atom_site_symmetry_multiplicity
 _atom_site_fract_x
 _atom_site_fract_y
 _atom_site_fract_z
 _atom_site_occupancy
 _atom_site_pbe_bader_charge
 _atom_site_pbe_bader_spin_density
 _atom_site_pbe_cm5_charge
 _atom_site_pbe_ddec_charge
 _atom_site_pbe_ddec_spin_density
 _atom_site_pbe_ddec_sum_bond_order
 _atom_site_pbe_magmom
Cu  Cu0  1  0.19029661  0.23319116  0.51481010  1  0.537234  0  0.377472  0.202088  0  2.710496  0
Cu  Cu1  1  0.19029051  0.76680752  0.48519023  1  0.537291  0  0.377451  0.20209  0  2.710515  0
Cu  Cu2  1  0.30216324  0.34777974  0.47933823  1  0.407274  0  0.277271  0.189243  0  2.5787  0
Cu  Cu3  1  0.30216583  0.65221914  0.52066203  1  0.407278  0  0.27725  0.189209  0  2.578771  0
Cu  Cu4  1  0.76725139  0.72980732  0.01358788  1  0.541366  0  0.378979  0.202985  0  2.704497  0
Cu  Cu5  1  0.76725525  0.27019184  0.98641204  1  0.541376  0  0.37896  0.202899  0  2.704516  0
Cu  Cu6  1  0.87506581  0.84459156  0.97817656  1  0.404649  0  0.276697  0.188143  0  2.596729  0
Cu  Cu7  1  0.87506886  0.15540893  0.02182505  1  0.404569  0  0.27671  0.188182  0  2.596737  0
H  H8  1  0.19474840  0.16535228  0.80086957  1  0.117367  0  0.122032  0.160337  0  0.969315  0
H  H9  1  0.19475252  0.83465147  0.19912933  1  0.117373  0  0.122046  0.160332  0  0.969228  0
H  H10  1  0.32170043  0.28971782  0.92852089  1  0.121407  0  0.110844  0.145349  0  1.015531  0
H  H11  1  0.32170470  0.71027940  0.07147927  1  0.121439  0  0.11081  0.145353  0  1.015473  0
H  H12  1  0.43303763  0.38481785  0.80145788  1  0.119222  0  0.123409  0.159862  0  0.959595  0
H  H13  1  0.43303954  0.61518579  0.19854458  1  0.119216  0  0.123433  0.159859  0  0.959651  0
H  H14  1  0.14563501  0.32028248  0.68439954  1  0.132383  0  0.117378  0.13445  0  0.988861  0
H  H15  1  0.14563373  0.67972456  0.31559924  1  0.132605  0  0.117388  0.134443  0  0.988892  0
H  H16  1  0.08709498  0.32492376  0.60143395  1  0.115902  0  0.10397  0.085199  0  1.047093  0
H  H17  1  0.08708890  0.67508036  0.39856505  1  0.116016  0  0.103995  0.085247  0  1.047118  0
H  H18  1  0.38503115  0.13472965  0.56743619  1  0.11723  0  0.11147  0.087926  0  1.011699  0
H  H19  1  0.38503046  0.86527108  0.43256513  1  0.117155  0  0.111436  0.087855  0  1.011715  0
H  H20  1  0.44410097  0.11846061  0.64914610  1  0.1306  0  0.114453  0.126406  0  0.996783  0
H  H21  1  0.44410646  0.88154192  0.35085594  1  0.13033  0  0.114393  0.126336  0  0.996855  0
H  H22  1  0.39379110  0.97313432  0.91946180  1  0.11008  0  0.112233  0.123922  0  0.999768  0
H  H23  1  0.39378454  0.02686135  0.08053924  1  0.110216  0  0.112249  0.123931  0  0.999806  0
H  H24  1  0.22597691  0.87195366  0.95321525  1  0.121565  0  0.091808  0.082116  0  1.059853  0
H  H25  1  0.22597302  0.12804453  0.04678741  1  0.121198  0  0.0918  0.082125  0  1.059814  0
H  H26  1  0.77566482  0.99553822  0.95023258  1  0.124451  0  0.105309  0.080033  0  1.026505  0
H  H27  1  0.77565965  0.00446039  0.04976765  1  0.124397  0  0.1053  0.080024  0  1.026458  0
H  H28  1  0.92417208  0.10106439  0.91612808  1  0.127761  0  0.107843  0.115185  0  1.03293  0
H  H29  1  0.92416788  0.89893222  0.08386955  1  0.128415  0  0.107836  0.115179  0  1.032953  0
H  H30  1  0.24501235  0.57797644  0.96590046  1  0.082755  0  0.10299  0.119823  0  1.021659  0
H  H31  1  0.24501669  0.42202235  0.03410188  1  0.082809  0  0.102974  0.119844  0  1.021734  0
H  H32  1  0.41462086  0.68682537  0.00097166  1  0.091291  0  0.092959  0.075991  0  1.066727  0
H  H33  1  0.41462117  0.31317371  0.99902819  1  0.098257  0  0.092942  0.075931  0  1.066749  0
H  H34  1  0.87328314  0.58696581  0.95831616  1  0.126105  0  0.105624  0.084875  0  1.021534  0
H  H35  1  0.87329113  0.41302904  0.04168617  1  0.125976  0  0.105602  0.08482  0  1.021474  0
H  H36  1  0.72221928  0.47491199  0.91939700  1  0.11158  0  0.112304  0.121187  0  1.009643  0
H  H37  1  0.72222030  0.52507978  0.08060766  1  0.11198  0  0.112347  0.121213  0  1.009725  0
H  H38  1  0.90410704  0.88269108  0.30405708  1  0.138516  0  0.123605  0.159765  0  0.959242  0
H  H39  1  0.90410358  0.11730775  0.69594068  1  0.138529  0  0.123645  0.159825  0  0.959217  0
H  H40  1  0.66807155  0.66232982  0.29865154  1  0.121669  0  0.121477  0.15845  0  0.968681  0
H  H41  1  0.66808178  0.33767028  0.70134613  1  0.121656  0  0.121468  0.158474  0  0.968628  0
H  H42  1  0.75309101  0.78824378  0.42853953  1  0.124634  0  0.110758  0.145308  0  1.016517  0
H  H43  1  0.75309627  0.21175478  0.57145901  1  0.12456  0  0.110794  0.145314  0  1.016523  0
H  H44  1  0.67422992  0.07801007  0.46443439  1  0.114058  0  0.103871  0.119903  0  1.018253  0
H  H45  1  0.67422355  0.92199453  0.53556216  1  0.114  0  0.103879  0.119921  0  1.018179  0
H  H46  1  0.83762720  0.18858823  0.49966264  1  0.113388  0  0.092477  0.075964  0  1.068959  0
H  H47  1  0.83762010  0.81141162  0.50033828  1  0.113443  0  0.092468  0.075996  0  1.068947  0
H  H48  1  0.30289152  0.09035726  0.46153788  1  0.08392  0  0.104057  0.083231  0  1.024873  0
H  H49  1  0.30288499  0.90964106  0.53846269  1  0.084046  0  0.104051  0.083208  0  1.024884  0
H  H50  1  0.15864379  0.97624704  0.42298132  1  0.089397  0  0.112892  0.121878  0  1.007449  0
H  H51  1  0.15864070  0.02375607  0.57701520  1  0.089818  0  0.112847  0.121803  0  1.007509  0
H  H52  1  0.67248829  0.81791606  0.18076535  1  0.126106  0  0.117898  0.133469  0  0.986472  0
H  H53  1  0.67248797  0.18208462  0.81923507  1  0.126128  0  0.117898  0.133475  0  0.986523  0
H  H54  1  0.64566549  0.82254624  0.09690898  1  0.139284  0  0.101581  0.084153  0  1.055496  0
H  H55  1  0.64567316  0.17745382  0.90309109  1  0.139309  0  0.101596  0.084168  0  1.055559  0
H  H56  1  0.95684754  0.63430834  0.07074409  1  0.125054  0  0.112182  0.089934  0  1.013663  0
H  H57  1  0.95685426  0.36568890  0.92925390  1  0.125062  0  0.112167  0.089917  0  1.013631  0
H  H58  1  0.98722428  0.61872955  0.15367254  1  0.124932  0  0.115087  0.125769  0  0.992647  0
H  H59  1  0.98722568  0.38127001  0.84632656  1  0.124909  0  0.115063  0.125769  0  0.992639  0
H  H60  1  0.82710144  0.47121423  0.42071720  1  0.111269  0  0.111371  0.123611  0  1.001767  0
H  H61  1  0.82710598  0.52878447  0.57928198  1  0.111228  0  0.111357  0.123558  0  1.001783  0
H  H62  1  0.65460959  0.37307479  0.45576204  1  0.121657  0  0.091082  0.081482  0  1.062541  0
H  H63  1  0.65461807  0.62692472  0.54423697  1  0.121639  0  0.091117  0.081545  0  1.062458  0
H  H64  1  0.20761014  0.49773301  0.44801364  1  0.111647  0  0.105683  0.080532  0  1.027018  0
H  H65  1  0.20761343  0.50226683  0.55198709  1  0.111696  0  0.105673  0.080498  0  1.02701  0
H  H66  1  0.36132482  0.60050187  0.41260908  1  0.108268  0  0.108097  0.11556  0  1.033764  0
H  H67  1  0.36133052  0.39949937  0.58739126  1  0.108177  0  0.10809  0.11556  0  1.033876  0
C  C68  1  0.31429361  0.27446825  0.79617518  1  0.397587  0  0.089294  0.306792  0  4.044239  0
C  C69  1  0.31429914  0.72553799  0.20382648  1  0.396932  0  0.08931  0.306793  0  4.0442  0
C  C70  1  0.24845271  0.21567454  0.81904036  1  -0.015107  0  -0.102778  -0.314625  0  3.966393  0
C  C71  1  0.24845652  0.78432591  0.18095663  1  -0.014412  0  -0.102832  -0.314641  0  3.966445  0
C  C72  1  0.25301241  0.22325164  0.86644950  1  0.493822  0  0.087656  0.304503  0  4.047195  0
C  C73  1  0.25302306  0.77674715  0.13355011  1  0.493761  0  0.087662  0.304443  0  4.047277  0
C  C74  1  0.32118742  0.28616226  0.89143463  1  0.033092  0  -0.099358  -0.298432  0  3.944637  0
C  C75  1  0.32118748  0.71383271  0.10856643  1  0.032748  0  -0.099369  -0.298519  0  3.944691  0
C  C76  1  0.38578436  0.34338911  0.86709804  1  0.418531  0  0.085802  0.299219  0  4.051442  0
C  C77  1  0.38579253  0.65660995  0.13290556  1  0.418865  0  0.085755  0.299298  0  4.051496  0
C  C78  1  0.38310470  0.33902744  0.81969576  1  0.059879  0  -0.101578  -0.307279  0  3.940118  0
C  C79  1  0.38310600  0.66097442  0.18030629  1  0.059857  0  -0.101534  -0.307217  0  3.940146  0
C  C80  1  0.34215105  0.20924702  0.72156759  1  1.4739  0  0.237465  0.506906  0  4.094574  0
C  C81  1  0.34215514  0.79075870  0.27843267  1  1.473211  0  0.237387  0.506849  0  4.094345  0
C  C82  1  0.27015711  0.10147579  0.89167671  1  1.483767  0  0.241332  0.520899  0  4.076871  0
C  C83  1  0.27014367  0.89852360  0.10832530  1  1.484123  0  0.241353  0.520892  0  4.076888  0
C  C84  1  0.36595034  0.45559436  0.91698327  1  1.449934  0  0.241288  0.518401  0  4.088767  0
C  C85  1  0.36595537  0.54440409  0.08301998  1  1.450013  0  0.24103  0.518014  0  4.088978  0
C  C86  1  0.30063984  0.21852751  0.67331031  1  -0.067767  0  -0.008502  -0.021943  0  4.018815  0
C  C87  1  0.30063691  0.78147644  0.32668954  1  -0.067832  0  -0.008479  -0.02197  0  4.018862  0
C  C88  1  0.20048707  0.27781088  0.65966489  1  0.027865  0  -0.07394  -0.128799  0  3.919494  0
C  C89  1  0.20048595  0.72219514  0.34033515  1  0.027725  0  -0.073907  -0.128677  0  3.919737  0
C  C90  1  0.16776035  0.28077129  0.61344668  1  0.462384  0  0.037835  0.080867  0  3.916163  0
C  C91  1  0.16775485  0.71923353  0.38655196  1  0.462306  0  0.037774  0.080773  0  3.916118  0
C  C92  1  0.33016499  0.17334517  0.59442321  1  0.478743  0  0.037157  0.08184  0  3.917854  0
C  C93  1  0.33016548  0.82665714  0.40557721  1  0.47872  0  0.037253  0.081968  0  3.917905  0
C  C94  1  0.36445304  0.16485407  0.63985677  1  -0.032965  0  -0.073392  -0.126516  0  3.942135  0
C  C95  1  0.36445540  0.83514830  0.36014363  1  -0.032747  0  -0.073397  -0.126477  0  3.942058  0
C  C96  1  0.17111186  0.04435858  0.91432089  1  0.037158  0  -0.000128  -0.000702  0  3.982859  0
C  C97  1  0.17110309  0.95563779  0.08567697  1  0.037185  0  -0.000158  -0.00064  0  3.982703  0
C  C98  1  0.25684633  0.97956703  0.92546994  1  0.009265  0  -0.070545  -0.120298  0  3.926033  0
C  C99  1  0.25684105  0.02043233  0.07453072  1  0.009396  0  -0.070489  -0.120238  0  3.926149  0
C  C100  1  0.16444198  0.92364885  0.94433375  1  0.440003  0  0.039443  0.094755  0  3.889167  0
C  C101  1  0.16443875  0.07635036  0.05566969  1  0.440305  0  0.039436  0.094744  0  3.889261  0
C  C102  1  0.91213865  0.99230472  0.94233189  1  0.449889  0  0.042504  0.089158  0  3.9116  0
C  C103  1  0.91213343  0.00769528  0.05766933  1  0.450458  0  0.042511  0.089162  0  3.911615  0
C  C104  1  0.99566514  0.05122058  0.92361037  1  -0.064461  0  -0.07651  -0.133444  0  3.937353  0
C  C105  1  0.99565512  0.94877786  0.07638867  1  -0.065209  0  -0.076509  -0.133474  0  3.937262  0
C  C106  1  0.47015168  0.51771054  0.93957807  1  -0.043767  0  -0.005214  -0.015951  0  4.004718  0
C  C107  1  0.47015633  0.48228528  0.06042565  1  -0.043883  0  -0.005179  -0.01577  0  4.0046  0
C  C108  1  0.38405217  0.57768670  0.96360114  1  0.05224  0  -0.076682  -0.121906  0  3.936928  0
C  C109  1  0.38405520  0.42231009  0.03640065  1  0.052642  0  -0.076678  -0.122093  0  3.937075  0
C  C110  1  0.47804711  0.63776266  0.98366717  1  0.481166  0  0.03167  0.081305  0  3.914582  0
C  C111  1  0.47805232  0.36223710  0.01633300  1  0.474174  0  0.031758  0.08156  0  3.914453  0
C  C112  1  0.73408845  0.58218941  0.95927718  1  0.413773  0  0.039828  0.084009  0  3.914601  0
C  C113  1  0.73409011  0.41780913  0.04072410  1  0.413973  0  0.039881  0.084155  0  3.914419  0
C  C114  1  0.64941811  0.52026678  0.93762043  1  0.033529  0  -0.074824  -0.129134  0  3.932981  0
C  C115  1  0.64941887  0.47972882  0.06238517  1  0.033028  0  -0.074901  -0.129287  0  3.933069  0
C  C116  1  0.83625543  0.84170723  0.36861137  1  0.35626  0  0.08582  0.298882  0  4.047363  0
C  C117  1  0.83625438  0.15829430  0.63138659  1  0.355844  0  0.085765  0.298777  0  4.047693  0
C  C118  1  0.84852637  0.83694919  0.32129695  1  0.068984  0  -0.099861  -0.302356  0  3.937902  0
C  C119  1  0.84852868  0.16304953  0.67869983  1  0.069115  0  -0.099854  -0.302334  0  3.9382  0
C  C120  1  0.78790855  0.77194088  0.29653042  1  0.432611  0  0.08784  0.30289  0  4.048951  0
C  C121  1  0.78791509  0.22805775  0.70346844  1  0.432726  0  0.087843  0.302817  0  4.049059  0
C  C122  1  0.71539095  0.71296351  0.31795473  1  0.041016  0  -0.101243  -0.310812  0  3.96424  0
C  C123  1  0.71539576  0.28703724  0.68204396  1  0.041097  0  -0.101212  -0.310782  0  3.964016  0
C  C124  1  0.70464554  0.72091194  0.36533244  1  0.379703  0  0.08744  0.301918  0  4.046261  0
C  C125  1  0.70464823  0.27908597  0.63466679  1  0.380183  0  0.087433  0.30188  0  4.046332  0
C  C126  1  0.76448523  0.78435234  0.39156672  1  0.081568  0  -0.098185  -0.296068  0  3.94249  0
C  C127  1  0.76449525  0.21564906  0.60843094  1  0.0818  0  -0.098314  -0.296073  0  3.942653  0
C  C128  1  0.80406113  0.95454815  0.41789962  1  1.48003  0  0.241497  0.517433  0  4.087645  0
C  C129  1  0.80406204  0.04545501  0.58209777  1  1.480004  0  0.241535  0.517573  0  4.087797  0
C  C130  1  0.85415993  0.70834580  0.22322140  1  1.457092  0  0.238077  0.507987  0  4.090502  0
C  C131  1  0.85415735  0.29165520  0.77677753  1  1.456715  0  0.238083  0.508033  0  4.090532  0
C  C132  1  0.70990988  0.59829026  0.38990116  1  1.477962  0  0.241639  0.52168  0  4.075945  0
C  C133  1  0.70990896  0.40170934  0.61009747  1  1.477573  0  0.241711  0.52175  0  4.075858  0
C  C134  1  0.90358361  0.01807190  0.44069822  1  -0.027038  0  -0.005282  -0.015092  0  4.003857  0
C  C135  1  0.90357758  0.98193144  0.55929911  1  -0.027231  0  -0.005349  -0.015197  0  4.004018  0
C  C136  1  0.81352057  0.07830190  0.46328029  1  -0.070244  0  -0.076748  -0.12358  0  3.935103  0
C  C137  1  0.81351802  0.92169958  0.53671700  1  -0.070211  0  -0.07672  -0.123499  0  3.935064  0
C  C138  1  0.90404727  0.13945615  0.48339346  1  0.553307  0  0.032668  0.082552  0  3.913014  0
C  C139  1  0.90404305  0.86054438  0.51660576  1  0.553184  0  0.032692  0.082489  0  3.912948  0
C  C140  1  0.16372755  0.08472462  0.46161333  1  0.456649  0  0.038551  0.083795  0  3.91634  0
C  C141  1  0.16372364  0.91527514  0.53838743  1  0.456921  0  0.038565  0.083863  0  3.916366  0
C  C142  1  0.08288892  0.02169825  0.44008031  1  0.039241  0  -0.075335  -0.130795  0  3.936968  0
C  C143  1  0.08288285  0.97830414  0.55991521  1  0.038194  0  -0.075256  -0.13075  0  3.937028  0
C  C144  1  0.83237296  0.71720758  0.17398606  1  0.017748  0  -0.008616  -0.01981  0  4.012155  0
C  C145  1  0.83237231  0.28279338  0.82601357  1  0.017841  0  -0.008631  -0.019788  0  4.012147  0
C  C146  1  0.73713207  0.77584674  0.15772147  1  -0.030041  0  -0.073663  -0.129159  0  3.92462  0
C  C147  1  0.73713833  0.22415349  0.84227785  1  -0.030088  0  -0.073633  -0.129153  0  3.924709  0
C  C148  1  0.72197186  0.77883462  0.11092563  1  0.414479  0  0.036647  0.081283  0  3.91766  0
C  C149  1  0.72197245  0.22116332  0.88907257  1  0.414445  0  0.036576  0.081175  0  3.917775  0
C  C150  1  0.89214869  0.67259061  0.09617234  1  0.444087  0  0.037636  0.079454  0  3.916837  0
C  C151  1  0.89215019  0.32740708  0.90382775  1  0.444243  0  0.037586  0.079431  0  3.916632  0
C  C152  1  0.91011291  0.66440717  0.14231084  1  -0.031201  0  -0.073471  -0.127939  0  3.940824  0
C  C153  1  0.91011884  0.33559225  0.85769001  1  -0.031417  0  -0.073412  -0.127946  0  3.940845  0
C  C154  1  0.60686271  0.54292202  0.41301046  1  -0.086503  0  -0.000275  -0.001047  0  3.982234  0
C  C155  1  0.60686772  0.45707741  0.58698960  1  -0.08643  0  -0.000277  -0.001004  0  3.982292  0
C  C156  1  0.68996599  0.47858740  0.42590797  1  -0.02206  0  -0.071252  -0.120946  0  3.925654  0
C  C157  1  0.68996923  0.52141330  0.57409073  1  -0.02193  0  -0.071263  -0.120932  0  3.9257  0
C  C158  1  0.59485999  0.42431008  0.44553317  1  0.540753  0  0.038511  0.095052  0  3.888592  0
C  C159  1  0.59486399  0.57568876  0.55446551  1  0.54066  0  0.038445  0.095003  0  3.888551  0
C  C160  1  0.34458053  0.49355917  0.44095137  1  0.489545  0  0.042158  0.090403  0  3.910998  0
C  C161  1  0.34458634  0.50643697  0.55904974  1  0.489534  0  0.04213  0.090416  0  3.910991  0
C  C162  1  0.43100056  0.55094134  0.42141317  1  -0.001985  0  -0.076926  -0.135179  0  3.938046  0
C  C163  1  0.43100814  0.44905665  0.57858763  1  -0.001876  0  -0.076869  -0.135167  0  3.93823  0
I  I164  1  0.99603372  0.35735313  0.50493994  1  -0.453021  0  -0.22085  -0.36954  0  1.820828  0
I  I165  1  0.99603650  0.64264475  0.49506008  1  -0.453167  0  -0.220845  -0.369561  0  1.820902  0
I  I166  1  0.50037521  0.23350725  0.47712994  1  -0.464232  0  -0.228462  -0.397922  0  1.857662  0
I  I167  1  0.50037125  0.76649424  0.52286929  1  -0.464232  0  -0.22846  -0.397924  0  1.857666  0
I  I168  1  0.56780070  0.85448604  0.00245055  1  -0.457128  0  -0.224114  -0.374861  0  1.792774  0
I  I169  1  0.56780574  0.14551332  0.99754988  1  -0.457116  0  -0.224118  -0.374856  0  1.792788  0
I  I170  1  0.07526836  0.73138752  0.97603087  1  -0.460048  0  -0.227846  -0.393814  0  1.870723  0
I  I171  1  0.07527382  0.26861151  0.02396923  1  -0.45999  0  -0.227832  -0.393783  0  1.870681  0
N  N172  1  0.23224801  0.22999983  0.58101026  1  -1.212804  0  -0.358317  -0.176072  0  3.647871  0
N  N173  1  0.23224522  0.77000513  0.41899139  1  -1.212629  0  -0.358286  -0.176073  0  3.64781  0
N  N174  1  0.99424115  0.92909673  0.95232559  1  -1.216313  0  -0.357681  -0.163435  0  3.626848  0
N  N175  1  0.99423795  0.07090341  0.04767422  1  -1.216356  0  -0.357716  -0.163524  0  3.626935  0
N  N176  1  0.65069955  0.64092186  0.98175275  1  -1.239925  0  -0.355796  -0.169262  0  3.632577  0
N  N177  1  0.65070598  0.35907597  0.01824923  1  -1.23978  0  -0.355831  -0.169307  0  3.632558  0
N  N178  1  0.07674371  0.14355679  0.48279673  1  -1.245006  0  -0.355713  -0.169945  0  3.631379  0
N  N179  1  0.07674200  0.85644337  0.51720412  1  -1.244939  0  -0.355701  -0.169905  0  3.631334  0
N  N180  1  0.79792266  0.72841190  0.08027703  1  -1.169449  0  -0.359197  -0.175869  0  3.645931  0
N  N181  1  0.79792598  0.27158450  0.91972273  1  -1.169401  0  -0.359115  -0.175719  0  3.645797  0
N  N182  1  0.42424756  0.43075333  0.45261784  1  -1.222501  0  -0.35694  -0.163527  0  3.623654  0
N  N183  1  0.42424902  0.56924464  0.54738194  1  -1.222751  0  -0.356858  -0.163485  0  3.623627  0
O  O184  1  0.30419883  0.27439521  0.74901003  1  -1.088497  0  -0.139771  -0.250997  0  2.529973  0
O  O185  1  0.30420512  0.72561157  0.25099065  1  -1.088424  0  -0.139764  -0.251029  0  2.530209  0
O  O186  1  0.17812590  0.16718238  0.89016253  1  -1.069671  0  -0.140065  -0.251412  0  2.524931  0
O  O187  1  0.17812971  0.83281401  0.10983600  1  -1.069729  0  -0.140079  -0.251357  0  2.524879  0
O  O188  1  0.46615842  0.40602652  0.89001469  1  -1.080095  0  -0.141547  -0.255716  0  2.525313  0
O  O189  1  0.46616621  0.59397324  0.10998889  1  -1.080203  0  -0.141406  -0.255569  0  2.524971  0
O  O190  1  0.40339798  0.15288075  0.73558157  1  -1.113307  0  -0.264258  -0.430027  0  2.112339  0
O  O191  1  0.40339767  0.84712564  0.26441901  1  -1.112762  0  -0.264217  -0.430001  0  2.112033  0
O  O192  1  0.41325775  0.09218084  0.87581923  1  -1.124057  0  -0.262462  -0.434083  0  2.131156  0
O  O193  1  0.41324935  0.90781936  0.12418136  1  -1.124304  0  -0.262502  -0.434149  0  2.13116  0
O  O194  1  0.21124832  0.44919791  0.92065340  1  -1.102004  0  -0.265333  -0.442205  0  2.129258  0
O  O195  1  0.21125218  0.55079857  0.07935088  1  -1.101917  0  -0.265203  -0.442041  0  2.129616  0
O  O196  1  0.90975057  0.90487926  0.39274041  1  -1.080234  0  -0.141017  -0.254615  0  2.530852  0
O  O197  1  0.90975171  0.09512297  0.60725821  1  -1.080264  0  -0.140928  -0.254555  0  2.530845  0
O  O198  1  0.79333131  0.77131173  0.24924028  1  -1.07945  0  -0.140084  -0.25128  0  2.531918  0
O  O199  1  0.79333350  0.22868803  0.75075829  1  -1.079537  0  -0.140098  -0.251302  0  2.532081  0
O  O200  1  0.62276495  0.66518859  0.38790547  1  -1.070682  0  -0.140366  -0.250862  0  2.520671  0
O  O201  1  0.62276973  0.33480804  0.61209308  1  -1.07109  0  -0.14033  -0.250832  0  2.520526  0
O  O202  1  0.64913643  0.94722452  0.41996823  1  -1.135599  0  -0.264589  -0.441972  0  2.132642  0
O  O203  1  0.64913872  0.05278004  0.58002901  1  -1.135603  0  -0.26466  -0.442096  0  2.132808  0
O  O204  1  0.91843358  0.65418535  0.23909765  1  -1.116379  0  -0.264141  -0.432355  0  2.113637  0
O  O205  1  0.91842788  0.34581747  0.76090236  1  -1.116026  0  -0.264199  -0.432437  0  2.11373  0
O  O206  1  0.85281854  0.58686089  0.37434016  1  -1.128122  0  -0.264057  -0.434524  0  2.129194  0
O  O207  1  0.85281756  0.41314012  0.62566047  1  -1.128035  0  -0.264145  -0.434626  0  2.129124  0
