# generated using pymatgen
data_DyH7C14(NO4)2
_symmetry_space_group_name_H-M   'P 1'
_cell_length_a   8.35422488
_cell_length_b   12.22278597
_cell_length_c   13.46980000
_cell_angle_alpha   102.32412507
_cell_angle_beta   90.00000000
_cell_angle_gamma   90.00000000
_symmetry_Int_Tables_number   1
_chemical_formula_structural   DyH7C14(NO4)2
_chemical_formula_sum   'Dy4 H28 C56 N8 O32'
_cell_volume   1343.73127878
_cell_formula_units_Z   4
loop_
 _symmetry_equiv_pos_site_id
 _symmetry_equiv_pos_as_xyz
  1  'x, y, z'
loop_
 _atom_site_type_symbol
 _atom_site_label
 _atom_site_symmetry_multiplicity
 _atom_site_fract_x
 _atom_site_fract_y
 _atom_site_fract_z
 _atom_site_occupancy
 _atom_site_hle17_bader_spin_density
 _atom_site_hle17_ddec_charge
 _atom_site_hle17_ddec_spin_density
 _atom_site_hle17_ddec_sum_bond_order
 _atom_site_hle17_magmom
 _atom_site_hse06_10hf_bader_spin_density
 _atom_site_hse06_10hf_ddec_charge
 _atom_site_hse06_10hf_ddec_spin_density
 _atom_site_hse06_10hf_ddec_sum_bond_order
 _atom_site_hse06_10hf_magmom
 _atom_site_hse06_bader_spin_density
 _atom_site_hse06_ddec_charge
 _atom_site_hse06_ddec_spin_density
 _atom_site_hse06_ddec_sum_bond_order
 _atom_site_hse06_magmom
 _atom_site_pbe_bader_charge
 _atom_site_pbe_bader_spin_density
 _atom_site_pbe_cm5_charge
 _atom_site_pbe_ddec_charge
 _atom_site_pbe_ddec_spin_density
 _atom_site_pbe_ddec_sum_bond_order
 _atom_site_pbe_magmom
Dy  Dy0  1  0.77277666  0.80152522  0.18292042  1  0  2.173424  0  1.728435  0  0  1.995  0  2.239423  0  0  2.047588  0  2.195336  0  2.157292  0  1.547428  1.955264  0  2.273719  0
Dy  Dy1  1  0.27277815  0.19847549  0.31707994  1  0  2.173367  0  1.728508  0  0  1.994908  0  2.239552  0  0  2.047498  0  2.195461  0  2.157269  0  1.547403  1.955181  0  2.27383  0
Dy  Dy2  1  0.22722276  0.19847549  0.81707994  1  0  2.173386  0  1.728476  0  0  1.99493  0  2.239516  0  0  2.04752  0  2.195425  0  2.157345  0  1.547398  1.955201  0  2.273798  0
Dy  Dy3  1  0.72722366  0.80152522  0.68292042  1  0  2.173414  0  1.728452  0  0  1.994997  0  2.239441  0  0  2.047584  0  2.195352  0  2.157293  0  1.547403  1.955254  0  2.273747  0
H  H4  1  0.31015804  0.47629278  0.12469212  1  0  0.12752  0  0.95844  0  0  0.13058  0  1.028042  0  0  0.13538  0  1.024731  0  0.133633  0  0.111696  0.127086  0  1.03059  0
H  H5  1  0.81015775  0.52370793  0.37530899  1  0  0.127524  0  0.958435  0  0  0.130581  0  1.028043  0  0  0.135381  0  1.024733  0  0.133628  0  0.111689  0.127086  0  1.030591  0
H  H6  1  0.68984257  0.52370877  0.87530915  1  0  0.127494  0  0.958454  0  0  0.130576  0  1.028036  0  0  0.135374  0  1.024727  0  0.133631  0  0.111687  0.127082  0  1.030583  0
H  H7  1  0.18984167  0.47629278  0.62469212  1  0  0.127544  0  0.958434  0  0  0.1306  0  1.028032  0  0  0.1354  0  1.024721  0  0.133641  0  0.111702  0.127105  0  1.03058  0
H  H8  1  0.48740847  0.30734467  0.09083038  1  0  0.124085  0  0.944677  0  0  0.131704  0  1.002883  0  0  0.136167  0  0.999158  0  0.159961  0  0.119519  0.128396  0  1.005756  0
H  H9  1  0.98740818  0.69265605  0.40916998  1  0  0.124068  0  0.944695  0  0  0.131691  0  1.002902  0  0  0.136154  0  0.999178  0  0.159957  0  0.119511  0.128381  0  1.005776  0
H  H10  1  0.51259214  0.69265605  0.90916998  1  0  0.124066  0  0.944703  0  0  0.131688  0  1.002911  0  0  0.136151  0  0.999187  0  0.159945  0  0.119506  0.12838  0  1.005785  0
H  H11  1  0.01259004  0.30734467  0.59083038  1  0  0.124069  0  0.944679  0  0  0.131685  0  1.002893  0  0  0.136149  0  0.999166  0  0.159981  0  0.119511  0.128377  0  1.005766  0
H  H12  1  0.78852318  0.33614263  0.09320455  1  0  0.110528  0  0.966147  0  0  0.117291  0  1.031377  0  0  0.120011  0  1.031246  0  0.137156  0  0.110328  0.115321  0  1.03162  0
H  H13  1  0.28852348  0.66385808  0.40679506  1  0  0.11047  0  0.966153  0  0  0.117261  0  1.031359  0  0  0.11998  0  1.031228  0  0.137144  0  0.11032  0.115291  0  1.031602  0
H  H14  1  0.21147623  0.66385892  0.90679448  1  0  0.11047  0  0.966166  0  0  0.117265  0  1.031371  0  0  0.119985  0  1.03124  0  0.137135  0  0.110317  0.115296  0  1.031613  0
H  H15  1  0.71147594  0.33614263  0.59320455  1  0  0.110515  0  0.966151  0  0  0.117276  0  1.031383  0  0  0.119997  0  1.031251  0  0.137133  0  0.110322  0.115306  0  1.031626  0
H  H16  1  0.35723123  0.97383231  0.11208521  1  0  0.133957  0  0.951834  0  0  0.138939  0  1.01548  0  0  0.143726  0  1.011925  0  0.161561  0  0.12176  0.135476  0  1.018194  0
H  H17  1  0.85723093  0.02616756  0.38791425  1  0  0.133974  0  0.951842  0  0  0.138944  0  1.015494  0  0  0.143731  0  1.011939  0  0.161561  0  0.121772  0.135481  0  1.018207  0
H  H18  1  0.64276939  0.02616756  0.88791425  1  0  0.133973  0  0.951837  0  0  0.138953  0  1.015487  0  0  0.143739  0  1.011931  0  0.16157  0  0.121776  0.135489  0  1.018199  0
H  H19  1  0.14276968  0.97383231  0.61208595  1  0  0.133926  0  0.951906  0  0  0.138915  0  1.01555  0  0  0.143704  0  1.011991  0  0.161559  0  0.121749  0.135451  0  1.018264  0
H  H20  1  0.09323307  0.84396009  0.83533444  1  0  0.127145  0  0.966244  0  0  0.13271  0  1.031035  0  0  0.136728  0  1.028918  0  0.143257  0  0.117036  0.129758  0  1.032764  0
H  H21  1  0.59323517  0.15604062  0.66466666  1  0  0.127144  0  0.96621  0  0  0.132697  0  1.031012  0  0  0.136716  0  1.028895  0  0.143257  0  0.117039  0.129748  0  1.032737  0
H  H22  1  0.90676515  0.15604062  0.16466592  1  0  0.127143  0  0.966239  0  0  0.132709  0  1.031029  0  0  0.136728  0  1.028911  0  0.143263  0  0.117028  0.129757  0  1.032757  0
H  H23  1  0.40676425  0.84396009  0.33533444  1  0  0.127134  0  0.96624  0  0  0.132728  0  1.030997  0  0  0.136747  0  1.028878  0  0.143269  0  0.117042  0.129776  0  1.032726  0
H  H24  1  0.34955367  0.91859295  0.92093082  1  0  0.119201  0  0.95844  0  0  0.129285  0  1.012545  0  0  0.133326  0  1.009477  0  0.163266  0  0.116578  0.126281  0  1.014958  0
H  H25  1  0.84955458  0.08140776  0.57906880  1  0  0.1192  0  0.958437  0  0  0.129284  0  1.012543  0  0  0.133325  0  1.009475  0  0.163284  0  0.116581  0.12628  0  1.014957  0
H  H26  1  0.65044574  0.08140776  0.07906880  1  0  0.119203  0  0.95844  0  0  0.129286  0  1.012545  0  0  0.133327  0  1.009477  0  0.163289  0  0.116579  0.126282  0  1.014957  0
H  H27  1  0.15044484  0.91859295  0.42093156  1  0  0.119187  0  0.95844  0  0  0.12927  0  1.012548  0  0  0.133311  0  1.00948  0  0.163294  0  0.116572  0.126266  0  1.01496  0
H  H28  1  0.09989437  0.65958377  0.15947506  1  0  0.448734  0  0.851402  0  0  0.412043  0  0.923626  0  0  0.425712  0  0.904185  0  0.671662  0  0.318092  0.402462  0  0.937194  0
H  H29  1  0.59989527  0.34041694  0.34052456  1  0  0.44873  0  0.851397  0  0  0.412042  0  0.923615  0  0  0.42571  0  0.904174  0  0.671662  0  0.318091  0.402461  0  0.937183  0
H  H30  1  0.90010625  0.34041694  0.84052456  1  0  0.44874  0  0.851393  0  0  0.412048  0  0.923617  0  0  0.425716  0  0.904177  0  0.671669  0  0.318087  0.402467  0  0.937186  0
H  H31  1  0.40010534  0.65958377  0.65947506  1  0  0.448715  0  0.85143  0  0  0.412024  0  0.923652  0  0  0.425692  0  0.904212  0  0.671656  0  0.318084  0.402444  0  0.93722  0
C  C32  1  0.44024072  0.48466469  0.12562094  1  0  -0.085024  0  3.627333  0  0  -0.113276  0  3.884267  0  0  -0.11691  0  3.903396  0  0.028643  0  -0.063608  -0.110834  0  3.87158  0
C  C33  1  0.94024043  0.51533518  0.37437926  1  0  -0.084997  0  3.627255  0  0  -0.113249  0  3.884179  0  0  -0.116882  0  3.903306  0  0.028283  0  -0.063583  -0.110807  0  3.871491  0
C  C34  1  0.55975989  0.51533518  0.87437852  1  0  -0.084961  0  3.627216  0  0  -0.113228  0  3.884148  0  0  -0.116867  0  3.903279  0  0.028429  0  -0.063583  -0.110787  0  3.871463  0
C  C35  1  0.05975779  0.48466469  0.62562168  1  0  -0.085113  0  3.627368  0  0  -0.113345  0  3.884308  0  0  -0.116984  0  3.903438  0  0.028657  0  -0.063618  -0.110905  0  3.871623  0
C  C36  1  0.50968702  0.59112622  0.14460656  1  0  0.106248  0  3.741046  0  0  0.112751  0  3.982873  0  0  0.112925  0  4.001986  0  0.477756  0  0.121867  0.112381  0  3.97002  0
C  C37  1  0.00968612  0.40887366  0.35539290  1  0  0.106186  0  3.741105  0  0  0.112712  0  3.982904  0  0  0.112885  0  4.002016  0  0.478069  0  0.121833  0.11234  0  3.970053  0
C  C38  1  0.49031479  0.40887366  0.85539290  1  0  0.106195  0  3.741094  0  0  0.1127  0  3.982906  0  0  0.112881  0  4.002009  0  0.478069  0  0.12184  0.112328  0  3.970056  0
C  C39  1  0.99031330  0.59112622  0.64460656  1  0  0.106284  0  3.741017  0  0  0.112746  0  3.982872  0  0  0.112928  0  4.001974  0  0.477728  0  0.121856  0.112375  0  3.970021  0
C  C40  1  0.76480105  0.51529080  0.12746128  1  0  0.105052  0  3.773738  0  0  0.107942  0  4.018864  0  0  0.107534  0  4.037856  0  0.563555  0  0.120226  0.108143  0  4.006015  0
C  C41  1  0.26480015  0.48470992  0.37253760  1  0  0.105116  0  3.773712  0  0  0.108  0  4.018859  0  0  0.107592  0  4.037847  0  0.563206  0  0.120258  0.108201  0  4.006009  0
C  C42  1  0.23520076  0.48470992  0.87253834  1  0  0.105025  0  3.77372  0  0  0.107943  0  4.018862  0  0  0.107535  0  4.037854  0  0.563228  0  0.120231  0.108143  0  4.006013  0
C  C43  1  0.73519807  0.51528996  0.62746112  1  0  0.105083  0  3.773736  0  0  0.107985  0  4.018867  0  0  0.107577  0  4.037859  0  0.563546  0  0.120253  0.108184  0  4.006017  0
C  C44  1  0.54005728  0.39081672  0.10695878  1  0  0.014254  0  3.628799  0  0  -0.004377  0  3.88587  0  0  -0.002579  0  3.900962  0  -0.045121  0  -0.053477  -0.00549  0  3.875694  0
C  C45  1  0.04005758  0.60918315  0.39304068  1  0  0.014247  0  3.628718  0  0  -0.004395  0  3.885813  0  0  -0.002599  0  3.900904  0  -0.045111  0  -0.053494  -0.005507  0  3.875635  0
C  C46  1  0.45994333  0.60918399  0.89304009  1  0  0.014231  0  3.628697  0  0  -0.00441  0  3.885802  0  0  -0.002613  0  3.900895  0  -0.045271  0  -0.053486  -0.005526  0  3.87563  0
C  C47  1  0.95994184  0.39081672  0.60695952  1  0  0.014308  0  3.628783  0  0  -0.004325  0  3.885836  0  0  -0.002528  0  3.900929  0  -0.045124  0  -0.053483  -0.005438  0  3.875659  0
C  C48  1  0.70538800  0.40620221  0.10752586  1  0  -0.074087  0  3.64513  0  0  -0.100473  0  3.895608  0  0  -0.102492  0  3.914093  0  -0.070634  0  -0.060732  -0.099183  0  3.883263  0
C  C49  1  0.20538829  0.59379850  0.39247301  1  0  -0.074061  0  3.645102  0  0  -0.100466  0  3.895589  0  0  -0.102486  0  3.914077  0  -0.070649  0  -0.060741  -0.099176  0  3.883243  0
C  C50  1  0.29461261  0.59379933  0.89247318  1  0  -0.07404  0  3.645091  0  0  -0.100459  0  3.895581  0  0  -0.10248  0  3.914069  0  -0.070639  0  -0.060743  -0.09917  0  3.883237  0
C  C51  1  0.79461112  0.40620221  0.60752586  1  0  -0.074093  0  3.645133  0  0  -0.100471  0  3.8956  0  0  -0.102492  0  3.914088  0  -0.070633  0  -0.060723  -0.09918  0  3.883254  0
C  C52  1  0.41408390  0.69892263  0.16589381  1  0  0.653961  0  3.899421  0  0  0.602033  0  4.198857  0  0  0.635973  0  4.18875  0  1.605333  0  0.22645  0.579167  0  4.204772  0
C  C53  1  0.91408480  0.30107725  0.33410713  1  0  0.653945  0  3.899443  0  0  0.602013  0  4.198878  0  0  0.635952  0  4.188771  0  1.605532  0  0.22645  0.579148  0  4.204794  0
C  C54  1  0.58591672  0.30107725  0.83410713  1  0  0.653894  0  3.899535  0  0  0.601996  0  4.198916  0  0  0.635933  0  4.188811  0  1.605343  0  0.226449  0.57913  0  4.204833  0
C  C55  1  0.08591701  0.69892263  0.66589381  1  0  0.653938  0  3.89943  0  0  0.602044  0  4.198818  0  0  0.635981  0  4.188713  0  1.605368  0  0.226476  0.579178  0  4.204735  0
C  C56  1  0.94069888  0.53655429  0.12944968  1  0  0.633392  0  3.811361  0  0  0.584439  0  4.10858  0  0  0.616389  0  4.100183  0  1.498625  0  0.243925  0.562535  0  4.113959  0
C  C57  1  0.44070037  0.46344726  0.37054787  1  0  0.633356  0  3.811488  0  0  0.58439  0  4.108733  0  0  0.616353  0  4.100314  0  1.49861  0  0.243912  0.562487  0  4.114111  0
C  C58  1  0.05929934  0.46344809  0.87054952  1  0  0.633453  0  3.81135  0  0  0.584429  0  4.108652  0  0  0.616384  0  4.100248  0  1.498182  0  0.24395  0.562527  0  4.11403  0
C  C59  1  0.55930024  0.53655429  0.62944968  1  0  0.633413  0  3.811343  0  0  0.584409  0  4.10864  0  0  0.616362  0  4.10024  0  1.498633  0  0.243897  0.562508  0  4.114016  0
C  C60  1  0.81650902  0.79203113  0.93866151  1  0  0.698172  0  3.856242  0  0  0.651756  0  4.147811  0  0  0.687278  0  4.135605  0  1.627574  0  0.240613  0.627693  0  4.155114  0
C  C61  1  0.31650932  0.20796874  0.56133869  1  0  0.698143  0  3.85629  0  0  0.651746  0  4.147822  0  0  0.687268  0  4.135616  0  1.627574  0  0.240612  0.627682  0  4.155125  0
C  C62  1  0.18349039  0.20796874  0.06133869  1  0  0.698149  0  3.856268  0  0  0.651763  0  4.147805  0  0  0.687285  0  4.135597  0  1.627535  0  0.240634  0.6277  0  4.155107  0
C  C63  1  0.68349010  0.79203113  0.43866151  1  0  0.698146  0  3.856307  0  0  0.651754  0  4.147855  0  0  0.687277  0  4.135647  0  1.627537  0  0.240613  0.627692  0  4.155156  0
C  C64  1  0.97615639  0.84147959  0.97772547  1  0  0.097495  0  3.753558  0  0  0.099746  0  3.999972  0  0  0.099626  0  4.018988  0  0.521848  0  0.117289  0.099626  0  3.987165  0
C  C65  1  0.47615788  0.15852112  0.52227489  1  0  0.097471  0  3.753665  0  0  0.099741  0  4.000033  0  0  0.09962  0  4.01905  0  0.521949  0  0.117265  0.09962  0  3.987227  0
C  C66  1  0.02384303  0.15852029  0.02227547  1  0  0.097522  0  3.753517  0  0  0.099763  0  3.999931  0  0  0.099641  0  4.018948  0  0.522127  0  0.11729  0.099641  0  3.987124  0
C  C67  1  0.52384154  0.84147959  0.47772473  1  0  0.097539  0  3.753508  0  0  0.099772  0  3.999944  0  0  0.099652  0  4.018959  0  0.521967  0  0.117289  0.099651  0  3.987136  0
C  C68  1  0.25173371  0.93540628  0.07166754  1  0  -0.078134  0  3.630586  0  0  -0.103899  0  3.883338  0  0  -0.106287  0  3.899472  0  -0.031917  0  -0.057913  -0.102412  0  3.872695  0
C  C69  1  0.75173342  0.06459360  0.42833266  1  0  -0.078178  0  3.630666  0  0  -0.103931  0  3.8834  0  0  -0.10632  0  3.899539  0  -0.031918  0  -0.057934  -0.102444  0  3.872756  0
C  C70  1  0.74826810  0.06459276  0.92833249  1  0  -0.078124  0  3.630603  0  0  -0.103897  0  3.883373  0  0  -0.106282  0  3.899507  0  -0.031911  0  -0.057918  -0.102411  0  3.872732  0
C  C71  1  0.24826600  0.93540711  0.57166771  1  0  -0.078098  0  3.630648  0  0  -0.103885  0  3.883418  0  0  -0.106272  0  3.899556  0  -0.031928  0  -0.057918  -0.102397  0  3.872775  0
C  C72  1  0.11725684  0.91353982  0.12566861  1  0  0.114399  0  3.763341  0  0  0.115603  0  4.010402  0  0  0.116875  0  4.027018  0  0.472892  0  0.124554  0.114581  0  3.999202  0
C  C73  1  0.61725774  0.08646005  0.37433158  1  0  0.114404  0  3.763404  0  0  0.115624  0  4.01043  0  0  0.116893  0  4.027046  0  0.472868  0  0.124552  0.1146  0  3.99923  0
C  C74  1  0.88274377  0.08645922  0.87433142  1  0  0.114327  0  3.763489  0  0  0.115525  0  4.010564  0  0  0.116793  0  4.02718  0  0.472865  0  0.124508  0.114502  0  3.999364  0
C  C75  1  0.38274287  0.91354066  0.62566878  1  0  0.114371  0  3.763474  0  0  0.115576  0  4.010545  0  0  0.116845  0  4.027162  0  0.472877  0  0.124541  0.114552  0  3.999346  0
C  C76  1  0.10373075  0.94282350  0.23930778  1  0  0.69604  0  3.846692  0  0  0.646078  0  4.140318  0  0  0.682331  0  4.125833  0  1.61229  0  0.244784  0.621461  0  4.149281  0
C  C77  1  0.60373285  0.05717637  0.26069316  1  0  0.696108  0  3.846846  0  0  0.646137  0  4.140476  0  0  0.682398  0  4.125981  0  1.612268  0  0.244835  0.621523  0  4.149432  0
C  C78  1  0.89626867  0.05717637  0.76069316  1  0  0.696111  0  3.846668  0  0  0.646164  0  4.140272  0  0  0.682418  0  4.125785  0  1.61227  0  0.244793  0.621548  0  4.149235  0
C  C79  1  0.39626896  0.94282434  0.73930720  1  0  0.69607  0  3.846657  0  0  0.646113  0  4.14028  0  0  0.682367  0  4.125795  0  1.61228  0  0.244786  0.621497  0  4.149243  0
C  C80  1  0.10417484  0.86210830  0.91779342  1  0  -0.086764  0  3.629575  0  0  -0.111767  0  3.883372  0  0  -0.114235  0  3.901064  0  -0.052847  0  -0.064679  -0.110169  0  3.871659  0
C  C81  1  0.60417574  0.13789241  0.58220694  1  0  -0.086799  0  3.629563  0  0  -0.111799  0  3.883367  0  0  -0.114266  0  3.901057  0  -0.052843  0  -0.064704  -0.110202  0  3.871656  0
C  C82  1  0.89582458  0.13789241  0.08220694  1  0  -0.086802  0  3.629564  0  0  -0.111806  0  3.883365  0  0  -0.114275  0  3.901057  0  -0.053023  0  -0.064697  -0.110208  0  3.871651  0
C  C83  1  0.39582487  0.86210830  0.41779342  1  0  -0.086796  0  3.629566  0  0  -0.111816  0  3.883365  0  0  -0.114284  0  3.901056  0  -0.052862  0  -0.0647  -0.110218  0  3.871652  0
C  C84  1  0.24574512  0.90602964  0.96603202  1  0  0.010237  0  3.628402  0  0  -0.006204  0  3.879639  0  0  -0.004418  0  3.895098  0  -0.014995  0  -0.0545  -0.007288  0  3.869234  0
C  C85  1  0.74574483  0.09397024  0.53396818  1  0  0.010256  0  3.628426  0  0  -0.006187  0  3.879652  0  0  -0.004402  0  3.895112  0  -0.015013  0  -0.054508  -0.007272  0  3.869248  0
C  C86  1  0.75425549  0.09397107  0.03396834  1  0  0.010247  0  3.62837  0  0  -0.006184  0  3.879604  0  0  -0.004398  0  3.895063  0  -0.01499  0  -0.054503  -0.007268  0  3.869198  0
C  C87  1  0.25425459  0.90603048  0.46603218  1  0  0.010259  0  3.628392  0  0  -0.006176  0  3.879638  0  0  -0.004391  0  3.895096  0  -0.015011  0  -0.054498  -0.007261  0  3.869232  0
N  N88  1  0.66921110  0.60559471  0.14582084  1  0  -0.42112  0  3.294752  0  0  -0.37441  0  3.545045  0  0  -0.386642  0  3.565178  0  -1.224781  0  -0.382734  -0.365684  0  3.531218  0
N  N89  1  0.16920900  0.39440600  0.35417878  1  0  -0.421083  0  3.294777  0  0  -0.374374  0  3.545058  0  0  -0.386607  0  3.565196  0  -1.22439  0  -0.382714  -0.365647  0  3.531231  0
N  N90  1  0.33079071  0.39440684  0.85417894  1  0  -0.421067  0  3.294772  0  0  -0.374352  0  3.545042  0  0  -0.386587  0  3.565177  0  -1.224389  0  -0.382712  -0.365625  0  3.531215  0
N  N91  1  0.83078922  0.60559387  0.64582068  1  0  -0.421131  0  3.294726  0  0  -0.374405  0  3.54502  0  0  -0.38664  0  3.565153  0  -1.224751  0  -0.38272  -0.365677  0  3.531193  0
N  N92  1  0.98586884  0.86432334  0.07965764  1  0  -0.461922  0  3.363985  0  0  -0.412158  0  3.615887  0  0  -0.426007  0  3.637571  0  -1.286094  0  -0.400195  -0.402376  0  3.601057  0
N  N93  1  0.48586913  0.13567654  0.42034330  1  0  -0.461832  0  3.364103  0  0  -0.412078  0  3.615987  0  0  -0.425926  0  3.637672  0  -1.286172  0  -0.400115  -0.402295  0  3.601155  0
N  N94  1  0.01413177  0.13567570  0.92034313  1  0  -0.461868  0  3.36401  0  0  -0.412096  0  3.615919  0  0  -0.425941  0  3.637602  0  -1.286168  0  -0.400121  -0.402313  0  3.601087  0
N  N95  1  0.51413148  0.86432501  0.57965723  1  0  -0.461906  0  3.364043  0  0  -0.412142  0  3.615959  0  0  -0.425988  0  3.637643  0  -1.286161  0  -0.400135  -0.402358  0  3.601128  0
O  O96  1  0.49487535  0.78894600  0.17541568  1  0  -0.699344  0  2.062144  0  0  -0.648715  0  2.317998  0  0  -0.674153  0  2.308589  0  -1.181245  0  -0.39034  -0.630704  0  2.323768  0
O  O97  1  0.99487387  0.21105388  0.32458378  1  0  -0.699345  0  2.062187  0  0  -0.648705  0  2.318033  0  0  -0.674143  0  2.308623  0  -1.181251  0  -0.390324  -0.630696  0  2.323803  0
O  O98  1  0.50512646  0.21105388  0.82458378  1  0  -0.699321  0  2.062192  0  0  -0.648693  0  2.318019  0  0  -0.674129  0  2.308611  0  -1.181244  0  -0.390318  -0.630683  0  2.32379  0
O  O99  1  0.00512435  0.78894516  0.67541626  1  0  -0.699303  0  2.06214  0  0  -0.648692  0  2.318005  0  0  -0.67413  0  2.308599  0  -1.181231  0  -0.390327  -0.63068  0  2.323777  0
O  O100  1  0.26449132  0.69594301  0.17620700  1  0  -0.609735  0  2.02285  0  0  -0.557645  0  2.252541  0  0  -0.582858  0  2.242914  0  -1.192447  0  -0.308316  -0.540102  0  2.258642  0
O  O101  1  0.76449223  0.30405603  0.32379304  1  0  -0.609723  0  2.022839  0  0  -0.557632  0  2.252519  0  0  -0.582845  0  2.242892  0  -1.192627  0  -0.308317  -0.540089  0  2.25862  0
O  O102  1  0.73550809  0.30405603  0.82379378  1  0  -0.609703  0  2.022897  0  0  -0.55762  0  2.252568  0  0  -0.582834  0  2.242944  0  -1.192451  0  -0.308329  -0.540078  0  2.25867  0
O  O103  1  0.23551078  0.69594384  0.67620567  1  0  -0.609739  0  2.022859  0  0  -0.557651  0  2.252521  0  0  -0.582864  0  2.242897  0  -1.192473  0  -0.308342  -0.540109  0  2.258624  0
O  O104  1  0.97613724  0.64686805  0.15394614  1  0  -0.661962  0  2.190963  0  0  -0.603097  0  2.428561  0  0  -0.627473  0  2.410456  0  -1.16593  0  -0.361637  -0.58561  0  2.440506  0
O  O105  1  0.47613633  0.35313098  0.34605242  1  0  -0.661949  0  2.190912  0  0  -0.603076  0  2.428508  0  0  -0.627457  0  2.410401  0  -1.165905  0  -0.361647  -0.58559  0  2.440452  0
O  O106  1  0.02386457  0.35313266  0.84605274  1  0  -0.661977  0  2.190875  0  0  -0.603086  0  2.428501  0  0  -0.627466  0  2.410394  0  -1.165901  0  -0.361623  -0.585602  0  2.440446  0
O  O107  1  0.52386189  0.64686805  0.65394614  1  0  -0.661997  0  2.190982  0  0  -0.603119  0  2.428596  0  0  -0.627498  0  2.410493  0  -1.165931  0  -0.361638  -0.585632  0  2.440538  0
O  O108  1  0.04128091  0.46222543  0.11160063  1  0  -0.500263  0  1.922342  0  0  -0.458374  0  2.129132  0  0  -0.477843  0  2.123482  0  -1.12328  0  -0.262611  -0.445041  0  2.13285  0
O  O109  1  0.54127942  0.53777361  0.38839718  1  0  -0.500254  0  1.922573  0  0  -0.458339  0  2.129326  0  0  -0.477822  0  2.123691  0  -1.123269  0  -0.262596  -0.445016  0  2.133061  0
O  O110  1  0.95872090  0.53777528  0.88839824  1  0  -0.500255  0  1.922496  0  0  -0.458347  0  2.129317  0  0  -0.477809  0  2.123649  0  -1.122841  0  -0.26262  -0.445014  0  2.133031  0
O  O111  1  0.45871760  0.46222543  0.61160063  1  0  -0.500254  0  1.922369  0  0  -0.458355  0  2.129191  0  0  -0.477819  0  2.123531  0  -1.123297  0  -0.262598  -0.445018  0  2.132899  0
O  O112  1  0.72456513  0.76626220  0.00551496  1  0  -0.691562  0  2.003909  0  0  -0.643235  0  2.251121  0  0  -0.668548  0  2.241669  0  -1.173347  0  -0.372369  -0.625202  0  2.256782  0
O  O113  1  0.22456661  0.23373768  0.49448524  1  0  -0.691545  0  2.003924  0  0  -0.643223  0  2.251138  0  0  -0.668533  0  2.241679  0  -1.173348  0  -0.372366  -0.625198  0  2.256817  0
O  O114  1  0.27543429  0.23373768  0.99448524  1  0  -0.691571  0  2.003935  0  0  -0.643251  0  2.251148  0  0  -0.668562  0  2.241689  0  -1.173341  0  -0.372376  -0.62522  0  2.256813  0
O  O115  1  0.77543280  0.76626220  0.50551496  1  0  -0.691541  0  2.00393  0  0  -0.64322  0  2.251143  0  0  -0.66853  0  2.241684  0  -1.173324  0  -0.372357  -0.625186  0  2.256804  0
O  O116  1  0.99742587  0.89168593  0.27913610  1  0  -0.68164  0  2.009592  0  0  -0.633255  0  2.257189  0  0  -0.657161  0  2.244688  0  -1.174342  0  -0.360406  -0.616357  0  2.265248  0
O  O117  1  0.49742616  0.10831311  0.22086467  1  0  -0.681697  0  2.00976  0  0  -0.6333  0  2.257349  0  0  -0.657209  0  2.244845  0  -1.17427  0  -0.360447  -0.61641  0  2.265417  0
O  O118  1  0.00257355  0.10831395  0.72086409  1  0  -0.68166  0  2.009571  0  0  -0.633281  0  2.257181  0  0  -0.657188  0  2.244677  0  -1.17429  0  -0.360404  -0.616381  0  2.265229  0
O  O119  1  0.50257445  0.89168593  0.77913610  1  0  -0.68166  0  2.009558  0  0  -0.633285  0  2.25717  0  0  -0.657191  0  2.244669  0  -1.174304  0  -0.360414  -0.616384  0  2.26522  0
O  O120  1  0.78258128  0.78044596  0.84539702  1  0  -0.721756  0  2.042479  0  0  -0.670574  0  2.309067  0  0  -0.696585  0  2.297591  0  -1.208914  0  -0.398223  -0.652011  0  2.316243  0
O  O121  1  0.28258157  0.21955392  0.65460318  1  0  -0.721736  0  2.042501  0  0  -0.670562  0  2.309071  0  0  -0.696575  0  2.297595  0  -1.208997  0  -0.39823  -0.652001  0  2.316246  0
O  O122  1  0.21741814  0.21955475  0.15460334  1  0  -0.721725  0  2.042506  0  0  -0.670556  0  2.309081  0  0  -0.696569  0  2.297604  0  -1.208928  0  -0.398242  -0.651996  0  2.316256  0
O  O123  1  0.71741665  0.78044596  0.34539702  1  0  -0.721739  0  2.042512  0  0  -0.670574  0  2.309092  0  0  -0.696584  0  2.297613  0  -1.20892  0  -0.398228  -0.652012  0  2.316266  0
O  O124  1  0.19609240  0.01791624  0.28816470  1  0  -0.720504  0  2.070583  0  0  -0.666414  0  2.338668  0  0  -0.693352  0  2.327167  0  -1.190432  0  -0.410394  -0.647133  0  2.34577  0
O  O125  1  0.69609211  0.98208447  0.21183566  1  0  -0.720554  0  2.070625  0  0  -0.666479  0  2.338729  0  0  -0.693417  0  2.327223  0  -1.190444  0  -0.410416  -0.647198  0  2.345833  0
O  O126  1  0.80390821  0.98208447  0.71183566  1  0  -0.720563  0  2.07061  0  0  -0.666485  0  2.338694  0  0  -0.693422  0  2.327191  0  -1.190431  0  -0.410404  -0.647203  0  2.345799  0
O  O127  1  0.30390731  0.01791624  0.78816395  1  0  -0.720515  0  2.070592  0  0  -0.666423  0  2.338675  0  0  -0.693361  0  2.327174  0  -1.190438  0  -0.410388  -0.647144  0  2.345778  0
