# generated using pymatgen
data_CdH6C6INO4
_symmetry_space_group_name_H-M   'P 1'
_cell_length_a   8.44605789
_cell_length_b   10.63575028
_cell_length_c   10.81772358
_cell_angle_alpha   90.86010003
_cell_angle_beta   89.99998732
_cell_angle_gamma   89.99987423
_symmetry_Int_Tables_number   1
_chemical_formula_structural   CdH6C6INO4
_chemical_formula_sum   'Cd4 H24 C24 I4 N4 O16'
_cell_volume   971.64837836
_cell_formula_units_Z   4
loop_
 _symmetry_equiv_pos_site_id
 _symmetry_equiv_pos_as_xyz
  1  'x, y, z'
loop_
 _atom_site_type_symbol
 _atom_site_label
 _atom_site_symmetry_multiplicity
 _atom_site_fract_x
 _atom_site_fract_y
 _atom_site_fract_z
 _atom_site_occupancy
 _atom_site_hle17_bader_spin_density
 _atom_site_hle17_ddec_charge
 _atom_site_hle17_ddec_spin_density
 _atom_site_hle17_ddec_sum_bond_order
 _atom_site_hle17_magmom
 _atom_site_hse06_10hf_bader_spin_density
 _atom_site_hse06_10hf_ddec_charge
 _atom_site_hse06_10hf_ddec_spin_density
 _atom_site_hse06_10hf_ddec_sum_bond_order
 _atom_site_hse06_10hf_magmom
 _atom_site_hse06_bader_spin_density
 _atom_site_hse06_ddec_charge
 _atom_site_hse06_ddec_spin_density
 _atom_site_hse06_ddec_sum_bond_order
 _atom_site_hse06_magmom
 _atom_site_pbe_bader_spin_density
 _atom_site_pbe_cm5_charge
 _atom_site_pbe_ddec_charge
 _atom_site_pbe_ddec_spin_density
 _atom_site_pbe_ddec_sum_bond_order
 _atom_site_pbe_magmom
Cd  Cd0  1  0.09353660  0.33421174  0.45206175  1  0  1.152058  0  1.727928  0  0  0.989953  0  2.175643  0  0  1.04687  0  2.119027  0  0  0.680818  0.948936  0  2.214612  0
Cd  Cd1  1  0.59353458  0.16578857  0.54793705  1  0  1.15207  0  1.72792  0  0  0.989964  0  2.175629  0  0  1.046884  0  2.119017  0  0  0.680819  0.948959  0  2.214574  0
Cd  Cd2  1  0.90646450  0.66578828  0.54793771  1  0  1.152068  0  1.727905  0  0  0.989949  0  2.175616  0  0  1.046868  0  2.119  0  0  0.680819  0.948942  0  2.214556  0
Cd  Cd3  1  0.40646534  0.83421145  0.45206334  1  0  1.152077  0  1.727919  0  0  0.989971  0  2.175627  0  0  1.046892  0  2.119016  0  0  0.68082  0.948956  0  2.214583  0
H  H4  1  0.43732137  0.63367837  0.84146967  1  0  0.120137  0  0.938206  0  0  0.128383  0  0.999272  0  0  0.131859  0  0.997577  0  0  0.113526  0.125892  0  1.000638  0
H  H5  1  0.93732246  0.86632035  0.15853044  1  0  0.120114  0  0.938175  0  0  0.128352  0  0.99925  0  0  0.131827  0  0.997556  0  0  0.113499  0.125859  0  1.000615  0
H  H6  1  0.56267854  0.36632070  0.15852978  1  0  0.120146  0  0.938207  0  0  0.128393  0  0.999266  0  0  0.13187  0  0.997572  0  0  0.11352  0.125904  0  1.000633  0
H  H7  1  0.06267627  0.13367872  0.84146901  1  0  0.120138  0  0.93817  0  0  0.128396  0  0.999218  0  0  0.131872  0  0.997523  0  0  0.113531  0.125905  0  1.000589  0
H  H8  1  0.35833571  0.50435359  0.02486605  1  0  0.102356  0  0.958835  0  0  0.112756  0  1.020048  0  0  0.115823  0  1.017545  0  0  0.097914  0.110171  0  1.022548  0
H  H9  1  0.85833502  0.99564622  0.97513316  1  0  0.102353  0  0.95884  0  0  0.11275  0  1.020055  0  0  0.115816  0  1.017552  0  0  0.097905  0.110163  0  1.022562  0
H  H10  1  0.64166421  0.49564549  0.97513340  1  0  0.10236  0  0.95883  0  0  0.112789  0  1.020017  0  0  0.115856  0  1.017514  0  0  0.097919  0.110204  0  1.022518  0
H  H11  1  0.14166253  0.00435286  0.02486629  1  0  0.102358  0  0.958819  0  0  0.112752  0  1.020034  0  0  0.115819  0  1.01753  0  0  0.097903  0.110165  0  1.022534  0
H  H12  1  0.12075998  0.36332731  0.00457949  1  0  0.107546  0  0.978512  0  0  0.114071  0  1.042222  0  0  0.1177  0  1.041006  0  0  0.093269  0.111454  0  1.043069  0
H  H13  1  0.62076027  0.13667483  0.99542211  1  0  0.107592  0  0.97846  0  0  0.114109  0  1.042177  0  0  0.117733  0  1.040965  0  0  0.093279  0.111491  0  1.043023  0
H  H14  1  0.87923757  0.63667458  0.99542092  1  0  0.107582  0  0.978481  0  0  0.11411  0  1.042185  0  0  0.117737  0  1.040974  0  0  0.09327  0.111493  0  1.043027  0
H  H15  1  0.37923846  0.86332519  0.00457921  1  0  0.107564  0  0.978462  0  0  0.114099  0  1.042149  0  0  0.117728  0  1.04094  0  0  0.093271  0.111482  0  1.042994  0
H  H16  1  0.97014074  0.36099107  0.80041880  1  0  0.113787  0  0.964986  0  0  0.116963  0  1.037324  0  0  0.121542  0  1.032429  0  0  0.114955  0.113535  0  1.041271  0
H  H17  1  0.47014100  0.13900952  0.19958271  1  0  0.113829  0  0.964933  0  0  0.116978  0  1.037297  0  0  0.12156  0  1.032402  0  0  0.114952  0.113548  0  1.041244  0
H  H18  1  0.02985563  0.63901083  0.19958069  1  0  0.1138  0  0.964968  0  0  0.116981  0  1.037311  0  0  0.12156  0  1.032417  0  0  0.114975  0.113554  0  1.041254  0
H  H19  1  0.52985773  0.86099049  0.80041953  1  0  0.113794  0  0.964953  0  0  0.116976  0  1.037308  0  0  0.121552  0  1.032409  0  0  0.114962  0.113547  0  1.041258  0
H  H20  1  0.08994242  0.91103428  0.41221385  1  0  0.426402  0  0.875389  0  0  0.395796  0  0.938924  0  0  0.406479  0  0.923532  0  0  0.287214  0.388137  0  0.949977  0
H  H21  1  0.58994178  0.58896505  0.58778540  1  0  0.426406  0  0.875394  0  0  0.39581  0  0.938922  0  0  0.40649  0  0.923532  0  0  0.287225  0.388153  0  0.949975  0
H  H22  1  0.91005749  0.08896667  0.58778562  1  0  0.426394  0  0.875411  0  0  0.395797  0  0.938939  0  0  0.406477  0  0.923549  0  0  0.287217  0.388139  0  0.949992  0
H  H23  1  0.41005813  0.41103496  0.41221314  1  0  0.426391  0  0.875406  0  0  0.395794  0  0.93893  0  0  0.406477  0  0.923538  0  0  0.287221  0.388137  0  0.949979  0
H  H24  1  0.19412005  0.02880174  0.37756059  1  0  0.392204  0  0.903357  0  0  0.362629  0  0.978774  0  0  0.373047  0  0.963604  0  0  0.267191  0.354995  0  0.989991  0
H  H25  1  0.69412190  0.47119839  0.62243727  1  0  0.392147  0  0.903418  0  0  0.362575  0  0.978841  0  0  0.372992  0  0.963673  0  0  0.267153  0.354939  0  0.990063  0
H  H26  1  0.80587749  0.97119921  0.62243796  1  0  0.39217  0  0.903389  0  0  0.362596  0  0.978812  0  0  0.373013  0  0.963644  0  0  0.267167  0.354964  0  0.990027  0
H  H27  1  0.30587801  0.52880069  0.37756126  1  0  0.392246  0  0.903347  0  0  0.362678  0  0.978714  0  0  0.373096  0  0.963546  0  0  0.267209  0.355045  0  0.989933  0
C  C28  1  0.28817842  0.65695764  0.62651235  1  0  0.648967  0  3.905999  0  0  0.591445  0  4.204298  0  0  0.626993  0  4.195558  0  0  0.211445  0.567483  0  4.208975  0
C  C29  1  0.78818188  0.84304323  0.37348504  1  0  0.648911  0  3.906039  0  0  0.591373  0  4.20437  0  0  0.626923  0  4.195627  0  0  0.211433  0.567417  0  4.209044  0
C  C30  1  0.71182031  0.34304237  0.37348619  1  0  0.648947  0  3.905949  0  0  0.591384  0  4.204344  0  0  0.626933  0  4.195602  0  0  0.21141  0.567424  0  4.209017  0
C  C31  1  0.21181922  0.15695773  0.62651351  1  0  0.648929  0  3.905928  0  0  0.591338  0  4.204354  0  0  0.626889  0  4.195611  0  0  0.211399  0.567385  0  4.209018  0
C  C32  1  0.24670947  0.56929829  0.72936084  1  0  0.007804  0  3.605177  0  0  0.003008  0  3.856259  0  0  0.004856  0  3.870265  0  0  0.109821  0.002086  0  3.847146  0
C  C33  1  0.74671035  0.93069889  0.27063835  1  0  0.007841  0  3.605246  0  0  0.003002  0  3.856383  0  0  0.004852  0  3.870384  0  0  0.109813  0.002077  0  3.847265  0
C  C34  1  0.75328926  0.43070172  0.27063862  1  0  0.007882  0  3.605067  0  0  0.00306  0  3.856205  0  0  0.004909  0  3.870209  0  0  0.10985  0.002141  0  3.847088  0
C  C35  1  0.25329075  0.06929831  0.72936200  1  0  0.007903  0  3.60513  0  0  0.003115  0  3.856244  0  0  0.004965  0  3.870247  0  0  0.109884  0.002198  0  3.847117  0
C  C36  1  0.33462976  0.57188937  0.83842734  1  0  -0.090351  0  3.730785  0  0  -0.115176  0  3.990398  0  0  -0.118628  0  4.008211  0  0  -0.071893  -0.113874  0  3.978747  0
C  C37  1  0.83462831  0.92810954  0.16157279  1  0  -0.090297  0  3.730817  0  0  -0.115093  0  3.990411  0  0  -0.118546  0  4.008225  0  0  -0.071839  -0.113787  0  3.978758  0
C  C38  1  0.66537015  0.42810970  0.16157211  1  0  -0.090451  0  3.730896  0  0  -0.115259  0  3.990533  0  0  -0.118709  0  4.008341  0  0  -0.071937  -0.113962  0  3.978891  0
C  C39  1  0.16537042  0.07188954  0.83842851  1  0  -0.090406  0  3.730846  0  0  -0.115239  0  3.990462  0  0  -0.118693  0  4.008279  0  0  -0.071944  -0.113942  0  3.978817  0
C  C40  1  0.29168555  0.49915175  0.93878187  1  0  -0.020292  0  3.722294  0  0  -0.046617  0  3.980732  0  0  -0.04227  0  3.996087  0  0  -0.077207  -0.048721  0  3.970086  0
C  C41  1  0.79168649  0.00084822  0.06121782  1  0  -0.020304  0  3.722339  0  0  -0.046636  0  3.980779  0  0  -0.042287  0  3.99613  0  0  -0.077208  -0.048745  0  3.970144  0
C  C42  1  0.70831436  0.50084639  0.06121849  1  0  -0.020248  0  3.722366  0  0  -0.046621  0  3.980828  0  0  -0.042273  0  3.996184  0  0  -0.07721  -0.048725  0  3.970185  0
C  C43  1  0.20831343  0.99915180  0.93878164  1  0  -0.020274  0  3.722347  0  0  -0.046587  0  3.980773  0  0  -0.042239  0  3.996128  0  0  -0.07717  -0.04869  0  3.970128  0
C  C44  1  0.15913507  0.42160964  0.92797021  1  0  -0.082309  0  3.744617  0  0  -0.091399  0  3.993249  0  0  -0.096715  0  4.012589  0  0  -0.075485  -0.087545  0  3.980161  0
C  C45  1  0.65913579  0.07839056  0.07203135  1  0  -0.082328  0  3.744603  0  0  -0.091413  0  3.993226  0  0  -0.096724  0  4.012569  0  0  -0.075478  -0.087558  0  3.980139  0
C  C46  1  0.84086367  0.57839132  0.07202927  1  0  -0.082357  0  3.744573  0  0  -0.091427  0  3.993195  0  0  -0.096742  0  4.012541  0  0  -0.07543  -0.087572  0  3.980106  0
C  C47  1  0.34086413  0.92160852  0.92796902  1  0  -0.08232  0  3.744593  0  0  -0.091393  0  3.993192  0  0  -0.096712  0  4.012539  0  0  -0.075466  -0.087536  0  3.980101  0
C  C48  1  0.07520007  0.41792455  0.81841886  1  0  0.025298  0  3.574947  0  0  -0.016415  0  3.83529  0  0  -0.010148  0  3.847485  0  0  0.041861  -0.021132  0  3.828037  0
C  C49  1  0.57520075  0.08207579  0.18158087  1  0  0.025239  0  3.574873  0  0  -0.016452  0  3.835201  0  0  -0.010187  0  3.847397  0  0  0.041829  -0.02117  0  3.82795  0
C  C50  1  0.92479866  0.58207546  0.18158061  1  0  0.02529  0  3.574936  0  0  -0.016452  0  3.835301  0  0  -0.010184  0  3.847497  0  0  0.041832  -0.021176  0  3.828052  0
C  C51  1  0.42479917  0.91792329  0.81842043  1  0  0.025268  0  3.574927  0  0  -0.016494  0  3.835304  0  0  -0.010221  0  3.847494  0  0  0.041783  -0.02122  0  3.828062  0
I  I52  1  0.36423637  0.70865080  0.22102376  1  0  -0.561016  0  0.933286  0  0  -0.506533  0  1.218821  0  0  -0.528624  0  1.195308  0  0  -0.246678  -0.490955  0  1.236675  0
I  I53  1  0.86423512  0.79134994  0.77897731  1  0  -0.561016  0  0.933269  0  0  -0.506531  0  1.218821  0  0  -0.528621  0  1.195307  0  0  -0.246686  -0.490956  0  1.236674  0
I  I54  1  0.63576472  0.29134922  0.77897662  1  0  -0.561015  0  0.933292  0  0  -0.50653  0  1.218823  0  0  -0.528619  0  1.195308  0  0  -0.246674  -0.49095  0  1.236678  0
I  I55  1  0.13576361  0.20865102  0.22102217  1  0  -0.561024  0  0.933304  0  0  -0.506527  0  1.218825  0  0  -0.528616  0  1.195312  0  0  -0.246674  -0.490945  0  1.236684  0
N  N56  1  0.11873035  0.49003489  0.72129748  1  0  0.26223  0  3.669708  0  0  0.307349  0  3.926179  0  0  0.307863  0  3.948406  0  0  -0.1054  0.306695  0  3.910991  0
N  N57  1  0.61873002  0.00996350  0.27870406  1  0  0.262213  0  3.669695  0  0  0.307339  0  3.92617  0  0  0.307851  0  3.948394  0  0  -0.105404  0.306685  0  3.910981  0
N  N58  1  0.88127075  0.50996513  0.27870198  1  0  0.262255  0  3.669583  0  0  0.307388  0  3.926062  0  0  0.307901  0  3.948287  0  0  -0.105424  0.306736  0  3.910872  0
N  N59  1  0.38126990  0.99003558  0.72129724  1  0  0.262225  0  3.669668  0  0  0.30735  0  3.926145  0  0  0.307863  0  3.948367  0  0  -0.105386  0.306695  0  3.910953  0
O  O60  1  0.18337055  0.96156571  0.43863003  1  0  -0.811909  0  1.946019  0  0  -0.750796  0  2.140638  0  0  -0.774129  0  2.109023  0  0  -0.583152  -0.734201  0  2.163147  0
O  O61  1  0.68337006  0.53843441  0.56136921  1  0  -0.811837  0  1.94606  0  0  -0.750732  0  2.140664  0  0  -0.774056  0  2.109042  0  0  -0.583113  -0.734138  0  2.163166  0
O  O62  1  0.81663055  0.03843525  0.56136852  1  0  -0.811861  0  1.946067  0  0  -0.750762  0  2.140679  0  0  -0.774081  0  2.109056  0  0  -0.583117  -0.734172  0  2.163184  0
O  O63  1  0.31662986  0.46156655  0.43862934  1  0  -0.811922  0  1.946025  0  0  -0.750833  0  2.140644  0  0  -0.774151  0  2.108987  0  0  -0.583159  -0.734237  0  2.163162  0
O  O64  1  0.43372320  0.68806693  0.61854883  1  0  -0.625718  0  2.041968  0  0  -0.555355  0  2.280536  0  0  -0.585012  0  2.270527  0  0  -0.305997  -0.534084  0  2.286374  0
O  O65  1  0.93372556  0.81193274  0.38144944  1  0  -0.625755  0  2.041989  0  0  -0.555333  0  2.280519  0  0  -0.584987  0  2.270506  0  0  -0.306031  -0.534078  0  2.28636  0
O  O66  1  0.56627790  0.31193214  0.38144970  1  0  -0.625724  0  2.041986  0  0  -0.555337  0  2.280569  0  0  -0.584995  0  2.270561  0  0  -0.305988  -0.534069  0  2.286406  0
O  O67  1  0.06627673  0.18806821  0.61855003  1  0  -0.625694  0  2.041959  0  0  -0.555306  0  2.280557  0  0  -0.584959  0  2.270544  0  0  -0.305989  -0.534044  0  2.286394  0
O  O68  1  0.18346442  0.70467867  0.55800707  1  0  -0.617954  0  2.081117  0  0  -0.551166  0  2.339674  0  0  -0.581711  0  2.329051  0  0  -0.31034  -0.529527  0  2.345869  0
O  O69  1  0.68346681  0.79531863  0.44199584  1  0  -0.617941  0  2.081041  0  0  -0.55117  0  2.339619  0  0  -0.581717  0  2.328997  0  0  -0.310327  -0.529532  0  2.345813  0
O  O70  1  0.81653668  0.29532041  0.44199331  1  0  -0.617968  0  2.081081  0  0  -0.551169  0  2.339664  0  0  -0.581718  0  2.329041  0  0  -0.310331  -0.529529  0  2.345857  0
O  O71  1  0.31653666  0.20468045  0.55800639  1  0  -0.617982  0  2.081085  0  0  -0.551177  0  2.339677  0  0  -0.581724  0  2.329055  0  0  -0.310333  -0.529544  0  2.345876  0
O  O72  1  0.03229124  0.48017101  0.61961266  1  0  -0.549246  0  1.936479  0  0  -0.488902  0  2.200153  0  0  -0.515807  0  2.197142  0  0  -0.241853  -0.469347  0  2.201449  0
O  O73  1  0.53229321  0.01982847  0.38038799  1  0  -0.549226  0  1.936616  0  0  -0.488874  0  2.200262  0  0  -0.515791  0  2.19729  0  0  -0.241843  -0.469321  0  2.201557  0
O  O74  1  0.96770868  0.51982901  0.38038588  1  0  -0.549269  0  1.93645  0  0  -0.488914  0  2.200099  0  0  -0.515821  0  2.197095  0  0  -0.241858  -0.469359  0  2.201392  0
O  O75  1  0.46770907  0.98017155  0.61961332  1  0  -0.549277  0  1.936541  0  0  -0.488901  0  2.200159  0  0  -0.515815  0  2.197178  0  0  -0.241859  -0.469347  0  2.201453  0
